MODEL 1
REMARK VINA RESULT: -9.033045691      0.000      0.000
REMARK  11 active torsions:
REMARK  status: ('A' for Active; 'I' for Inactive)
REMARK    1  A    between atoms: N1_6  and  C6_7 
REMARK    2  A    between atoms: C6_7  and  C7_8 
REMARK       I    between atoms: C7_8  and  N2_10 
REMARK    3  A    between atoms: N2_10  and  C8_12 
REMARK    4  A    between atoms: C8_12  and  C9_13 
REMARK    5  A    between atoms: C9_13  and  C10_14 
REMARK    6  A    between atoms: C10_14  and  C11_15 
REMARK    7  A    between atoms: C11_15  and  N3_16 
REMARK    8  A    between atoms: N3_16  and  C12_18 
REMARK    9  A    between atoms: C12_18  and  N4_19 
REMARK   10  A    between atoms: C13_22  and  C14_23 
REMARK   11  A    between atoms: C19_28  and  C20_29 
ROOT
HETATM    1  C10 UNL     1      73.115  53.753   9.420  1.00  0.00     0.021 C 
ENDROOT
BRANCH   1   2
HETATM    2  C9  UNL     1      71.864  54.054  10.199  1.00  0.00     0.021 C 
BRANCH   2   3
HETATM    3  C8  UNL     1      72.133  54.678  11.529  1.00  0.00     0.122 C 
BRANCH   3   4
HETATM    4  N2  UNL     1      73.528  54.808  11.857  1.00  0.00    -0.360 N 
HETATM    5  C7  UNL     1      74.089  55.787  12.697  1.00  0.00     0.235 C 
HETATM    6  O1  UNL     1      73.319  56.649  13.231  1.00  0.00    -0.272 OA
ATOM      7  H2  UNL     1      74.169  54.130  11.444  1.00  0.00     0.162 HD
BRANCH   5   8
HETATM    8  C6  UNL     1      75.533  55.883  13.003  1.00  0.00     0.230 C 
BRANCH   8   9
HETATM    9  N1  UNL     1      76.147  57.048  12.410  1.00  0.00    -0.325 N 
HETATM   10  C5  UNL     1      75.625  57.483  11.123  1.00  0.00     0.130 C 
HETATM   11  C4  UNL     1      76.574  58.398  10.423  1.00  0.00     0.050 C 
HETATM   12  C2  UNL     1      78.014  58.197  10.797  1.00  0.00     0.029 C 
HETATM   13  C1  UNL     1      78.875  59.118   9.990  1.00  0.00     0.038 C 
HETATM   14  C3  UNL     1      78.444  56.752  10.600  1.00  0.00     0.038 C 
HETATM   15  N6  UNL     1      78.103  58.475  12.233  1.00  0.00    -0.334 N 
HETATM   16  C21 UNL     1      77.221  57.719  13.072  1.00  0.00     0.319 C 
ATOM     17  H6  UNL     1      78.754  59.163  12.613  1.00  0.00     0.165 HD
HETATM   18  O3  UNL     1      77.361  57.638  14.313  1.00  0.00    -0.247 OA
ENDBRANCH   8   9
ENDBRANCH   5   8
ENDBRANCH   3   4
ENDBRANCH   2   3
ENDBRANCH   1   2
BRANCH   1  19
HETATM   19  C11 UNL     1      73.104  52.402   8.784  1.00  0.00     0.121 C 
BRANCH  19  20
HETATM   20  N3  UNL     1      74.392  51.743   8.837  1.00  0.00    -0.377 N 
ATOM     21  H3  UNL     1      74.949  51.685   9.690  1.00  0.00     0.161 HD
BRANCH  20  22
HETATM   22  C12 UNL     1      74.827  51.169   7.569  1.00  0.00     0.094 C 
HETATM   23  C13 UNL     1      73.841  50.361   6.925  1.00  0.00     0.051 C 
BRANCH  22  24
HETATM   24  N4  UNL     1      76.016  51.491   7.286  1.00  0.00    -0.386 N 
ATOM     25  H42 UNL     1      76.666  52.186   7.653  1.00  0.00     0.157 HD
ATOM     26  H41 UNL     1      76.390  50.937   6.516  1.00  0.00     0.157 HD
ENDBRANCH  22  24
BRANCH  23  27
HETATM   27  C14 UNL     1      73.988  49.772   5.599  1.00  0.00    -0.064 C 
HETATM   28  C15 UNL     1      73.186  50.452   4.531  1.00  0.00     0.035 C 
HETATM   29  C16 UNL     1      73.188  49.763   3.197  1.00  0.00     0.004 C 
HETATM   30  C17 UNL     1      74.520  49.054   3.100  1.00  0.00     0.001 C 
HETATM   31  C18 UNL     1      74.423  47.869   4.041  1.00  0.00     0.018 C 
HETATM   32  C19 UNL     1      74.174  48.303   5.472  1.00  0.00     0.104 C 
BRANCH  32  33
HETATM   33  C20 UNL     1      73.128  47.424   6.022  1.00  0.00     0.239 C 
HETATM   34  N5  UNL     1      73.332  46.398   6.987  1.00  0.00    -0.062 NA
HETATM   35  O2  UNL     1      71.901  47.519   5.659  1.00  0.00    -0.276 OA
ENDBRANCH  32  33
ENDBRANCH  23  27
ENDBRANCH  20  22
ENDBRANCH  19  20
ENDBRANCH   1  19
TORSDOF 11
ENDMDL
MODEL 2
REMARK VINA RESULT: -8.605945796      2.866      8.021
REMARK  11 active torsions:
REMARK  status: ('A' for Active; 'I' for Inactive)
REMARK    1  A    between atoms: N1_6  and  C6_7 
REMARK    2  A    between atoms: C6_7  and  C7_8 
REMARK       I    between atoms: C7_8  and  N2_10 
REMARK    3  A    between atoms: N2_10  and  C8_12 
REMARK    4  A    between atoms: C8_12  and  C9_13 
REMARK    5  A    between atoms: C9_13  and  C10_14 
REMARK    6  A    between atoms: C10_14  and  C11_15 
REMARK    7  A    between atoms: C11_15  and  N3_16 
REMARK    8  A    between atoms: N3_16  and  C12_18 
REMARK    9  A    between atoms: C12_18  and  N4_19 
REMARK   10  A    between atoms: C13_22  and  C14_23 
REMARK   11  A    between atoms: C19_28  and  C20_29 
ROOT
HETATM    1  C10 UNL     1      76.239  57.844  10.286  1.00  0.00     0.021 C 
ENDROOT
BRANCH   1   2
HETATM    2  C9  UNL     1      76.442  56.890   9.140  1.00  0.00     0.021 C 
BRANCH   2   3
HETATM    3  C8  UNL     1      77.436  55.816   9.437  1.00  0.00     0.122 C 
BRANCH   3   4
HETATM    4  N2  UNL     1      77.146  54.546   8.823  1.00  0.00    -0.360 N 
HETATM    5  C7  UNL     1      77.441  54.187   7.496  1.00  0.00     0.235 C 
HETATM    6  O1  UNL     1      78.017  55.038   6.744  1.00  0.00    -0.272 OA
ATOM      7  H2  UNL     1      76.686  53.844   9.403  1.00  0.00     0.162 HD
BRANCH   5   8
HETATM    8  C6  UNL     1      77.121  52.867   6.908  1.00  0.00     0.230 C 
BRANCH   8   9
HETATM    9  N1  UNL     1      75.739  52.496   7.104  1.00  0.00    -0.325 N 
HETATM   10  C5  UNL     1      75.453  51.587   8.204  1.00  0.00     0.130 C 
HETATM   11  C4  UNL     1      74.109  50.954   8.059  1.00  0.00     0.050 C 
HETATM   12  C2  UNL     1      73.627  50.844   6.641  1.00  0.00     0.029 C 
HETATM   13  C1  UNL     1      72.308  50.137   6.613  1.00  0.00     0.038 C 
HETATM   14  C3  UNL     1      74.639  50.123   5.764  1.00  0.00     0.038 C 
HETATM   15  N6  UNL     1      73.530  52.216   6.138  1.00  0.00    -0.334 N 
HETATM   16  C21 UNL     1      74.721  53.006   6.240  1.00  0.00     0.319 C 
ATOM     17  H6  UNL     1      72.667  52.587   5.740  1.00  0.00     0.165 HD
HETATM   18  O3  UNL     1      74.884  54.081   5.621  1.00  0.00    -0.247 OA
ENDBRANCH   8   9
ENDBRANCH   5   8
ENDBRANCH   3   4
ENDBRANCH   2   3
ENDBRANCH   1   2
BRANCH   1  19
HETATM   19  C11 UNL     1      74.981  57.590  11.050  1.00  0.00     0.121 C 
BRANCH  19  20
HETATM   20  N3  UNL     1      75.178  56.708  12.182  1.00  0.00    -0.377 N 
ATOM     21  H3  UNL     1      75.895  56.869  12.890  1.00  0.00     0.161 HD
BRANCH  20  22
HETATM   22  C12 UNL     1      74.266  55.571  12.224  1.00  0.00     0.094 C 
HETATM   23  C13 UNL     1      73.465  55.420  11.051  1.00  0.00     0.051 C 
BRANCH  22  24
HETATM   24  N4  UNL     1      74.351  54.936  13.314  1.00  0.00    -0.386 N 
ATOM     25  H42 UNL     1      74.078  53.999  13.609  1.00  0.00     0.157 HD
ATOM     26  H41 UNL     1      74.775  55.499  14.052  1.00  0.00     0.157 HD
ENDBRANCH  22  24
BRANCH  23  27
HETATM   27  C14 UNL     1      72.563  54.303  10.800  1.00  0.00    -0.064 C 
HETATM   28  C15 UNL     1      72.304  54.035   9.348  1.00  0.00     0.035 C 
HETATM   29  C16 UNL     1      71.249  53.002   9.070  1.00  0.00     0.004 C 
HETATM   30  C17 UNL     1      71.294  52.041  10.237  1.00  0.00     0.001 C 
HETATM   31  C18 UNL     1      70.674  52.785  11.404  1.00  0.00     0.018 C 
HETATM   32  C19 UNL     1      71.446  54.044  11.746  1.00  0.00     0.104 C 
BRANCH  32  33
HETATM   33  C20 UNL     1      70.461  55.117  11.962  1.00  0.00     0.239 C 
HETATM   34  N5  UNL     1      69.416  55.476  11.065  1.00  0.00    -0.062 NA
HETATM   35  O2  UNL     1      70.468  55.842  13.022  1.00  0.00    -0.276 OA
ENDBRANCH  32  33
ENDBRANCH  23  27
ENDBRANCH  20  22
ENDBRANCH  19  20
ENDBRANCH   1  19
TORSDOF 11
ENDMDL
MODEL 3
REMARK VINA RESULT: -8.494944267      1.618      2.280
REMARK  11 active torsions:
REMARK  status: ('A' for Active; 'I' for Inactive)
REMARK    1  A    between atoms: N1_6  and  C6_7 
REMARK    2  A    between atoms: C6_7  and  C7_8 
REMARK       I    between atoms: C7_8  and  N2_10 
REMARK    3  A    between atoms: N2_10  and  C8_12 
REMARK    4  A    between atoms: C8_12  and  C9_13 
REMARK    5  A    between atoms: C9_13  and  C10_14 
REMARK    6  A    between atoms: C10_14  and  C11_15 
REMARK    7  A    between atoms: C11_15  and  N3_16 
REMARK    8  A    between atoms: N3_16  and  C12_18 
REMARK    9  A    between atoms: C12_18  and  N4_19 
REMARK   10  A    between atoms: C13_22  and  C14_23 
REMARK   11  A    between atoms: C19_28  and  C20_29 
ROOT
HETATM    1  C10 UNL     1      73.174  53.137   9.154  1.00  0.00     0.021 C 
ENDROOT
BRANCH   1   2
HETATM    2  C9  UNL     1      72.213  53.429  10.275  1.00  0.00     0.021 C 
BRANCH   2   3
HETATM    3  C8  UNL     1      72.424  54.770  10.898  1.00  0.00     0.122 C 
BRANCH   3   4
HETATM    4  N2  UNL     1      73.727  54.963  11.477  1.00  0.00    -0.360 N 
HETATM    5  C7  UNL     1      74.049  55.881  12.493  1.00  0.00     0.235 C 
HETATM    6  O1  UNL     1      73.128  56.621  12.964  1.00  0.00    -0.272 OA
ATOM      7  H2  UNL     1      74.486  54.382  11.119  1.00  0.00     0.162 HD
BRANCH   5   8
HETATM    8  C6  UNL     1      75.408  56.045  13.056  1.00  0.00     0.230 C 
BRANCH   8   9
HETATM    9  N1  UNL     1      76.104  57.181  12.497  1.00  0.00    -0.325 N 
HETATM   10  C5  UNL     1      75.593  57.712  11.242  1.00  0.00     0.130 C 
HETATM   11  C4  UNL     1      76.600  58.576  10.559  1.00  0.00     0.050 C 
HETATM   12  C2  UNL     1      78.026  58.243  10.892  1.00  0.00     0.029 C 
HETATM   13  C1  UNL     1      78.944  59.125  10.103  1.00  0.00     0.038 C 
HETATM   14  C3  UNL     1      78.333  56.778  10.624  1.00  0.00     0.038 C 
HETATM   15  N6  UNL     1      78.166  58.451  12.335  1.00  0.00    -0.334 N 
HETATM   16  C21 UNL     1      77.241  57.734  13.162  1.00  0.00     0.319 C 
ATOM     17  H6  UNL     1      78.878  59.067  12.728  1.00  0.00     0.165 HD
HETATM   18  O3  UNL     1      77.398  57.588  14.395  1.00  0.00    -0.247 OA
ENDBRANCH   8   9
ENDBRANCH   5   8
ENDBRANCH   3   4
ENDBRANCH   2   3
ENDBRANCH   1   2
BRANCH   1  19
HETATM   19  C11 UNL     1      73.699  51.739   9.176  1.00  0.00     0.121 C 
BRANCH  19  20
HETATM   20  N3  UNL     1      74.473  51.409   7.997  1.00  0.00    -0.377 N 
ATOM     21  H3  UNL     1      75.373  51.842   7.788  1.00  0.00     0.161 HD
BRANCH  20  22
HETATM   22  C12 UNL     1      73.858  50.408   7.135  1.00  0.00     0.094 C 
HETATM   23  C13 UNL     1      74.344  50.415   5.791  1.00  0.00     0.051 C 
BRANCH  22  24
HETATM   24  N4  UNL     1      72.988  49.724   7.748  1.00  0.00    -0.386 N 
ATOM     25  H42 UNL     1      73.037  48.975   8.438  1.00  0.00     0.157 HD
ATOM     26  H41 UNL     1      72.039  49.981   7.476  1.00  0.00     0.157 HD
ENDBRANCH  22  24
BRANCH  23  27
HETATM   27  C14 UNL     1      73.974  49.443   4.770  1.00  0.00    -0.064 C 
HETATM   28  C15 UNL     1      75.076  48.500   4.389  1.00  0.00     0.035 C 
HETATM   29  C16 UNL     1      74.773  47.604   3.223  1.00  0.00     0.004 C 
HETATM   30  C17 UNL     1      73.278  47.380   3.252  1.00  0.00     0.001 C 
HETATM   31  C18 UNL     1      72.659  48.684   2.788  1.00  0.00     0.018 C 
HETATM   32  C19 UNL     1      73.023  49.839   3.699  1.00  0.00     0.104 C 
BRANCH  32  33
HETATM   33  C20 UNL     1      73.386  50.979   2.840  1.00  0.00     0.239 C 
HETATM   34  N5  UNL     1      73.005  52.333   3.056  1.00  0.00    -0.062 NA
HETATM   35  O2  UNL     1      74.105  50.833   1.786  1.00  0.00    -0.276 OA
ENDBRANCH  32  33
ENDBRANCH  23  27
ENDBRANCH  20  22
ENDBRANCH  19  20
ENDBRANCH   1  19
TORSDOF 11
ENDMDL
MODEL 4
REMARK VINA RESULT: -8.488259309      2.586     10.286
REMARK  11 active torsions:
REMARK  status: ('A' for Active; 'I' for Inactive)
REMARK    1  A    between atoms: N1_6  and  C6_7 
REMARK    2  A    between atoms: C6_7  and  C7_8 
REMARK       I    between atoms: C7_8  and  N2_10 
REMARK    3  A    between atoms: N2_10  and  C8_12 
REMARK    4  A    between atoms: C8_12  and  C9_13 
REMARK    5  A    between atoms: C9_13  and  C10_14 
REMARK    6  A    between atoms: C10_14  and  C11_15 
REMARK    7  A    between atoms: C11_15  and  N3_16 
REMARK    8  A    between atoms: N3_16  and  C12_18 
REMARK    9  A    between atoms: C12_18  and  N4_19 
REMARK   10  A    between atoms: C13_22  and  C14_23 
REMARK   11  A    between atoms: C19_28  and  C20_29 
ROOT
HETATM    1  C10 UNL     1      71.539  52.571   9.175  1.00  0.00     0.021 C 
ENDROOT
BRANCH   1   2
HETATM    2  C9  UNL     1      71.509  51.272   9.934  1.00  0.00     0.021 C 
BRANCH   2   3
HETATM    3  C8  UNL     1      72.189  50.154   9.216  1.00  0.00     0.122 C 
BRANCH   3   4
HETATM    4  N2  UNL     1      72.487  50.423   7.834  1.00  0.00    -0.360 N 
HETATM    5  C7  UNL     1      72.221  49.565   6.752  1.00  0.00     0.235 C 
HETATM    6  O1  UNL     1      71.667  48.442   6.982  1.00  0.00    -0.272 OA
ATOM      7  H2  UNL     1      72.930  51.316   7.619  1.00  0.00     0.162 HD
BRANCH   5   8
HETATM    8  C6  UNL     1      72.548  49.885   5.345  1.00  0.00     0.230 C 
BRANCH   8   9
HETATM    9  N1  UNL     1      73.345  48.859   4.715  1.00  0.00    -0.325 N 
HETATM   10  C5  UNL     1      74.736  48.760   5.130  1.00  0.00     0.130 C 
HETATM   11  C4  UNL     1      75.551  47.983   4.150  1.00  0.00     0.050 C 
HETATM   12  C2  UNL     1      75.022  48.017   2.745  1.00  0.00     0.029 C 
HETATM   13  C1  UNL     1      75.949  47.264   1.842  1.00  0.00     0.038 C 
HETATM   14  C3  UNL     1      74.839  49.445   2.253  1.00  0.00     0.038 C 
HETATM   15  N6  UNL     1      73.689  47.411   2.797  1.00  0.00    -0.334 N 
HETATM   16  C21 UNL     1      72.772  47.997   3.729  1.00  0.00     0.319 C 
ATOM     17  H6  UNL     1      73.430  46.621   2.207  1.00  0.00     0.165 HD
HETATM   18  O3  UNL     1      71.539  47.783   3.703  1.00  0.00    -0.247 OA
ENDBRANCH   8   9
ENDBRANCH   5   8
ENDBRANCH   3   4
ENDBRANCH   2   3
ENDBRANCH   1   2
BRANCH   1  19
HETATM   19  C11 UNL     1      72.716  53.426   9.515  1.00  0.00     0.121 C 
BRANCH  19  20
HETATM   20  N3  UNL     1      72.374  54.538  10.377  1.00  0.00    -0.377 N 
ATOM     21  H3  UNL     1      71.426  54.905  10.457  1.00  0.00     0.161 HD
BRANCH  20  22
HETATM   22  C12 UNL     1      73.500  55.088  11.123  1.00  0.00     0.094 C 
HETATM   23  C13 UNL     1      74.402  55.864  10.332  1.00  0.00     0.051 C 
BRANCH  22  24
HETATM   24  N4  UNL     1      73.468  54.755  12.342  1.00  0.00    -0.386 N 
ATOM     25  H42 UNL     1      73.145  55.216  13.193  1.00  0.00     0.157 HD
ATOM     26  H41 UNL     1      73.865  53.828  12.496  1.00  0.00     0.157 HD
ENDBRANCH  22  24
BRANCH  23  27
HETATM   27  C14 UNL     1      75.536  56.612  10.861  1.00  0.00    -0.064 C 
HETATM   28  C15 UNL     1      75.361  58.100  10.829  1.00  0.00     0.035 C 
HETATM   29  C16 UNL     1      76.579  58.893  11.209  1.00  0.00     0.004 C 
HETATM   30  C17 UNL     1      77.343  58.032  12.188  1.00  0.00     0.001 C 
HETATM   31  C18 UNL     1      77.963  56.922  11.361  1.00  0.00     0.018 C 
HETATM   32  C19 UNL     1      76.912  56.089  10.656  1.00  0.00     0.104 C 
BRANCH  32  33
HETATM   33  C20 UNL     1      77.373  55.879   9.273  1.00  0.00     0.239 C 
HETATM   34  N5  UNL     1      77.478  56.887   8.274  1.00  0.00    -0.062 NA
HETATM   35  O2  UNL     1      77.731  54.724   8.844  1.00  0.00    -0.276 OA
ENDBRANCH  32  33
ENDBRANCH  23  27
ENDBRANCH  20  22
ENDBRANCH  19  20
ENDBRANCH   1  19
TORSDOF 11
ENDMDL
MODEL 5
REMARK VINA RESULT: -8.428412843      2.081     10.523
REMARK  11 active torsions:
REMARK  status: ('A' for Active; 'I' for Inactive)
REMARK    1  A    between atoms: N1_6  and  C6_7 
REMARK    2  A    between atoms: C6_7  and  C7_8 
REMARK       I    between atoms: C7_8  and  N2_10 
REMARK    3  A    between atoms: N2_10  and  C8_12 
REMARK    4  A    between atoms: C8_12  and  C9_13 
REMARK    5  A    between atoms: C9_13  and  C10_14 
REMARK    6  A    between atoms: C10_14  and  C11_15 
REMARK    7  A    between atoms: C11_15  and  N3_16 
REMARK    8  A    between atoms: N3_16  and  C12_18 
REMARK    9  A    between atoms: C12_18  and  N4_19 
REMARK   10  A    between atoms: C13_22  and  C14_23 
REMARK   11  A    between atoms: C19_28  and  C20_29 
ROOT
HETATM    1  C10 UNL     1      71.537  52.746   9.010  1.00  0.00     0.021 C 
ENDROOT
BRANCH   1   2
HETATM    2  C9  UNL     1      71.612  51.509   9.865  1.00  0.00     0.021 C 
BRANCH   2   3
HETATM    3  C8  UNL     1      72.211  50.339   9.157  1.00  0.00     0.122 C 
BRANCH   3   4
HETATM    4  N2  UNL     1      72.516  50.571   7.770  1.00  0.00    -0.360 N 
HETATM    5  C7  UNL     1      72.220  49.701   6.705  1.00  0.00     0.235 C 
HETATM    6  O1  UNL     1      71.629  48.602   6.958  1.00  0.00    -0.272 OA
ATOM      7  H2  UNL     1      72.989  51.444   7.538  1.00  0.00     0.162 HD
BRANCH   5   8
HETATM    8  C6  UNL     1      72.557  49.982   5.292  1.00  0.00     0.230 C 
BRANCH   8   9
HETATM    9  N1  UNL     1      73.360  48.939   4.698  1.00  0.00    -0.325 N 
HETATM   10  C5  UNL     1      74.749  48.855   5.124  1.00  0.00     0.130 C 
HETATM   11  C4  UNL     1      75.571  48.052   4.171  1.00  0.00     0.050 C 
HETATM   12  C2  UNL     1      75.051  48.044   2.762  1.00  0.00     0.029 C 
HETATM   13  C1  UNL     1      75.985  47.267   1.888  1.00  0.00     0.038 C 
HETATM   14  C3  UNL     1      74.869  49.457   2.229  1.00  0.00     0.038 C 
HETATM   15  N6  UNL     1      73.719  47.438   2.824  1.00  0.00    -0.334 N 
HETATM   16  C21 UNL     1      72.795  48.049   3.733  1.00  0.00     0.319 C 
ATOM     17  H6  UNL     1      73.464  46.630   2.255  1.00  0.00     0.165 HD
HETATM   18  O3  UNL     1      71.563  47.832   3.704  1.00  0.00    -0.247 OA
ENDBRANCH   8   9
ENDBRANCH   5   8
ENDBRANCH   3   4
ENDBRANCH   2   3
ENDBRANCH   1   2
BRANCH   1  19
HETATM   19  C11 UNL     1      72.530  53.793   9.396  1.00  0.00     0.121 C 
BRANCH  19  20
HETATM   20  N3  UNL     1      72.402  54.209  10.777  1.00  0.00    -0.377 N 
ATOM     21  H3  UNL     1      71.579  54.001  11.343  1.00  0.00     0.161 HD
BRANCH  20  22
HETATM   22  C12 UNL     1      73.549  54.949  11.291  1.00  0.00     0.094 C 
HETATM   23  C13 UNL     1      74.199  55.768  10.318  1.00  0.00     0.051 C 
BRANCH  22  24
HETATM   24  N4  UNL     1      73.758  54.707  12.515  1.00  0.00    -0.386 N 
ATOM     25  H42 UNL     1      73.623  55.241  13.373  1.00  0.00     0.157 HD
ATOM     26  H41 UNL     1      74.159  53.780  12.658  1.00  0.00     0.157 HD
ENDBRANCH  22  24
BRANCH  23  27
HETATM   27  C14 UNL     1      75.292  56.688  10.607  1.00  0.00    -0.064 C 
HETATM   28  C15 UNL     1      76.637  56.033  10.710  1.00  0.00     0.035 C 
HETATM   29  C16 UNL     1      77.748  56.930  11.173  1.00  0.00     0.004 C 
HETATM   30  C17 UNL     1      77.385  58.318  10.696  1.00  0.00     0.001 C 
HETATM   31  C18 UNL     1      76.249  58.774  11.591  1.00  0.00     0.018 C 
HETATM   32  C19 UNL     1      75.044  57.862  11.484  1.00  0.00     0.104 C 
BRANCH  32  33
HETATM   33  C20 UNL     1      74.559  57.612  12.852  1.00  0.00     0.239 C 
HETATM   34  N5  UNL     1      73.248  57.890  13.329  1.00  0.00    -0.062 NA
HETATM   35  O2  UNL     1      75.313  57.101  13.757  1.00  0.00    -0.276 OA
ENDBRANCH  32  33
ENDBRANCH  23  27
ENDBRANCH  20  22
ENDBRANCH  19  20
ENDBRANCH   1  19
TORSDOF 11
ENDMDL
