MODEL 1
REMARK VINA RESULT: -8.605630048      0.000      0.000
REMARK  11 active torsions:
REMARK  status: ('A' for Active; 'I' for Inactive)
REMARK    1  A    between atoms: C2_2  and  C3_3 
REMARK    2  A    between atoms: C2_2  and  C14_18 
REMARK    3  A    between atoms: C5_8  and  C6_9 
REMARK    4  A    between atoms: C6_9  and  C7_10 
REMARK    5  A    between atoms: C8_11  and  C9_12 
REMARK    6  A    between atoms: C14_18  and  O2_19 
REMARK    7  A    between atoms: C14_18  and  C15_21 
REMARK    8  A    between atoms: C15_21  and  O3_22 
REMARK    9  A    between atoms: C15_21  and  C16_24 
REMARK   10  A    between atoms: C16_24  and  N2_25 
REMARK   11  A    between atoms: N2_25  and  C17_27 
ROOT
HETATM    1  C3  UNL     1      15.190  55.187  37.753  1.00  0.00     0.327 C 
HETATM    2  N1  UNL     1      14.454  55.372  36.554  1.00  0.00    -0.046 N 
ATOM      3  H11 UNL     1      13.636  54.769  36.462  1.00  0.00     0.280 HD
ATOM      4  H12 UNL     1      14.925  55.041  35.712  1.00  0.00     0.280 HD
HETATM    5  C4  UNL     1      14.155  56.798  36.559  1.00  0.00     0.267 C 
HETATM    6  C5  UNL     1      15.212  57.349  37.463  1.00  0.00     0.153 C 
HETATM    7  O1  UNL     1      16.041  56.283  37.800  1.00  0.00    -0.351 OA
ENDROOT
BRANCH   1   8
HETATM    8  C2  UNL     1      15.967  53.892  37.839  1.00  0.00     0.070 C 
HETATM    9  C1  UNL     1      15.215  53.017  38.818  1.00  0.00     0.017 C 
BRANCH   8  10
HETATM   10  C14 UNL     1      16.257  53.240  36.535  1.00  0.00     0.160 C 
BRANCH  10  11
HETATM   11  O2  UNL     1      16.968  54.160  35.748  1.00  0.00    -0.392 OA
ATOM     12  H2  UNL     1      16.789  53.958  34.838  1.00  0.00     0.210 HD
ENDBRANCH  10  11
BRANCH  10  13
HETATM   13  C15 UNL     1      17.078  51.978  36.739  1.00  0.00     0.185 C 
BRANCH  13  14
HETATM   14  O3  UNL     1      16.450  50.866  36.230  1.00  0.00    -0.388 OA
ATOM     15  H3  UNL     1      16.992  50.408  35.599  1.00  0.00     0.210 HD
ENDBRANCH  13  14
BRANCH  13  16
HETATM   16  C16 UNL     1      18.477  52.113  36.269  1.00  0.00     0.090 C 
BRANCH  16  17
HETATM   17  N2  UNL     1      19.508  52.312  37.184  1.00  0.00    -0.392 N 
ATOM     18  H2  UNL     1      19.943  51.487  37.597  1.00  0.00     0.159 HD
BRANCH  17  19
HETATM   19  C17 UNL     1      19.988  53.564  37.573  1.00  0.00     0.018 C 
HETATM   20  C18 UNL     1      21.477  53.332  37.985  1.00  0.00     0.037 C 
HETATM   21  C19 UNL     1      20.075  54.629  36.506  1.00  0.00     0.037 C 
HETATM   22  C20 UNL     1      19.350  54.141  38.812  1.00  0.00     0.037 C 
ENDBRANCH  17  19
ENDBRANCH  16  17
ENDBRANCH  13  16
ENDBRANCH  10  13
ENDBRANCH   8  10
ENDBRANCH   1   8
BRANCH   6  23
HETATM   23  C6  UNL     1      14.722  58.037  38.691  1.00  0.00     0.060 C 
BRANCH  23  24
HETATM   24  C7  UNL     1      13.337  58.471  38.728  1.00  0.00    -0.028 C 
HETATM   25  C8  UNL     1      12.926  59.703  38.660  1.00  0.00    -0.026 C 
BRANCH  25  26
HETATM   26  C9  UNL     1      11.492  60.131  38.699  1.00  0.00     0.008 C 
HETATM   27  C10 UNL     1      11.342  61.605  39.023  1.00  0.00     0.008 C 
HETATM   28  C11 UNL     1      10.057  62.028  38.323  1.00  0.00     0.001 C 
HETATM   29  C12 UNL     1       9.764  60.991  37.276  1.00  0.00     0.001 C 
HETATM   30  C13 UNL     1      11.015  60.140  37.243  1.00  0.00     0.008 C 
ENDBRANCH  25  26
ENDBRANCH  23  24
ENDBRANCH   6  23
TORSDOF 11
ENDMDL
MODEL 2
REMARK VINA RESULT: -8.396511296      1.359      2.046
REMARK  11 active torsions:
REMARK  status: ('A' for Active; 'I' for Inactive)
REMARK    1  A    between atoms: C2_2  and  C3_3 
REMARK    2  A    between atoms: C2_2  and  C14_18 
REMARK    3  A    between atoms: C5_8  and  C6_9 
REMARK    4  A    between atoms: C6_9  and  C7_10 
REMARK    5  A    between atoms: C8_11  and  C9_12 
REMARK    6  A    between atoms: C14_18  and  O2_19 
REMARK    7  A    between atoms: C14_18  and  C15_21 
REMARK    8  A    between atoms: C15_21  and  O3_22 
REMARK    9  A    between atoms: C15_21  and  C16_24 
REMARK   10  A    between atoms: C16_24  and  N2_25 
REMARK   11  A    between atoms: N2_25  and  C17_27 
ROOT
HETATM    1  C3  UNL     1      15.287  55.060  37.656  1.00  0.00     0.327 C 
HETATM    2  N1  UNL     1      14.577  55.210  36.435  1.00  0.00    -0.046 N 
ATOM      3  H11 UNL     1      13.779  54.584  36.330  1.00  0.00     0.280 HD
ATOM      4  H12 UNL     1      15.079  54.880  35.610  1.00  0.00     0.280 HD
HETATM    5  C4  UNL     1      14.242  56.628  36.412  1.00  0.00     0.267 C 
HETATM    6  C5  UNL     1      15.260  57.218  37.335  1.00  0.00     0.153 C 
HETATM    7  O1  UNL     1      16.108  56.179  37.708  1.00  0.00    -0.351 OA
ENDROOT
BRANCH   1   8
HETATM    8  C2  UNL     1      16.094  53.788  37.780  1.00  0.00     0.070 C 
HETATM    9  C1  UNL     1      15.333  52.901  38.741  1.00  0.00     0.017 C 
BRANCH   8  10
HETATM   10  C14 UNL     1      16.446  53.132  36.493  1.00  0.00     0.160 C 
BRANCH  10  11
HETATM   11  O2  UNL     1      17.272  54.014  35.779  1.00  0.00    -0.392 OA
ATOM     12  H2  UNL     1      17.523  53.582  34.971  1.00  0.00     0.210 HD
ENDBRANCH  10  11
BRANCH  10  13
HETATM   13  C15 UNL     1      17.168  51.819  36.741  1.00  0.00     0.185 C 
BRANCH  13  14
HETATM   14  O3  UNL     1      16.538  50.760  36.132  1.00  0.00    -0.388 OA
ATOM     15  H3  UNL     1      17.066  50.382  35.437  1.00  0.00     0.210 HD
ENDBRANCH  13  14
BRANCH  13  16
HETATM   16  C16 UNL     1      18.615  51.884  36.428  1.00  0.00     0.090 C 
BRANCH  16  17
HETATM   17  N2  UNL     1      19.389  50.726  36.446  1.00  0.00    -0.392 N 
ATOM     18  H2  UNL     1      19.435  50.198  37.316  1.00  0.00     0.159 HD
BRANCH  17  19
HETATM   19  C17 UNL     1      20.108  50.239  35.351  1.00  0.00     0.018 C 
HETATM   20  C18 UNL     1      21.205  51.312  35.061  1.00  0.00     0.037 C 
HETATM   21  C19 UNL     1      20.896  48.968  35.557  1.00  0.00     0.037 C 
HETATM   22  C20 UNL     1      19.332  50.150  34.061  1.00  0.00     0.037 C 
ENDBRANCH  17  19
ENDBRANCH  16  17
ENDBRANCH  13  16
ENDBRANCH  10  13
ENDBRANCH   8  10
ENDBRANCH   1   8
BRANCH   6  23
HETATM   23  C6  UNL     1      14.721  57.909  38.540  1.00  0.00     0.060 C 
BRANCH  23  24
HETATM   24  C7  UNL     1      13.345  58.371  38.508  1.00  0.00    -0.028 C 
HETATM   25  C8  UNL     1      12.945  59.582  38.760  1.00  0.00    -0.026 C 
BRANCH  25  26
HETATM   26  C9  UNL     1      11.519  60.039  38.720  1.00  0.00     0.008 C 
HETATM   27  C10 UNL     1      11.384  61.520  39.017  1.00  0.00     0.008 C 
HETATM   28  C11 UNL     1      10.144  61.959  38.246  1.00  0.00     0.001 C 
HETATM   29  C12 UNL     1       9.883  60.912  37.200  1.00  0.00     0.001 C 
HETATM   30  C13 UNL     1      11.116  60.036  37.243  1.00  0.00     0.008 C 
ENDBRANCH  25  26
ENDBRANCH  23  24
ENDBRANCH   6  23
TORSDOF 11
ENDMDL
MODEL 3
REMARK VINA RESULT: -8.330526263      1.345      2.128
REMARK  11 active torsions:
REMARK  status: ('A' for Active; 'I' for Inactive)
REMARK    1  A    between atoms: C2_2  and  C3_3 
REMARK    2  A    between atoms: C2_2  and  C14_18 
REMARK    3  A    between atoms: C5_8  and  C6_9 
REMARK    4  A    between atoms: C6_9  and  C7_10 
REMARK    5  A    between atoms: C8_11  and  C9_12 
REMARK    6  A    between atoms: C14_18  and  O2_19 
REMARK    7  A    between atoms: C14_18  and  C15_21 
REMARK    8  A    between atoms: C15_21  and  O3_22 
REMARK    9  A    between atoms: C15_21  and  C16_24 
REMARK   10  A    between atoms: C16_24  and  N2_25 
REMARK   11  A    between atoms: N2_25  and  C17_27 
ROOT
HETATM    1  C3  UNL     1      15.150  55.993  38.118  1.00  0.00     0.327 C 
HETATM    2  N1  UNL     1      15.319  55.229  39.303  1.00  0.00    -0.046 N 
ATOM      3  H11 UNL     1      16.253  54.839  39.425  1.00  0.00     0.280 HD
ATOM      4  H12 UNL     1      14.830  54.334  39.304  1.00  0.00     0.280 HD
HETATM    5  C4  UNL     1      14.904  56.146  40.357  1.00  0.00     0.267 C 
HETATM    6  C5  UNL     1      14.036  57.117  39.621  1.00  0.00     0.153 C 
HETATM    7  O1  UNL     1      13.944  56.653  38.311  1.00  0.00    -0.351 OA
ENDROOT
BRANCH   1   8
HETATM    8  C2  UNL     1      15.134  55.195  36.834  1.00  0.00     0.070 C 
HETATM    9  C1  UNL     1      14.317  56.003  35.850  1.00  0.00     0.017 C 
BRANCH   8  10
HETATM   10  C14 UNL     1      16.469  54.783  36.326  1.00  0.00     0.160 C 
BRANCH  10  11
HETATM   11  O2  UNL     1      17.438  55.484  37.061  1.00  0.00    -0.392 OA
ATOM     12  H2  UNL     1      18.164  55.667  36.477  1.00  0.00     0.210 HD
ENDBRANCH  10  11
BRANCH  10  13
HETATM   13  C15 UNL     1      16.665  53.286  36.491  1.00  0.00     0.185 C 
BRANCH  13  14
HETATM   14  O3  UNL     1      16.895  52.660  35.288  1.00  0.00    -0.388 OA
ATOM     15  H3  UNL     1      16.200  52.052  35.064  1.00  0.00     0.210 HD
ENDBRANCH  13  14
BRANCH  13  16
HETATM   16  C16 UNL     1      17.675  52.942  37.519  1.00  0.00     0.090 C 
BRANCH  16  17
HETATM   17  N2  UNL     1      18.930  52.470  37.141  1.00  0.00    -0.392 N 
ATOM     18  H2  UNL     1      18.978  51.560  36.684  1.00  0.00     0.159 HD
BRANCH  17  19
HETATM   19  C17 UNL     1      20.127  53.160  37.344  1.00  0.00     0.018 C 
HETATM   20  C18 UNL     1      20.200  54.219  36.199  1.00  0.00     0.037 C 
HETATM   21  C19 UNL     1      20.239  53.986  38.603  1.00  0.00     0.037 C 
HETATM   22  C20 UNL     1      21.380  52.339  37.166  1.00  0.00     0.037 C 
ENDBRANCH  17  19
ENDBRANCH  16  17
ENDBRANCH  13  16
ENDBRANCH  10  13
ENDBRANCH   8  10
ENDBRANCH   1   8
BRANCH   6  23
HETATM   23  C6  UNL     1      14.490  58.537  39.639  1.00  0.00     0.060 C 
BRANCH  23  24
HETATM   24  C7  UNL     1      13.731  59.509  38.875  1.00  0.00    -0.028 C 
HETATM   25  C8  UNL     1      12.434  59.612  38.852  1.00  0.00    -0.026 C 
BRANCH  25  26
HETATM   26  C9  UNL     1      11.669  60.624  38.056  1.00  0.00     0.008 C 
HETATM   27  C10 UNL     1      10.443  60.025  37.395  1.00  0.00     0.008 C 
HETATM   28  C11 UNL     1       9.449  61.176  37.305  1.00  0.00     0.001 C 
HETATM   29  C12 UNL     1       9.897  62.222  38.286  1.00  0.00     0.001 C 
HETATM   30  C13 UNL     1      10.988  61.537  39.080  1.00  0.00     0.008 C 
ENDBRANCH  25  26
ENDBRANCH  23  24
ENDBRANCH   6  23
TORSDOF 11
ENDMDL
MODEL 4
REMARK VINA RESULT: -8.189404510      1.916      2.409
REMARK  11 active torsions:
REMARK  status: ('A' for Active; 'I' for Inactive)
REMARK    1  A    between atoms: C2_2  and  C3_3 
REMARK    2  A    between atoms: C2_2  and  C14_18 
REMARK    3  A    between atoms: C5_8  and  C6_9 
REMARK    4  A    between atoms: C6_9  and  C7_10 
REMARK    5  A    between atoms: C8_11  and  C9_12 
REMARK    6  A    between atoms: C14_18  and  O2_19 
REMARK    7  A    between atoms: C14_18  and  C15_21 
REMARK    8  A    between atoms: C15_21  and  O3_22 
REMARK    9  A    between atoms: C15_21  and  C16_24 
REMARK   10  A    between atoms: C16_24  and  N2_25 
REMARK   11  A    between atoms: N2_25  and  C17_27 
ROOT
HETATM    1  C3  UNL     1      16.080  55.735  37.740  1.00  0.00     0.327 C 
HETATM    2  N1  UNL     1      15.943  55.129  39.016  1.00  0.00    -0.046 N 
ATOM      3  H11 UNL     1      16.820  55.002  39.521  1.00  0.00     0.280 HD
ATOM      4  H12 UNL     1      15.691  54.140  38.991  1.00  0.00     0.280 HD
HETATM    5  C4  UNL     1      14.974  55.982  39.692  1.00  0.00     0.267 C 
HETATM    6  C5  UNL     1      14.268  56.642  38.550  1.00  0.00     0.153 C 
HETATM    7  O1  UNL     1      14.781  56.075  37.386  1.00  0.00    -0.351 OA
ENDROOT
BRANCH   1   8
HETATM    8  C2  UNL     1      16.722  54.868  36.681  1.00  0.00     0.070 C 
HETATM    9  C1  UNL     1      15.736  53.757  36.395  1.00  0.00     0.017 C 
BRANCH   8  10
HETATM   10  C14 UNL     1      17.195  55.591  35.470  1.00  0.00     0.160 C 
BRANCH  10  11
HETATM   11  O2  UNL     1      16.472  56.791  35.383  1.00  0.00    -0.392 OA
ATOM     12  H2  UNL     1      16.492  57.074  34.477  1.00  0.00     0.210 HD
ENDBRANCH  10  11
BRANCH  10  13
HETATM   13  C15 UNL     1      18.683  55.878  35.565  1.00  0.00     0.185 C 
BRANCH  13  14
HETATM   14  O3  UNL     1      18.938  57.084  36.174  1.00  0.00    -0.388 OA
ATOM     15  H3  UNL     1      19.836  57.367  36.042  1.00  0.00     0.210 HD
ENDBRANCH  13  14
BRANCH  13  16
HETATM   16  C16 UNL     1      19.453  54.760  36.159  1.00  0.00     0.090 C 
BRANCH  16  17
HETATM   17  N2  UNL     1      20.403  55.010  37.148  1.00  0.00    -0.392 N 
ATOM     18  H2  UNL     1      21.091  55.741  36.972  1.00  0.00     0.159 HD
BRANCH  17  19
HETATM   19  C17 UNL     1      20.475  54.327  38.364  1.00  0.00     0.018 C 
HETATM   20  C18 UNL     1      21.550  53.214  38.155  1.00  0.00     0.037 C 
HETATM   21  C19 UNL     1      20.987  55.099  39.556  1.00  0.00     0.037 C 
HETATM   22  C20 UNL     1      19.230  53.568  38.750  1.00  0.00     0.037 C 
ENDBRANCH  17  19
ENDBRANCH  16  17
ENDBRANCH  13  16
ENDBRANCH  10  13
ENDBRANCH   8  10
ENDBRANCH   1   8
BRANCH   6  23
HETATM   23  C6  UNL     1      14.369  58.127  38.495  1.00  0.00     0.060 C 
BRANCH  23  24
HETATM   24  C7  UNL     1      13.176  58.907  38.772  1.00  0.00    -0.028 C 
HETATM   25  C8  UNL     1      12.188  59.100  37.950  1.00  0.00    -0.026 C 
BRANCH  25  26
HETATM   26  C9  UNL     1      10.964  59.907  38.255  1.00  0.00     0.008 C 
HETATM   27  C10 UNL     1      11.302  61.242  38.891  1.00  0.00     0.008 C 
HETATM   28  C11 UNL     1      10.176  62.174  38.458  1.00  0.00     0.001 C 
HETATM   29  C12 UNL     1       9.515  61.542  37.267  1.00  0.00     0.001 C 
HETATM   30  C13 UNL     1      10.433  60.394  36.904  1.00  0.00     0.008 C 
ENDBRANCH  25  26
ENDBRANCH  23  24
ENDBRANCH   6  23
TORSDOF 11
ENDMDL
MODEL 5
REMARK VINA RESULT: -8.124486768      2.029      2.589
REMARK  11 active torsions:
REMARK  status: ('A' for Active; 'I' for Inactive)
REMARK    1  A    between atoms: C2_2  and  C3_3 
REMARK    2  A    between atoms: C2_2  and  C14_18 
REMARK    3  A    between atoms: C5_8  and  C6_9 
REMARK    4  A    between atoms: C6_9  and  C7_10 
REMARK    5  A    between atoms: C8_11  and  C9_12 
REMARK    6  A    between atoms: C14_18  and  O2_19 
REMARK    7  A    between atoms: C14_18  and  C15_21 
REMARK    8  A    between atoms: C15_21  and  O3_22 
REMARK    9  A    between atoms: C15_21  and  C16_24 
REMARK   10  A    between atoms: C16_24  and  N2_25 
REMARK   11  A    between atoms: N2_25  and  C17_27 
ROOT
HETATM    1  C3  UNL     1      15.884  55.667  38.131  1.00  0.00     0.327 C 
HETATM    2  N1  UNL     1      15.404  54.781  39.130  1.00  0.00    -0.046 N 
ATOM      3  H11 UNL     1      16.134  54.312  39.667  1.00  0.00     0.280 HD
ATOM      4  H12 UNL     1      14.975  53.928  38.770  1.00  0.00     0.280 HD
HETATM    5  C4  UNL     1      14.513  55.618  39.923  1.00  0.00     0.267 C 
HETATM    6  C5  UNL     1      14.166  56.718  38.971  1.00  0.00     0.153 C 
HETATM    7  O1  UNL     1      14.761  56.392  37.755  1.00  0.00    -0.351 OA
ENDROOT
BRANCH   1   8
HETATM    8  C2  UNL     1      16.527  55.003  36.935  1.00  0.00     0.070 C 
HETATM    9  C1  UNL     1      15.527  53.984  36.434  1.00  0.00     0.017 C 
BRANCH   8  10
HETATM   10  C14 UNL     1      17.028  55.931  35.887  1.00  0.00     0.160 C 
BRANCH  10  11
HETATM   11  O2  UNL     1      16.791  57.241  36.331  1.00  0.00    -0.392 OA
ATOM     12  H2  UNL     1      17.036  57.283  37.247  1.00  0.00     0.210 HD
ENDBRANCH  10  11
BRANCH  10  13
HETATM   13  C15 UNL     1      18.513  55.718  35.648  1.00  0.00     0.185 C 
BRANCH  13  14
HETATM   14  O3  UNL     1      19.220  56.895  35.707  1.00  0.00    -0.388 OA
ATOM     15  H3  UNL     1      18.659  57.654  35.597  1.00  0.00     0.210 HD
ENDBRANCH  13  14
BRANCH  13  16
HETATM   16  C16 UNL     1      19.092  54.657  36.505  1.00  0.00     0.090 C 
BRANCH  16  17
HETATM   17  N2  UNL     1      20.229  54.914  37.268  1.00  0.00    -0.392 N 
ATOM     18  H2  UNL     1      20.856  55.654  36.953  1.00  0.00     0.159 HD
BRANCH  17  19
HETATM   19  C17 UNL     1      20.569  54.227  38.436  1.00  0.00     0.018 C 
HETATM   20  C18 UNL     1      19.268  53.482  38.876  1.00  0.00     0.037 C 
HETATM   21  C19 UNL     1      21.589  53.121  38.311  1.00  0.00     0.037 C 
HETATM   22  C20 UNL     1      20.910  55.099  39.618  1.00  0.00     0.037 C 
ENDBRANCH  17  19
ENDBRANCH  16  17
ENDBRANCH  13  16
ENDBRANCH  10  13
ENDBRANCH   8  10
ENDBRANCH   1   8
BRANCH   6  23
HETATM   23  C6  UNL     1      14.561  58.091  39.394  1.00  0.00     0.060 C 
BRANCH  23  24
HETATM   24  C7  UNL     1      13.775  59.211  38.907  1.00  0.00    -0.028 C 
HETATM   25  C8  UNL     1      12.697  59.124  38.185  1.00  0.00    -0.026 C 
BRANCH  25  26
HETATM   26  C9  UNL     1      11.899  60.292  37.694  1.00  0.00     0.008 C 
HETATM   27  C10 UNL     1      10.548  59.874  37.147  1.00  0.00     0.008 C 
HETATM   28  C11 UNL     1       9.639  61.071  37.402  1.00  0.00     0.001 C 
HETATM   29  C12 UNL     1      10.303  61.912  38.454  1.00  0.00     0.001 C 
HETATM   30  C13 UNL     1      11.446  61.050  38.945  1.00  0.00     0.008 C 
ENDBRANCH  25  26
ENDBRANCH  23  24
ENDBRANCH   6  23
TORSDOF 11
ENDMDL
