MODEL 1
REMARK VINA RESULT: -8.473566458      0.000      0.000
REMARK  13 active torsions:
REMARK  status: ('A' for Active; 'I' for Inactive)
REMARK    1  A    between atoms: C2_2  and  C3_3 
REMARK    2  A    between atoms: C3_3  and  C4_4 
REMARK    3  A    between atoms: C6_6  and  C7_7 
REMARK    4  A    between atoms: C7_7  and  C8_8 
REMARK    5  A    between atoms: C8_8  and  C9_9 
REMARK    6  A    between atoms: C11_11  and  O1_12 
REMARK    7  A    between atoms: C12_14  and  O2_15 
REMARK    8  A    between atoms: C12_14  and  C13_17 
REMARK    9  A    between atoms: C13_17  and  C14_18 
REMARK   10  A    between atoms: C14_18  and  C15_19 
REMARK   11  A    between atoms: C15_19  and  O3_22 
REMARK   12  A    between atoms: C18_24  and  C19_25 
REMARK   13  A    between atoms: C19_25  and  O4_26 
ROOT
HETATM    1  C9  UNL     1      18.075  54.239  37.434  1.00  0.00     0.015 C 
HETATM    2  C10 UNL     1      18.028  55.520  36.702  1.00  0.00     0.020 C 
HETATM    3  C11 UNL     1      19.237  54.296  38.437  1.00  0.00     0.166 C 
HETATM    4  C12 UNL     1      20.414  53.699  37.734  1.00  0.00     0.120 C 
HETATM    5  C18 UNL     1      19.786  52.544  37.002  1.00  0.00     0.142 A 
HETATM    6  O5  UNL     1      18.651  51.915  37.438  1.00  0.00    -0.363 OA
HETATM    7  C20 UNL     1      18.519  53.072  36.552  1.00  0.00     0.173 A 
ENDROOT
BRANCH   1   8
HETATM    8  C8  UNL     1      16.855  53.819  38.150  1.00  0.00     0.018 C 
BRANCH   8   9
HETATM    9  C7  UNL     1      15.591  54.548  37.981  1.00  0.00     0.028 C 
BRANCH   9  10
HETATM   10  C6  UNL     1      15.230  55.404  39.113  1.00  0.00    -0.024 C 
HETATM   11  C4  UNL     1      14.882  56.700  38.946  1.00  0.00    -0.084 C 
HETATM   12  C5  UNL     1      14.855  57.309  37.602  1.00  0.00     0.043 C 
BRANCH  11  13
HETATM   13  C3  UNL     1      14.534  57.474  40.163  1.00  0.00     0.059 C 
BRANCH  13  14
HETATM   14  C2  UNL     1      14.497  56.565  41.357  1.00  0.00    -0.033 C 
HETATM   15  C1  UNL     1      13.396  56.537  42.079  1.00  0.00     0.007 C 
ENDBRANCH  13  14
ENDBRANCH  11  13
ENDBRANCH   9  10
ENDBRANCH   8   9
ENDBRANCH   1   8
BRANCH   3  16
HETATM   16  O1  UNL     1      18.856  53.473  39.480  1.00  0.00    -0.392 OA
ATOM     17  H1  UNL     1      19.648  53.326  39.983  1.00  0.00     0.210 HD
ENDBRANCH   3  16
BRANCH   4  18
HETATM   18  O2  UNL     1      20.822  54.590  36.689  1.00  0.00    -0.384 OA
ATOM     19  H2  UNL     1      21.417  55.234  37.054  1.00  0.00     0.210 HD
ENDBRANCH   4  18
BRANCH   4  20
HETATM   20  C13 UNL     1      21.586  53.397  38.551  1.00  0.00     0.047 C 
BRANCH  20  21
HETATM   21  C14 UNL     1      21.979  54.282  39.663  1.00  0.00     0.040 C 
BRANCH  21  22
HETATM   22  C15 UNL     1      23.453  54.686  39.583  1.00  0.00     0.051 C 
HETATM   23  C16 UNL     1      23.804  55.741  40.576  1.00  0.00     0.045 C 
HETATM   24  C17 UNL     1      24.302  53.463  39.882  1.00  0.00     0.045 C 
BRANCH  22  25
HETATM   25  O3  UNL     1      23.780  55.158  38.312  1.00  0.00    -0.391 OA
ATOM     26  H3  UNL     1      23.473  56.049  38.186  1.00  0.00     0.210 HD
ENDBRANCH  22  25
ENDBRANCH  21  22
ENDBRANCH  20  21
ENDBRANCH   4  20
BRANCH   5  27
HETATM   27  C19 UNL     1      20.603  51.773  35.999  1.00  0.00     0.208 C 
BRANCH  27  28
HETATM   28  O4  UNL     1      21.028  52.518  34.927  1.00  0.00    -0.398 OA
ATOM     29  H4  UNL     1      20.634  52.270  34.100  1.00  0.00     0.209 HD
ENDBRANCH  27  28
ENDBRANCH   5  27
TORSDOF 13
ENDMDL
MODEL 2
REMARK VINA RESULT: -8.383359718      2.205      4.611
REMARK  13 active torsions:
REMARK  status: ('A' for Active; 'I' for Inactive)
REMARK    1  A    between atoms: C2_2  and  C3_3 
REMARK    2  A    between atoms: C3_3  and  C4_4 
REMARK    3  A    between atoms: C6_6  and  C7_7 
REMARK    4  A    between atoms: C7_7  and  C8_8 
REMARK    5  A    between atoms: C8_8  and  C9_9 
REMARK    6  A    between atoms: C11_11  and  O1_12 
REMARK    7  A    between atoms: C12_14  and  O2_15 
REMARK    8  A    between atoms: C12_14  and  C13_17 
REMARK    9  A    between atoms: C13_17  and  C14_18 
REMARK   10  A    between atoms: C14_18  and  C15_19 
REMARK   11  A    between atoms: C15_19  and  O3_22 
REMARK   12  A    between atoms: C18_24  and  C19_25 
REMARK   13  A    between atoms: C19_25  and  O4_26 
ROOT
HETATM    1  C9  UNL     1      16.576  53.874  37.607  1.00  0.00     0.015 C 
HETATM    2  C10 UNL     1      15.755  53.069  38.532  1.00  0.00     0.020 C 
HETATM    3  C11 UNL     1      17.097  52.952  36.494  1.00  0.00     0.166 C 
HETATM    4  C12 UNL     1      18.442  52.481  36.949  1.00  0.00     0.120 C 
HETATM    5  C18 UNL     1      19.019  53.729  37.558  1.00  0.00     0.142 A 
HETATM    6  O5  UNL     1      18.649  54.988  37.167  1.00  0.00    -0.363 OA
HETATM    7  C20 UNL     1      17.892  54.332  38.234  1.00  0.00     0.173 A 
ENDROOT
BRANCH   1   8
HETATM    8  C8  UNL     1      15.944  55.053  36.984  1.00  0.00     0.018 C 
BRANCH   8   9
HETATM    9  C7  UNL     1      14.619  55.516  37.417  1.00  0.00     0.028 C 
BRANCH   9  10
HETATM   10  C6  UNL     1      14.573  56.920  37.831  1.00  0.00    -0.024 C 
HETATM   11  C4  UNL     1      14.641  57.285  39.131  1.00  0.00    -0.084 C 
HETATM   12  C5  UNL     1      14.764  56.269  40.195  1.00  0.00     0.043 C 
BRANCH  11  13
HETATM   13  C3  UNL     1      14.586  58.735  39.436  1.00  0.00     0.059 C 
BRANCH  13  14
HETATM   14  C2  UNL     1      13.392  59.355  38.769  1.00  0.00    -0.033 C 
HETATM   15  C1  UNL     1      13.328  60.669  38.714  1.00  0.00     0.007 C 
ENDBRANCH  13  14
ENDBRANCH  11  13
ENDBRANCH   9  10
ENDBRANCH   8   9
ENDBRANCH   1   8
BRANCH   3  16
HETATM   16  O1  UNL     1      17.244  53.766  35.387  1.00  0.00    -0.392 OA
ATOM     17  H1  UNL     1      18.117  53.587  35.060  1.00  0.00     0.210 HD
ENDBRANCH   3  16
BRANCH   4  18
HETATM   18  O2  UNL     1      18.264  51.601  38.066  1.00  0.00    -0.384 OA
ATOM     19  H2  UNL     1      18.305  50.704  37.755  1.00  0.00     0.210 HD
ENDBRANCH   4  18
BRANCH   4  20
HETATM   20  C13 UNL     1      19.268  51.792  35.961  1.00  0.00     0.047 C 
BRANCH  20  21
HETATM   21  C14 UNL     1      18.711  50.700  35.140  1.00  0.00     0.040 C 
BRANCH  21  22
HETATM   22  C15 UNL     1      19.749  49.612  34.852  1.00  0.00     0.051 C 
HETATM   23  C16 UNL     1      19.197  48.519  34.002  1.00  0.00     0.045 C 
HETATM   24  C17 UNL     1      20.909  50.244  34.104  1.00  0.00     0.045 C 
BRANCH  22  25
HETATM   25  O3  UNL     1      20.230  49.047  36.032  1.00  0.00    -0.391 OA
ATOM     26  H3  UNL     1      21.180  49.043  36.050  1.00  0.00     0.210 HD
ENDBRANCH  22  25
ENDBRANCH  21  22
ENDBRANCH  20  21
ENDBRANCH   4  20
BRANCH   5  27
HETATM   27  C19 UNL     1      20.314  53.648  38.323  1.00  0.00     0.208 C 
BRANCH  27  28
HETATM   28  O4  UNL     1      20.163  53.351  39.655  1.00  0.00    -0.398 OA
ATOM     29  H4  UNL     1      20.704  52.630  39.956  1.00  0.00     0.209 HD
ENDBRANCH  27  28
ENDBRANCH   5  27
TORSDOF 13
ENDMDL
MODEL 3
REMARK VINA RESULT: -8.375406951      1.256      1.599
REMARK  13 active torsions:
REMARK  status: ('A' for Active; 'I' for Inactive)
REMARK    1  A    between atoms: C2_2  and  C3_3 
REMARK    2  A    between atoms: C3_3  and  C4_4 
REMARK    3  A    between atoms: C6_6  and  C7_7 
REMARK    4  A    between atoms: C7_7  and  C8_8 
REMARK    5  A    between atoms: C8_8  and  C9_9 
REMARK    6  A    between atoms: C11_11  and  O1_12 
REMARK    7  A    between atoms: C12_14  and  O2_15 
REMARK    8  A    between atoms: C12_14  and  C13_17 
REMARK    9  A    between atoms: C13_17  and  C14_18 
REMARK   10  A    between atoms: C14_18  and  C15_19 
REMARK   11  A    between atoms: C15_19  and  O3_22 
REMARK   12  A    between atoms: C18_24  and  C19_25 
REMARK   13  A    between atoms: C19_25  and  O4_26 
ROOT
HETATM    1  C9  UNL     1      18.216  54.133  37.389  1.00  0.00     0.015 C 
HETATM    2  C10 UNL     1      18.199  55.309  36.497  1.00  0.00     0.020 C 
HETATM    3  C11 UNL     1      19.633  53.976  37.960  1.00  0.00     0.166 C 
HETATM    4  C12 UNL     1      20.342  53.032  37.042  1.00  0.00     0.120 C 
HETATM    5  C18 UNL     1      19.269  52.018  36.751  1.00  0.00     0.142 A 
HETATM    6  O5  UNL     1      18.244  51.749  37.617  1.00  0.00    -0.363 OA
HETATM    7  C20 UNL     1      18.070  52.815  36.629  1.00  0.00     0.173 A 
ENDROOT
BRANCH   1   8
HETATM    8  C8  UNL     1      17.253  54.112  38.507  1.00  0.00     0.018 C 
BRANCH   8   9
HETATM    9  C7  UNL     1      15.846  54.478  38.299  1.00  0.00     0.028 C 
BRANCH   9  10
HETATM   10  C6  UNL     1      15.298  55.383  39.311  1.00  0.00    -0.024 C 
HETATM   11  C4  UNL     1      14.995  56.670  39.030  1.00  0.00    -0.084 C 
HETATM   12  C5  UNL     1      15.210  57.219  37.676  1.00  0.00     0.043 C 
BRANCH  11  13
HETATM   13  C3  UNL     1      14.445  57.497  40.131  1.00  0.00     0.059 C 
BRANCH  13  14
HETATM   14  C2  UNL     1      14.520  56.742  41.427  1.00  0.00    -0.033 C 
HETATM   15  C1  UNL     1      13.413  56.604  42.126  1.00  0.00     0.007 C 
ENDBRANCH  13  14
ENDBRANCH  11  13
ENDBRANCH   9  10
ENDBRANCH   8   9
ENDBRANCH   1   8
BRANCH   3  16
HETATM   16  O1  UNL     1      19.464  53.380  39.194  1.00  0.00    -0.392 OA
ATOM     17  H1  UNL     1      20.106  52.682  39.224  1.00  0.00     0.210 HD
ENDBRANCH   3  16
BRANCH   4  18
HETATM   18  O2  UNL     1      20.550  53.687  35.785  1.00  0.00    -0.384 OA
ATOM     19  H2  UNL     1      21.307  53.297  35.362  1.00  0.00     0.210 HD
ENDBRANCH   4  18
BRANCH   4  20
HETATM   20  C13 UNL     1      21.629  52.512  37.497  1.00  0.00     0.047 C 
BRANCH  20  21
HETATM   21  C14 UNL     1      22.545  53.353  38.289  1.00  0.00     0.040 C 
BRANCH  21  22
HETATM   22  C15 UNL     1      23.079  52.618  39.521  1.00  0.00     0.051 C 
HETATM   23  C16 UNL     1      23.413  51.195  39.228  1.00  0.00     0.045 C 
HETATM   24  C17 UNL     1      24.350  53.310  39.979  1.00  0.00     0.045 C 
BRANCH  22  25
HETATM   25  O3  UNL     1      22.155  52.642  40.565  1.00  0.00    -0.391 OA
ATOM     26  H3  UNL     1      21.469  51.998  40.433  1.00  0.00     0.210 HD
ENDBRANCH  22  25
ENDBRANCH  21  22
ENDBRANCH  20  21
ENDBRANCH   4  20
BRANCH   5  27
HETATM   27  C19 UNL     1      19.509  50.972  35.693  1.00  0.00     0.208 C 
BRANCH  27  28
HETATM   28  O4  UNL     1      19.958  49.771  36.182  1.00  0.00    -0.398 OA
ATOM     29  H4  UNL     1      20.632  49.850  36.847  1.00  0.00     0.209 HD
ENDBRANCH  27  28
ENDBRANCH   5  27
TORSDOF 13
ENDMDL
MODEL 4
REMARK VINA RESULT: -8.368852773      2.027      3.580
REMARK  13 active torsions:
REMARK  status: ('A' for Active; 'I' for Inactive)
REMARK    1  A    between atoms: C2_2  and  C3_3 
REMARK    2  A    between atoms: C3_3  and  C4_4 
REMARK    3  A    between atoms: C6_6  and  C7_7 
REMARK    4  A    between atoms: C7_7  and  C8_8 
REMARK    5  A    between atoms: C8_8  and  C9_9 
REMARK    6  A    between atoms: C11_11  and  O1_12 
REMARK    7  A    between atoms: C12_14  and  O2_15 
REMARK    8  A    between atoms: C12_14  and  C13_17 
REMARK    9  A    between atoms: C13_17  and  C14_18 
REMARK   10  A    between atoms: C14_18  and  C15_19 
REMARK   11  A    between atoms: C15_19  and  O3_22 
REMARK   12  A    between atoms: C18_24  and  C19_25 
REMARK   13  A    between atoms: C19_25  and  O4_26 
ROOT
HETATM    1  C9  UNL     1      16.246  53.537  37.769  1.00  0.00     0.015 C 
HETATM    2  C10 UNL     1      15.616  52.701  38.810  1.00  0.00     0.020 C 
HETATM    3  C11 UNL     1      16.726  52.620  36.635  1.00  0.00     0.166 C 
HETATM    4  C12 UNL     1      18.153  52.297  36.946  1.00  0.00     0.120 C 
HETATM    5  C18 UNL     1      18.670  53.620  37.443  1.00  0.00     0.142 A 
HETATM    6  O5  UNL     1      18.137  54.820  37.055  1.00  0.00    -0.363 OA
HETATM    7  C20 UNL     1      17.573  54.144  38.224  1.00  0.00     0.173 A 
ENDROOT
BRANCH   1   8
HETATM    8  C8  UNL     1      15.435  54.624  37.185  1.00  0.00     0.018 C 
BRANCH   8   9
HETATM    9  C7  UNL     1      15.299  55.916  37.869  1.00  0.00     0.028 C 
BRANCH   9  10
HETATM   10  C6  UNL     1      14.833  55.823  39.254  1.00  0.00    -0.024 C 
HETATM   11  C4  UNL     1      14.539  56.922  39.985  1.00  0.00    -0.084 C 
HETATM   12  C5  UNL     1      14.682  58.274  39.409  1.00  0.00     0.043 C 
BRANCH  11  13
HETATM   13  C3  UNL     1      14.074  56.710  41.377  1.00  0.00     0.059 C 
BRANCH  13  14
HETATM   14  C2  UNL     1      13.283  55.437  41.466  1.00  0.00    -0.033 C 
HETATM   15  C1  UNL     1      12.496  55.270  42.509  1.00  0.00     0.007 C 
ENDBRANCH  13  14
ENDBRANCH  11  13
ENDBRANCH   9  10
ENDBRANCH   8   9
ENDBRANCH   1   8
BRANCH   3  16
HETATM   16  O1  UNL     1      16.668  53.394  35.492  1.00  0.00    -0.392 OA
ATOM     17  H1  UNL     1      17.549  53.386  35.139  1.00  0.00     0.210 HD
ENDBRANCH   3  16
BRANCH   4  18
HETATM   18  O2  UNL     1      18.188  51.455  38.105  1.00  0.00    -0.384 OA
ATOM     19  H2  UNL     1      19.063  51.095  38.192  1.00  0.00     0.210 HD
ENDBRANCH   4  18
BRANCH   4  20
HETATM   20  C13 UNL     1      18.927  51.646  35.893  1.00  0.00     0.047 C 
BRANCH  20  21
HETATM   21  C14 UNL     1      20.071  50.776  36.225  1.00  0.00     0.040 C 
BRANCH  21  22
HETATM   22  C15 UNL     1      21.366  51.254  35.562  1.00  0.00     0.051 C 
HETATM   23  C16 UNL     1      22.506  51.302  36.522  1.00  0.00     0.045 C 
HETATM   24  C17 UNL     1      21.727  50.278  34.457  1.00  0.00     0.045 C 
BRANCH  22  25
HETATM   25  O3  UNL     1      21.212  52.523  35.006  1.00  0.00    -0.391 OA
ATOM     26  H3  UNL     1      20.650  53.069  35.544  1.00  0.00     0.210 HD
ENDBRANCH  22  25
ENDBRANCH  21  22
ENDBRANCH  20  21
ENDBRANCH   4  20
BRANCH   5  27
HETATM   27  C19 UNL     1      20.045  53.694  38.055  1.00  0.00     0.208 C 
BRANCH  27  28
HETATM   28  O4  UNL     1      20.945  54.429  37.325  1.00  0.00    -0.398 OA
ATOM     29  H4  UNL     1      21.035  55.330  37.611  1.00  0.00     0.209 HD
ENDBRANCH  27  28
ENDBRANCH   5  27
TORSDOF 13
ENDMDL
MODEL 5
REMARK VINA RESULT: -8.348076230      2.245      4.519
REMARK  13 active torsions:
REMARK  status: ('A' for Active; 'I' for Inactive)
REMARK    1  A    between atoms: C2_2  and  C3_3 
REMARK    2  A    between atoms: C3_3  and  C4_4 
REMARK    3  A    between atoms: C6_6  and  C7_7 
REMARK    4  A    between atoms: C7_7  and  C8_8 
REMARK    5  A    between atoms: C8_8  and  C9_9 
REMARK    6  A    between atoms: C11_11  and  O1_12 
REMARK    7  A    between atoms: C12_14  and  O2_15 
REMARK    8  A    between atoms: C12_14  and  C13_17 
REMARK    9  A    between atoms: C13_17  and  C14_18 
REMARK   10  A    between atoms: C14_18  and  C15_19 
REMARK   11  A    between atoms: C15_19  and  O3_22 
REMARK   12  A    between atoms: C18_24  and  C19_25 
REMARK   13  A    between atoms: C19_25  and  O4_26 
ROOT
HETATM    1  C9  UNL     1      16.326  53.431  37.629  1.00  0.00     0.015 C 
HETATM    2  C10 UNL     1      15.666  52.578  38.636  1.00  0.00     0.020 C 
HETATM    3  C11 UNL     1      16.827  52.535  36.487  1.00  0.00     0.166 C 
HETATM    4  C12 UNL     1      18.243  52.194  36.825  1.00  0.00     0.120 C 
HETATM    5  C18 UNL     1      18.758  53.502  37.361  1.00  0.00     0.142 A 
HETATM    6  O5  UNL     1      18.243  54.714  36.987  1.00  0.00    -0.363 OA
HETATM    7  C20 UNL     1      17.646  54.019  38.128  1.00  0.00     0.173 A 
ENDROOT
BRANCH   1   8
HETATM    8  C8  UNL     1      15.537  54.536  37.049  1.00  0.00     0.018 C 
BRANCH   8   9
HETATM    9  C7  UNL     1      15.419  55.825  37.744  1.00  0.00     0.028 C 
BRANCH   9  10
HETATM   10  C6  UNL     1      14.962  55.726  39.131  1.00  0.00    -0.024 C 
HETATM   11  C4  UNL     1      14.621  56.818  39.851  1.00  0.00    -0.084 C 
HETATM   12  C5  UNL     1      14.701  58.169  39.259  1.00  0.00     0.043 C 
BRANCH  11  13
HETATM   13  C3  UNL     1      14.171  56.601  41.248  1.00  0.00     0.059 C 
BRANCH  13  14
HETATM   14  C2  UNL     1      13.317  55.369  41.326  1.00  0.00    -0.033 C 
HETATM   15  C1  UNL     1      12.513  55.239  42.361  1.00  0.00     0.007 C 
ENDBRANCH  13  14
ENDBRANCH  11  13
ENDBRANCH   9  10
ENDBRANCH   8   9
ENDBRANCH   1   8
BRANCH   3  16
HETATM   16  O1  UNL     1      16.801  53.334  35.360  1.00  0.00    -0.392 OA
ATOM     17  H1  UNL     1      17.650  53.216  34.951  1.00  0.00     0.210 HD
ENDBRANCH   3  16
BRANCH   4  18
HETATM   18  O2  UNL     1      18.245  51.328  37.966  1.00  0.00    -0.384 OA
ATOM     19  H2  UNL     1      19.135  51.260  38.294  1.00  0.00     0.210 HD
ENDBRANCH   4  18
BRANCH   4  20
HETATM   20  C13 UNL     1      19.037  51.560  35.776  1.00  0.00     0.047 C 
BRANCH  20  21
HETATM   21  C14 UNL     1      18.487  50.444  34.984  1.00  0.00     0.040 C 
BRANCH  21  22
HETATM   22  C15 UNL     1      19.588  49.608  34.327  1.00  0.00     0.051 C 
HETATM   23  C16 UNL     1      20.706  49.310  35.268  1.00  0.00     0.045 C 
HETATM   24  C17 UNL     1      18.986  48.286  33.885  1.00  0.00     0.045 C 
BRANCH  22  25
HETATM   25  O3  UNL     1      20.118  50.255  33.212  1.00  0.00    -0.391 OA
ATOM     26  H3  UNL     1      21.062  50.155  33.172  1.00  0.00     0.210 HD
ENDBRANCH  22  25
ENDBRANCH  21  22
ENDBRANCH  20  21
ENDBRANCH   4  20
BRANCH   5  27
HETATM   27  C19 UNL     1      20.118  53.553  38.007  1.00  0.00     0.208 C 
BRANCH  27  28
HETATM   28  O4  UNL     1      20.127  53.188  39.330  1.00  0.00    -0.398 OA
ATOM     29  H4  UNL     1      20.936  53.389  39.784  1.00  0.00     0.209 HD
ENDBRANCH  27  28
ENDBRANCH   5  27
TORSDOF 13
ENDMDL
