MODEL 1
REMARK VINA RESULT: -8.672909531      0.000      0.000
REMARK  9 active torsions:
REMARK  status: ('A' for Active; 'I' for Inactive)
REMARK    1  A    between atoms: C2_3  and  C4_6 
REMARK       I    between atoms: C4_6  and  N3_8 
REMARK    2  A    between atoms: N3_8  and  N4_10 
REMARK    3  A    between atoms: N4_10  and  C5_12 
REMARK    4  A    between atoms: C6_15  and  N6_16 
REMARK    5  A    between atoms: N6_16  and  N7_18 
REMARK    6  A    between atoms: C7_23  and  N9_24 
REMARK    7  A    between atoms: N9_24  and  N10_26 
REMARK    8  A    between atoms: C8_28  and  C9_29 
REMARK    9  A    between atoms: C12_36  and  O2_37 
ROOT
HETATM    1  N1  UNL     1      28.669 -17.715  12.583  1.00  0.00    -0.195 NA
HETATM    2  C1  UNL     1      28.999 -17.897  13.656  1.00  0.00     0.088 C 
HETATM    3  C2  UNL     1      29.406 -18.135  15.057  1.00  0.00     0.292 C 
HETATM    4  C3  UNL     1      30.324 -19.252  15.047  1.00  0.00     0.088 C 
HETATM    5  N2  UNL     1      31.050 -20.161  15.046  1.00  0.00    -0.195 NA
ENDROOT
BRANCH   3   6
HETATM    6  C4  UNL     1      28.191 -18.439  15.852  1.00  0.00     0.268 C 
HETATM    7  O1  UNL     1      28.237 -18.810  17.053  1.00  0.00    -0.269 OA
HETATM    8  N3  UNL     1      26.912 -18.306  15.223  1.00  0.00    -0.254 N 
ATOM      9  H3  UNL     1      26.859 -18.007  14.249  1.00  0.00     0.190 HD
BRANCH   8  10
HETATM   10  N4  UNL     1      25.739 -18.579  15.921  1.00  0.00    -0.128 N 
ATOM     11  H4  UNL     1      25.759 -19.272  16.669  1.00  0.00     0.205 HD
BRANCH  10  12
HETATM   12  C5  UNL     1      24.620 -17.977  15.646  1.00  0.00     0.726 A 
HETATM   13  N5  UNL     1      23.542 -18.075  16.433  1.00  0.00    -0.018 N 
HETATM   14  C6  UNL     1      22.387 -17.454  16.151  1.00  0.00     0.725 A 
ATOM     15  H5  UNL     1      23.601 -18.642  17.279  1.00  0.00     0.203 HD
HETATM   16  N8  UNL     1      22.331 -16.702  15.018  1.00  0.00    -0.018 N 
HETATM   17  C7  UNL     1      23.407 -16.589  14.208  1.00  0.00     0.726 A 
ATOM     18  H8  UNL     1      21.466 -16.219  14.777  1.00  0.00     0.203 HD
HETATM   19  N13 UNL     1      24.548 -17.230  14.531  1.00  0.00    -0.018 N 
ATOM     20  H13 UNL     1      25.364 -17.148  13.924  1.00  0.00     0.203 HD
BRANCH  14  21
HETATM   21  N6  UNL     1      21.365 -17.564  16.922  1.00  0.00    -0.138 N 
ATOM     22  H6  UNL     1      20.418 -17.497  16.549  1.00  0.00     0.205 HD
BRANCH  21  23
HETATM   23  N7  UNL     1      21.581 -17.778  18.280  1.00  0.00    -0.331 N 
ATOM     24  H72 UNL     1      22.015 -18.646  18.595  1.00  0.00     0.177 HD
ATOM     25  H71 UNL     1      21.297 -17.051  18.937  1.00  0.00     0.177 HD
ENDBRANCH  21  23
ENDBRANCH  14  21
BRANCH  17  26
HETATM   26  N9  UNL     1      23.389 -15.895  13.142  1.00  0.00    -0.131 N 
ATOM     27  H9  UNL     1      22.817 -15.051  13.098  1.00  0.00     0.205 HD
BRANCH  26  28
HETATM   28  N10 UNL     1      24.143 -16.277  12.032  1.00  0.00    -0.295 N 
HETATM   29  C8  UNL     1      23.591 -16.885  11.069  1.00  0.00     0.141 C 
ATOM     30  H10 UNL     1      25.140 -16.068  11.997  1.00  0.00     0.186 HD
BRANCH  29  31
HETATM   31  C9  UNL     1      24.359 -17.300   9.890  1.00  0.00     0.098 A 
HETATM   32  N11 UNL     1      24.949 -18.510   9.835  1.00  0.00    -0.297 N 
HETATM   33  N12 UNL     1      25.638 -18.893   8.789  1.00  0.00    -0.311 N 
ATOM     34  H11 UNL     1      24.858 -19.144  10.628  1.00  0.00     0.187 HD
HETATM   35  C10 UNL     1      25.817 -18.125   7.688  1.00  0.00     0.110 A 
ATOM     36  H12 UNL     1      26.062 -19.820   8.805  1.00  0.00     0.186 HD
HETATM   37  C11 UNL     1      25.236 -16.874   7.685  1.00  0.00     0.057 A 
HETATM   38  C12 UNL     1      24.510 -16.476   8.793  1.00  0.00     0.096 A 
BRANCH  38  39
HETATM   39  O2  UNL     1      23.908 -15.230   8.836  1.00  0.00    -0.358 OA
ATOM     40  H2  UNL     1      24.465 -14.474   8.979  1.00  0.00     0.217 HD
ENDBRANCH  38  39
ENDBRANCH  29  31
ENDBRANCH  26  28
ENDBRANCH  17  26
ENDBRANCH  10  12
ENDBRANCH   8  10
ENDBRANCH   3   6
TORSDOF 9
ENDMDL
MODEL 2
REMARK VINA RESULT: -8.441911315      1.322      1.812
REMARK  9 active torsions:
REMARK  status: ('A' for Active; 'I' for Inactive)
REMARK    1  A    between atoms: C2_3  and  C4_6 
REMARK       I    between atoms: C4_6  and  N3_8 
REMARK    2  A    between atoms: N3_8  and  N4_10 
REMARK    3  A    between atoms: N4_10  and  C5_12 
REMARK    4  A    between atoms: C6_15  and  N6_16 
REMARK    5  A    between atoms: N6_16  and  N7_18 
REMARK    6  A    between atoms: C7_23  and  N9_24 
REMARK    7  A    between atoms: N9_24  and  N10_26 
REMARK    8  A    between atoms: C8_28  and  C9_29 
REMARK    9  A    between atoms: C12_36  and  O2_37 
ROOT
HETATM    1  N1  UNL     1      31.444 -20.728  14.633  1.00  0.00    -0.195 NA
HETATM    2  C1  UNL     1      30.566 -20.319  15.229  1.00  0.00     0.088 C 
HETATM    3  C2  UNL     1      29.423 -19.771  15.990  1.00  0.00     0.292 C 
HETATM    4  C3  UNL     1      28.498 -20.860  16.206  1.00  0.00     0.088 C 
HETATM    5  N2  UNL     1      27.742 -21.730  16.368  1.00  0.00    -0.195 NA
ENDROOT
BRANCH   3   6
HETATM    6  C4  UNL     1      28.805 -18.686  15.189  1.00  0.00     0.268 C 
HETATM    7  O1  UNL     1      29.426 -18.064  14.289  1.00  0.00    -0.269 OA
HETATM    8  N3  UNL     1      27.443 -18.332  15.455  1.00  0.00    -0.254 N 
ATOM      9  H3  UNL     1      26.928 -18.827  16.182  1.00  0.00     0.190 HD
BRANCH   8  10
HETATM   10  N4  UNL     1      26.814 -17.321  14.734  1.00  0.00    -0.128 N 
ATOM     11  H4  UNL     1      27.384 -16.669  14.195  1.00  0.00     0.205 HD
BRANCH  10  12
HETATM   12  C5  UNL     1      25.521 -17.185  14.728  1.00  0.00     0.726 A 
HETATM   13  N5  UNL     1      24.749 -17.634  15.725  1.00  0.00    -0.018 N 
HETATM   14  C6  UNL     1      23.414 -17.495  15.720  1.00  0.00     0.725 A 
ATOM     15  H5  UNL     1      25.191 -18.099  16.518  1.00  0.00     0.203 HD
HETATM   16  N8  UNL     1      22.846 -16.870  14.652  1.00  0.00    -0.018 N 
HETATM   17  C7  UNL     1      23.607 -16.409  13.634  1.00  0.00     0.726 A 
ATOM     18  H8  UNL     1      21.834 -16.750  14.620  1.00  0.00     0.203 HD
HETATM   19  N13 UNL     1      24.943 -16.571  13.681  1.00  0.00    -0.018 N 
ATOM     20  H13 UNL     1      25.522 -16.225  12.916  1.00  0.00     0.203 HD
BRANCH  14  21
HETATM   21  N6  UNL     1      22.694 -17.934  16.689  1.00  0.00    -0.138 N 
ATOM     22  H6  UNL     1      23.107 -18.495  17.434  1.00  0.00     0.205 HD
BRANCH  21  23
HETATM   23  N7  UNL     1      21.337 -17.627  16.697  1.00  0.00    -0.331 N 
ATOM     24  H72 UNL     1      20.647 -18.375  16.639  1.00  0.00     0.177 HD
ATOM     25  H71 UNL     1      21.062 -16.647  16.762  1.00  0.00     0.177 HD
ENDBRANCH  21  23
ENDBRANCH  14  21
BRANCH  17  26
HETATM   26  N9  UNL     1      23.107 -15.822  12.621  1.00  0.00    -0.131 N 
ATOM     27  H9  UNL     1      22.273 -15.246  12.732  1.00  0.00     0.205 HD
BRANCH  26  28
HETATM   28  N10 UNL     1      23.690 -15.959  11.362  1.00  0.00    -0.295 N 
HETATM   29  C8  UNL     1      23.895 -17.111  10.879  1.00  0.00     0.141 C 
ATOM     30  H10 UNL     1      23.953 -15.130  10.828  1.00  0.00     0.186 HD
BRANCH  29  31
HETATM   31  C9  UNL     1      24.507 -17.286   9.558  1.00  0.00     0.098 A 
HETATM   32  N11 UNL     1      25.204 -18.399   9.255  1.00  0.00    -0.297 N 
HETATM   33  N12 UNL     1      25.756 -18.568   8.080  1.00  0.00    -0.311 N 
ATOM     34  H11 UNL     1      25.304 -19.130   9.960  1.00  0.00     0.187 HD
HETATM   35  C10 UNL     1      25.680 -17.659   7.079  1.00  0.00     0.110 A 
ATOM     36  H12 UNL     1      26.271 -19.432   7.909  1.00  0.00     0.186 HD
HETATM   37  C11 UNL     1      24.978 -16.497   7.329  1.00  0.00     0.057 A 
HETATM   38  C12 UNL     1      24.398 -16.326   8.573  1.00  0.00     0.096 A 
BRANCH  38  39
HETATM   39  O2  UNL     1      23.685 -15.177   8.870  1.00  0.00    -0.358 OA
ATOM     40  H2  UNL     1      23.245 -14.733   8.155  1.00  0.00     0.217 HD
ENDBRANCH  38  39
ENDBRANCH  29  31
ENDBRANCH  26  28
ENDBRANCH  17  26
ENDBRANCH  10  12
ENDBRANCH   8  10
ENDBRANCH   3   6
TORSDOF 9
ENDMDL
MODEL 3
REMARK VINA RESULT: -8.317713784      1.791      2.214
REMARK  9 active torsions:
REMARK  status: ('A' for Active; 'I' for Inactive)
REMARK    1  A    between atoms: C2_3  and  C4_6 
REMARK       I    between atoms: C4_6  and  N3_8 
REMARK    2  A    between atoms: N3_8  and  N4_10 
REMARK    3  A    between atoms: N4_10  and  C5_12 
REMARK    4  A    between atoms: C6_15  and  N6_16 
REMARK    5  A    between atoms: N6_16  and  N7_18 
REMARK    6  A    between atoms: C7_23  and  N9_24 
REMARK    7  A    between atoms: N9_24  and  N10_26 
REMARK    8  A    between atoms: C8_28  and  C9_29 
REMARK    9  A    between atoms: C12_36  and  O2_37 
ROOT
HETATM    1  N1  UNL     1      31.465 -20.724  14.614  1.00  0.00    -0.195 NA
HETATM    2  C1  UNL     1      30.594 -20.280  15.195  1.00  0.00     0.088 C 
HETATM    3  C2  UNL     1      29.459 -19.689  15.934  1.00  0.00     0.292 C 
HETATM    4  C3  UNL     1      28.550 -20.769  16.246  1.00  0.00     0.088 C 
HETATM    5  N2  UNL     1      27.807 -21.632  16.486  1.00  0.00    -0.195 NA
ENDROOT
BRANCH   3   6
HETATM    6  C4  UNL     1      28.814 -18.673  15.067  1.00  0.00     0.268 C 
HETATM    7  O1  UNL     1      29.423 -18.085  14.136  1.00  0.00    -0.269 OA
HETATM    8  N3  UNL     1      27.440 -18.347  15.301  1.00  0.00    -0.254 N 
ATOM      9  H3  UNL     1      26.933 -18.815  16.053  1.00  0.00     0.190 HD
BRANCH   8  10
HETATM   10  N4  UNL     1      26.785 -17.401  14.518  1.00  0.00    -0.128 N 
ATOM     11  H4  UNL     1      27.329 -16.839  13.863  1.00  0.00     0.205 HD
BRANCH  10  12
HETATM   12  C5  UNL     1      25.502 -17.212  14.599  1.00  0.00     0.726 A 
HETATM   13  N5  UNL     1      24.767 -17.702  15.605  1.00  0.00    -0.018 N 
HETATM   14  C6  UNL     1      23.442 -17.508  15.689  1.00  0.00     0.725 A 
ATOM     15  H5  UNL     1      25.232 -18.242  16.335  1.00  0.00     0.203 HD
HETATM   16  N8  UNL     1      22.843 -16.784  14.704  1.00  0.00    -0.018 N 
HETATM   17  C7  UNL     1      23.565 -16.280  13.679  1.00  0.00     0.726 A 
ATOM     18  H8  UNL     1      21.838 -16.620  14.741  1.00  0.00     0.203 HD
HETATM   19  N13 UNL     1      24.894 -16.499  13.635  1.00  0.00    -0.018 N 
ATOM     20  H13 UNL     1      25.444 -16.121  12.863  1.00  0.00     0.203 HD
BRANCH  14  21
HETATM   21  N6  UNL     1      22.759 -17.988  16.665  1.00  0.00    -0.138 N 
ATOM     22  H6  UNL     1      23.204 -18.556  17.386  1.00  0.00     0.205 HD
BRANCH  21  23
HETATM   23  N7  UNL     1      21.395 -17.716  16.715  1.00  0.00    -0.331 N 
ATOM     24  H72 UNL     1      20.885 -17.839  17.590  1.00  0.00     0.177 HD
ATOM     25  H71 UNL     1      20.933 -17.394  15.865  1.00  0.00     0.177 HD
ENDBRANCH  21  23
ENDBRANCH  14  21
BRANCH  17  26
HETATM   26  N9  UNL     1      23.037 -15.599  12.742  1.00  0.00    -0.131 N 
ATOM     27  H9  UNL     1      22.200 -15.048  12.929  1.00  0.00     0.205 HD
BRANCH  26  28
HETATM   28  N10 UNL     1      23.592 -15.601  11.462  1.00  0.00    -0.295 N 
HETATM   29  C8  UNL     1      23.849 -16.697  10.884  1.00  0.00     0.141 C 
ATOM     30  H10 UNL     1      23.792 -14.719  10.992  1.00  0.00     0.186 HD
BRANCH  29  31
HETATM   31  C9  UNL     1      24.433 -16.730   9.539  1.00  0.00     0.098 A 
HETATM   32  N11 UNL     1      24.203 -15.738   8.656  1.00  0.00    -0.297 N 
HETATM   33  N12 UNL     1      24.718 -15.754   7.452  1.00  0.00    -0.311 N 
ATOM     34  H11 UNL     1      23.612 -14.954   8.932  1.00  0.00     0.187 HD
HETATM   35  C10 UNL     1      25.514 -16.748   6.992  1.00  0.00     0.110 A 
ATOM     36  H12 UNL     1      24.508 -14.976   6.827  1.00  0.00     0.186 HD
HETATM   37  C11 UNL     1      25.787 -17.793   7.851  1.00  0.00     0.057 A 
HETATM   38  C12 UNL     1      25.239 -17.769   9.121  1.00  0.00     0.096 A 
BRANCH  38  39
HETATM   39  O2  UNL     1      25.485 -18.794  10.018  1.00  0.00    -0.358 OA
ATOM     40  H2  UNL     1      26.375 -18.904  10.331  1.00  0.00     0.217 HD
ENDBRANCH  38  39
ENDBRANCH  29  31
ENDBRANCH  26  28
ENDBRANCH  17  26
ENDBRANCH  10  12
ENDBRANCH   8  10
ENDBRANCH   3   6
TORSDOF 9
ENDMDL
MODEL 4
REMARK VINA RESULT: -8.281373875      2.156      7.027
REMARK  9 active torsions:
REMARK  status: ('A' for Active; 'I' for Inactive)
REMARK    1  A    between atoms: C2_3  and  C4_6 
REMARK       I    between atoms: C4_6  and  N3_8 
REMARK    2  A    between atoms: N3_8  and  N4_10 
REMARK    3  A    between atoms: N4_10  and  C5_12 
REMARK    4  A    between atoms: C6_15  and  N6_16 
REMARK    5  A    between atoms: N6_16  and  N7_18 
REMARK    6  A    between atoms: C7_23  and  N9_24 
REMARK    7  A    between atoms: N9_24  and  N10_26 
REMARK    8  A    between atoms: C8_28  and  C9_29 
REMARK    9  A    between atoms: C12_36  and  O2_37 
ROOT
HETATM    1  N1  UNL     1      24.275 -16.107   5.469  1.00  0.00    -0.195 NA
HETATM    2  C1  UNL     1      24.797 -16.186   6.476  1.00  0.00     0.088 C 
HETATM    3  C2  UNL     1      25.457 -16.280   7.796  1.00  0.00     0.292 C 
HETATM    4  C3  UNL     1      25.935 -17.638   7.933  1.00  0.00     0.088 C 
HETATM    5  N2  UNL     1      26.306 -18.734   8.055  1.00  0.00    -0.195 NA
ENDROOT
BRANCH   3   6
HETATM    6  C4  UNL     1      24.461 -15.948   8.843  1.00  0.00     0.268 C 
HETATM    7  O1  UNL     1      23.471 -15.202   8.630  1.00  0.00    -0.269 OA
HETATM    8  N3  UNL     1      24.636 -16.501  10.152  1.00  0.00    -0.254 N 
ATOM      9  H3  UNL     1      25.434 -17.107  10.340  1.00  0.00     0.190 HD
BRANCH   8  10
HETATM   10  N4  UNL     1      23.731 -16.222  11.172  1.00  0.00    -0.128 N 
ATOM     11  H4  UNL     1      22.836 -15.795  10.937  1.00  0.00     0.205 HD
BRANCH  10  12
HETATM   12  C5  UNL     1      23.995 -16.490  12.416  1.00  0.00     0.726 A 
HETATM   13  N5  UNL     1      23.037 -16.609  13.343  1.00  0.00    -0.018 N 
HETATM   14  C6  UNL     1      23.308 -16.885  14.628  1.00  0.00     0.725 A 
ATOM     15  H5  UNL     1      22.064 -16.484  13.062  1.00  0.00     0.203 HD
HETATM   16  N8  UNL     1      24.613 -17.048  14.979  1.00  0.00    -0.018 N 
HETATM   17  C7  UNL     1      25.597 -16.934  14.060  1.00  0.00     0.726 A 
ATOM     18  H8  UNL     1      24.850 -17.260  15.948  1.00  0.00     0.203 HD
HETATM   19  N13 UNL     1      25.278 -16.655  12.781  1.00  0.00    -0.018 N 
ATOM     20  H13 UNL     1      26.018 -16.567  12.083  1.00  0.00     0.203 HD
BRANCH  14  21
HETATM   21  N6  UNL     1      22.370 -16.993  15.499  1.00  0.00    -0.138 N 
ATOM     22  H6  UNL     1      21.472 -16.530  15.360  1.00  0.00     0.205 HD
BRANCH  21  23
HETATM   23  N7  UNL     1      22.608 -17.758  16.636  1.00  0.00    -0.331 N 
ATOM     24  H72 UNL     1      21.884 -18.384  16.989  1.00  0.00     0.177 HD
ATOM     25  H71 UNL     1      23.515 -17.674  17.096  1.00  0.00     0.177 HD
ENDBRANCH  21  23
ENDBRANCH  14  21
BRANCH  17  26
HETATM   26  N9  UNL     1      26.827 -17.080  14.356  1.00  0.00    -0.131 N 
ATOM     27  H9  UNL     1      27.502 -16.371  14.069  1.00  0.00     0.205 HD
BRANCH  26  28
HETATM   28  N10 UNL     1      27.258 -18.199  15.067  1.00  0.00    -0.295 N 
HETATM   29  C8  UNL     1      26.542 -19.242  15.105  1.00  0.00     0.141 C 
ATOM     30  H10 UNL     1      28.152 -18.177  15.558  1.00  0.00     0.186 HD
BRANCH  29  31
HETATM   31  C9  UNL     1      26.970 -20.433  15.846  1.00  0.00     0.098 A 
HETATM   32  N11 UNL     1      27.034 -21.639  15.248  1.00  0.00    -0.297 N 
HETATM   33  N12 UNL     1      27.414 -22.711  15.897  1.00  0.00    -0.311 N 
ATOM     34  H11 UNL     1      26.779 -21.720  14.264  1.00  0.00     0.187 HD
HETATM   35  C10 UNL     1      27.771 -22.707  17.204  1.00  0.00     0.110 A 
ATOM     36  H12 UNL     1      27.443 -23.596  15.392  1.00  0.00     0.186 HD
HETATM   37  C11 UNL     1      27.726 -21.501  17.872  1.00  0.00     0.057 A 
HETATM   38  C12 UNL     1      27.324 -20.373  17.179  1.00  0.00     0.096 A 
BRANCH  38  39
HETATM   39  O2  UNL     1      27.263 -19.141  17.806  1.00  0.00    -0.358 OA
ATOM     40  H2  UNL     1      27.225 -18.366  17.257  1.00  0.00     0.217 HD
ENDBRANCH  38  39
ENDBRANCH  29  31
ENDBRANCH  26  28
ENDBRANCH  17  26
ENDBRANCH  10  12
ENDBRANCH   8  10
ENDBRANCH   3   6
TORSDOF 9
ENDMDL
MODEL 5
REMARK VINA RESULT: -8.278741681      1.751      2.173
REMARK  9 active torsions:
REMARK  status: ('A' for Active; 'I' for Inactive)
REMARK    1  A    between atoms: C2_3  and  C4_6 
REMARK       I    between atoms: C4_6  and  N3_8 
REMARK    2  A    between atoms: N3_8  and  N4_10 
REMARK    3  A    between atoms: N4_10  and  C5_12 
REMARK    4  A    between atoms: C6_15  and  N6_16 
REMARK    5  A    between atoms: N6_16  and  N7_18 
REMARK    6  A    between atoms: C7_23  and  N9_24 
REMARK    7  A    between atoms: N9_24  and  N10_26 
REMARK    8  A    between atoms: C8_28  and  C9_29 
REMARK    9  A    between atoms: C12_36  and  O2_37 
ROOT
HETATM    1  N1  UNL     1      26.481 -22.669  14.668  1.00  0.00    -0.195 NA
HETATM    2  C1  UNL     1      27.157 -22.030  15.322  1.00  0.00     0.088 C 
HETATM    3  C2  UNL     1      28.030 -21.181  16.160  1.00  0.00     0.292 C 
HETATM    4  C3  UNL     1      27.658 -21.422  17.536  1.00  0.00     0.088 C 
HETATM    5  N2  UNL     1      27.351 -21.599  18.644  1.00  0.00    -0.195 NA
ENDROOT
BRANCH   3   6
HETATM    6  C4  UNL     1      27.811 -19.765  15.779  1.00  0.00     0.268 C 
HETATM    7  O1  UNL     1      28.753 -18.943  15.635  1.00  0.00    -0.269 OA
HETATM    8  N3  UNL     1      26.469 -19.314  15.568  1.00  0.00    -0.254 N 
ATOM      9  H3  UNL     1      25.695 -19.968  15.682  1.00  0.00     0.190 HD
BRANCH   8  10
HETATM   10  N4  UNL     1      26.205 -17.995  15.210  1.00  0.00    -0.128 N 
ATOM     11  H4  UNL     1      26.987 -17.355  15.070  1.00  0.00     0.205 HD
BRANCH  10  12
HETATM   12  C5  UNL     1      24.992 -17.557  15.049  1.00  0.00     0.726 A 
HETATM   13  N5  UNL     1      24.010 -17.832  15.915  1.00  0.00    -0.018 N 
HETATM   14  C6  UNL     1      22.757 -17.380  15.750  1.00  0.00     0.725 A 
ATOM     15  H5  UNL     1      24.222 -18.407  16.731  1.00  0.00     0.203 HD
HETATM   16  N8  UNL     1      22.498 -16.615  14.655  1.00  0.00    -0.018 N 
HETATM   17  C7  UNL     1      23.475 -16.324  13.767  1.00  0.00     0.726 A 
ATOM     18  H8  UNL     1      21.556 -16.257  14.503  1.00  0.00     0.203 HD
HETATM   19  N13 UNL     1      24.719 -16.799  13.973  1.00  0.00    -0.018 N 
ATOM     20  H13 UNL     1      25.460 -16.583  13.306  1.00  0.00     0.203 HD
BRANCH  14  21
HETATM   21  N6  UNL     1      21.831 -17.659  16.596  1.00  0.00    -0.138 N 
ATOM     22  H6  UNL     1      20.848 -17.528  16.358  1.00  0.00     0.205 HD
BRANCH  21  23
HETATM   23  N7  UNL     1      22.202 -18.144  17.847  1.00  0.00    -0.331 N 
ATOM     24  H72 UNL     1      23.179 -18.363  18.037  1.00  0.00     0.177 HD
ATOM     25  H71 UNL     1      21.476 -18.271  18.553  1.00  0.00     0.177 HD
ENDBRANCH  21  23
ENDBRANCH  14  21
BRANCH  17  26
HETATM   26  N9  UNL     1      23.266 -15.612  12.733  1.00  0.00    -0.131 N 
ATOM     27  H9  UNL     1      22.608 -14.834  12.780  1.00  0.00     0.205 HD
BRANCH  26  28
HETATM   28  N10 UNL     1      23.929 -15.886  11.537  1.00  0.00    -0.295 N 
HETATM   29  C8  UNL     1      23.765 -17.001  10.962  1.00  0.00     0.141 C 
ATOM     30  H10 UNL     1      24.547 -15.187  11.125  1.00  0.00     0.186 HD
BRANCH  29  31
HETATM   31  C9  UNL     1      24.450 -17.317   9.703  1.00  0.00     0.098 A 
HETATM   32  N11 UNL     1      25.092 -18.490   9.536  1.00  0.00    -0.297 N 
HETATM   33  N12 UNL     1      25.708 -18.785   8.419  1.00  0.00    -0.311 N 
ATOM     34  H11 UNL     1      25.099 -19.166  10.299  1.00  0.00     0.187 HD
HETATM   35  C10 UNL     1      25.756 -17.956   7.348  1.00  0.00     0.110 A 
ATOM     36  H12 UNL     1      26.176 -19.688   8.350  1.00  0.00     0.186 HD
HETATM   37  C11 UNL     1      25.116 -16.738   7.459  1.00  0.00     0.057 A 
HETATM   38  C12 UNL     1      24.468 -16.434   8.643  1.00  0.00     0.096 A 
BRANCH  38  39
HETATM   39  O2  UNL     1      23.812 -15.225   8.801  1.00  0.00    -0.358 OA
ATOM     40  H2  UNL     1      24.343 -14.441   8.879  1.00  0.00     0.217 HD
ENDBRANCH  38  39
ENDBRANCH  29  31
ENDBRANCH  26  28
ENDBRANCH  17  26
ENDBRANCH  10  12
ENDBRANCH   8  10
ENDBRANCH   3   6
TORSDOF 9
ENDMDL
