MODEL 1
REMARK VINA RESULT: -8.227598796      0.000      0.000
REMARK  6 active torsions:
REMARK  status: ('A' for Active; 'I' for Inactive)
REMARK       I    between atoms: N1_1  and  C1_5 
REMARK       I    between atoms: C1_5  and  N2_6 
REMARK       I    between atoms: C1_5  and  N3_10 
REMARK    1  A    between atoms: N3_10  and  C2_12 
REMARK    2  A    between atoms: C3_15  and  S1_16 
REMARK    3  A    between atoms: S1_16  and  N5_17 
REMARK    4  A    between atoms: C5_23  and  O3_24 
REMARK    5  A    between atoms: O3_24  and  S2_25 
REMARK    6  A    between atoms: C6_29  and  N6_30 
ROOT
HETATM    1  C2  UNL     1      24.380 -16.984  12.675  1.00  0.00     0.141 A 
HETATM    2  N4  UNL     1      23.611 -15.922  12.903  1.00  0.00    -0.330 N 
ATOM      3  H4  UNL     1      23.055 -15.905  13.758  1.00  0.00     0.168 HD
HETATM    4  C3  UNL     1      23.525 -14.867  12.069  1.00  0.00     0.153 A 
HETATM    5  C4  UNL     1      24.278 -14.876  10.898  1.00  0.00     0.084 A 
HETATM    6  C5  UNL     1      25.083 -15.936  10.612  1.00  0.00     0.131 A 
HETATM    7  C6  UNL     1      25.134 -16.985  11.495  1.00  0.00     0.181 A 
ENDROOT
BRANCH   1   8
HETATM    8  N3  UNL     1      24.503 -17.999  13.414  1.00  0.00    -0.325 N 
HETATM    9  C1  UNL     1      25.406 -18.190  14.500  1.00  0.00     0.481 C 
HETATM   10  N1  UNL     1      25.910 -19.559  14.410  1.00  0.00    -0.033 N 
HETATM   11  N2  UNL     1      24.660 -18.116  15.744  1.00  0.00    -0.033 N 
ATOM     12  H13 UNL     1      26.450 -19.848  15.225  1.00  0.00     0.278 HD
ATOM     13  H12 UNL     1      25.180 -20.267  14.488  1.00  0.00     0.278 HD
ATOM     14  H11 UNL     1      26.433 -19.611  13.536  1.00  0.00     0.278 HD
ATOM     15  H23 UNL     1      23.929 -18.823  15.823  1.00  0.00     0.278 HD
ATOM     16  H22 UNL     1      25.200 -18.404  16.559  1.00  0.00     0.278 HD
ATOM     17  H21 UNL     1      24.308 -17.160  15.807  1.00  0.00     0.278 HD
ATOM     18  H3  UNL     1      23.879 -18.780  13.210  1.00  0.00     0.165 HD
ENDBRANCH   1   8
BRANCH   7  19
HETATM   19  N6  UNL     1      25.979 -18.085  11.188  1.00  0.00    -0.109 N 
HETATM   20  O7  UNL     1      25.500 -19.022  10.500  1.00  0.00    -0.532 OA
HETATM   21  O8  UNL     1      27.273 -18.095  11.637  1.00  0.00    -0.532 OA
ENDBRANCH   7  19
BRANCH   4  22
HETATM   22  S1  UNL     1      22.502 -13.517  12.417  1.00  0.00     0.272 S 
HETATM   23  O1  UNL     1      23.307 -12.409  13.040  1.00  0.00    -0.199 OA
HETATM   24  O2  UNL     1      21.859 -12.996  11.186  1.00  0.00    -0.199 OA
BRANCH  22  25
HETATM   25  N5  UNL     1      21.290 -13.966  13.564  1.00  0.00    -0.323 N 
ATOM     26  H52 UNL     1      20.731 -14.817  13.502  1.00  0.00     0.169 HD
ATOM     27  H51 UNL     1      21.222 -13.262  14.299  1.00  0.00     0.169 HD
ENDBRANCH  22  25
ENDBRANCH   4  22
BRANCH   6  28
HETATM   28  O3  UNL     1      25.840 -15.965   9.454  1.00  0.00    -0.211 OA
BRANCH  28  29
HETATM   29  S2  UNL     1      25.251 -16.187   7.899  1.00  0.00     0.257 S 
HETATM   30  O4  UNL     1      24.077 -15.287   7.589  1.00  0.00    -0.572 OA
HETATM   31  O5  UNL     1      24.850 -17.625   7.644  1.00  0.00    -0.572 OA
HETATM   32  O6  UNL     1      26.490 -15.784   6.810  1.00  0.00    -0.572 OA
ENDBRANCH  28  29
ENDBRANCH   6  28
TORSDOF 6
ENDMDL
MODEL 2
REMARK VINA RESULT: -8.219510645      1.121      1.600
REMARK  6 active torsions:
REMARK  status: ('A' for Active; 'I' for Inactive)
REMARK       I    between atoms: N1_1  and  C1_5 
REMARK       I    between atoms: C1_5  and  N2_6 
REMARK       I    between atoms: C1_5  and  N3_10 
REMARK    1  A    between atoms: N3_10  and  C2_12 
REMARK    2  A    between atoms: C3_15  and  S1_16 
REMARK    3  A    between atoms: S1_16  and  N5_17 
REMARK    4  A    between atoms: C5_23  and  O3_24 
REMARK    5  A    between atoms: O3_24  and  S2_25 
REMARK    6  A    between atoms: C6_29  and  N6_30 
ROOT
HETATM    1  C2  UNL     1      24.698 -16.844  12.038  1.00  0.00     0.141 A 
HETATM    2  N4  UNL     1      24.063 -15.754  12.462  1.00  0.00    -0.330 N 
ATOM      3  H4  UNL     1      24.088 -15.540  13.459  1.00  0.00     0.168 HD
HETATM    4  C3  UNL     1      23.390 -14.916  11.650  1.00  0.00     0.153 A 
HETATM    5  C4  UNL     1      23.347 -15.195  10.287  1.00  0.00     0.084 A 
HETATM    6  C5  UNL     1      23.978 -16.296   9.795  1.00  0.00     0.131 A 
HETATM    7  C6  UNL     1      24.651 -17.117  10.665  1.00  0.00     0.181 A 
ENDROOT
BRANCH   1   8
HETATM    8  N3  UNL     1      25.344 -17.665  12.746  1.00  0.00    -0.325 N 
HETATM    9  C1  UNL     1      25.981 -17.430  13.999  1.00  0.00     0.481 C 
HETATM   10  N1  UNL     1      27.263 -18.134  13.972  1.00  0.00    -0.033 N 
HETATM   11  N2  UNL     1      25.196 -18.063  15.045  1.00  0.00    -0.033 N 
ATOM     12  H13 UNL     1      27.733 -18.156  14.877  1.00  0.00     0.278 HD
ATOM     13  H12 UNL     1      27.170 -19.143  13.857  1.00  0.00     0.278 HD
ATOM     14  H11 UNL     1      27.814 -17.690  13.238  1.00  0.00     0.278 HD
ATOM     15  H23 UNL     1      25.103 -19.072  14.930  1.00  0.00     0.278 HD
ATOM     16  H22 UNL     1      25.666 -18.085  15.949  1.00  0.00     0.278 HD
ATOM     17  H21 UNL     1      24.302 -17.572  15.064  1.00  0.00     0.278 HD
ATOM     18  H3  UNL     1      25.420 -18.613  12.376  1.00  0.00     0.165 HD
ENDBRANCH   1   8
BRANCH   7  19
HETATM   19  N6  UNL     1      25.308 -18.262  10.142  1.00  0.00    -0.109 N 
HETATM   20  O7  UNL     1      26.559 -18.327  10.256  1.00  0.00    -0.532 OA
HETATM   21  O8  UNL     1      24.576 -19.251   9.541  1.00  0.00    -0.532 OA
ENDBRANCH   7  19
BRANCH   4  22
HETATM   22  S1  UNL     1      22.578 -13.517  12.262  1.00  0.00     0.272 S 
HETATM   23  O1  UNL     1      23.566 -12.601  12.932  1.00  0.00    -0.199 OA
HETATM   24  O2  UNL     1      21.902 -12.767  11.175  1.00  0.00    -0.199 OA
BRANCH  22  25
HETATM   25  N5  UNL     1      21.421 -13.975  13.462  1.00  0.00    -0.323 N 
ATOM     26  H52 UNL     1      21.350 -14.912  13.859  1.00  0.00     0.169 HD
ATOM     27  H51 UNL     1      20.832 -13.179  13.706  1.00  0.00     0.169 HD
ENDBRANCH  22  25
ENDBRANCH   4  22
BRANCH   6  28
HETATM   28  O3  UNL     1      23.949 -16.591   8.444  1.00  0.00    -0.211 OA
BRANCH  28  29
HETATM   29  S2  UNL     1      25.180 -16.288   7.344  1.00  0.00     0.257 S 
HETATM   30  O4  UNL     1      26.067 -17.491   7.120  1.00  0.00    -0.572 OA
HETATM   31  O5  UNL     1      26.038 -15.114   7.763  1.00  0.00    -0.572 OA
HETATM   32  O6  UNL     1      24.463 -15.913   5.851  1.00  0.00    -0.572 OA
ENDBRANCH  28  29
ENDBRANCH   6  28
TORSDOF 6
ENDMDL
MODEL 3
REMARK VINA RESULT: -8.043220449      0.099      1.158
REMARK  6 active torsions:
REMARK  status: ('A' for Active; 'I' for Inactive)
REMARK       I    between atoms: N1_1  and  C1_5 
REMARK       I    between atoms: C1_5  and  N2_6 
REMARK       I    between atoms: C1_5  and  N3_10 
REMARK    1  A    between atoms: N3_10  and  C2_12 
REMARK    2  A    between atoms: C3_15  and  S1_16 
REMARK    3  A    between atoms: S1_16  and  N5_17 
REMARK    4  A    between atoms: C5_23  and  O3_24 
REMARK    5  A    between atoms: O3_24  and  S2_25 
REMARK    6  A    between atoms: C6_29  and  N6_30 
ROOT
HETATM    1  C2  UNL     1      24.374 -16.956  12.715  1.00  0.00     0.141 A 
HETATM    2  N4  UNL     1      23.597 -15.896  12.924  1.00  0.00    -0.330 N 
ATOM      3  H4  UNL     1      23.033 -15.873  13.774  1.00  0.00     0.168 HD
HETATM    4  C3  UNL     1      23.512 -14.851  12.078  1.00  0.00     0.153 A 
HETATM    5  C4  UNL     1      24.275 -14.868  10.914  1.00  0.00     0.084 A 
HETATM    6  C5  UNL     1      25.089 -15.926  10.646  1.00  0.00     0.131 A 
HETATM    7  C6  UNL     1      25.139 -16.965  11.542  1.00  0.00     0.181 A 
ENDROOT
BRANCH   1   8
HETATM    8  N3  UNL     1      24.497 -17.962  13.466  1.00  0.00    -0.325 N 
HETATM    9  C1  UNL     1      25.352 -18.114  14.596  1.00  0.00     0.481 C 
HETATM   10  N1  UNL     1      25.908 -19.465  14.540  1.00  0.00    -0.033 N 
HETATM   11  N2  UNL     1      24.543 -18.060  15.802  1.00  0.00    -0.033 N 
ATOM     12  H13 UNL     1      26.417 -19.729  15.383  1.00  0.00     0.278 HD
ATOM     13  H12 UNL     1      25.200 -20.198  14.588  1.00  0.00     0.278 HD
ATOM     14  H11 UNL     1      26.475 -19.503  13.694  1.00  0.00     0.278 HD
ATOM     15  H23 UNL     1      23.835 -18.793  15.849  1.00  0.00     0.278 HD
ATOM     16  H22 UNL     1      25.052 -18.325  16.644  1.00  0.00     0.278 HD
ATOM     17  H21 UNL     1      24.155 -17.117  15.840  1.00  0.00     0.278 HD
ATOM     18  H3  UNL     1      23.912 -18.766  13.237  1.00  0.00     0.165 HD
ENDBRANCH   1   8
BRANCH   7  19
HETATM   19  N6  UNL     1      25.993 -18.063  11.254  1.00  0.00    -0.109 N 
HETATM   20  O7  UNL     1      27.154 -18.048  11.736  1.00  0.00    -0.532 OA
HETATM   21  O8  UNL     1      25.536 -19.095  10.478  1.00  0.00    -0.532 OA
ENDBRANCH   7  19
BRANCH   4  22
HETATM   22  S1  UNL     1      22.477 -13.504  12.402  1.00  0.00     0.272 S 
HETATM   23  O1  UNL     1      23.270 -12.384  13.021  1.00  0.00    -0.199 OA
HETATM   24  O2  UNL     1      21.843 -13.000  11.159  1.00  0.00    -0.199 OA
BRANCH  22  25
HETATM   25  N5  UNL     1      21.257 -13.948  13.542  1.00  0.00    -0.323 N 
ATOM     26  H52 UNL     1      20.571 -14.687  13.386  1.00  0.00     0.169 HD
ATOM     27  H51 UNL     1      21.327 -13.368  14.378  1.00  0.00     0.169 HD
ENDBRANCH  22  25
ENDBRANCH   4  22
BRANCH   6  28
HETATM   28  O3  UNL     1      25.856 -15.963   9.496  1.00  0.00    -0.211 OA
BRANCH  28  29
HETATM   29  S2  UNL     1      25.274 -16.104   7.928  1.00  0.00     0.257 S 
HETATM   30  O4  UNL     1      26.301 -15.708   6.891  1.00  0.00    -0.572 OA
HETATM   31  O5  UNL     1      24.018 -15.286   7.714  1.00  0.00    -0.572 OA
HETATM   32  O6  UNL     1      24.895 -17.736   7.657  1.00  0.00    -0.572 OA
ENDBRANCH  28  29
ENDBRANCH   6  28
TORSDOF 6
ENDMDL
MODEL 4
REMARK VINA RESULT: -7.955567697      2.354      4.744
REMARK  6 active torsions:
REMARK  status: ('A' for Active; 'I' for Inactive)
REMARK       I    between atoms: N1_1  and  C1_5 
REMARK       I    between atoms: C1_5  and  N2_6 
REMARK       I    between atoms: C1_5  and  N3_10 
REMARK    1  A    between atoms: N3_10  and  C2_12 
REMARK    2  A    between atoms: C3_15  and  S1_16 
REMARK    3  A    between atoms: S1_16  and  N5_17 
REMARK    4  A    between atoms: C5_23  and  O3_24 
REMARK    5  A    between atoms: O3_24  and  S2_25 
REMARK    6  A    between atoms: C6_29  and  N6_30 
ROOT
HETATM    1  C2  UNL     1      24.037 -15.692  12.125  1.00  0.00     0.141 A 
HETATM    2  N4  UNL     1      24.596 -16.385  13.114  1.00  0.00    -0.330 N 
ATOM      3  H4  UNL     1      24.626 -15.962  14.041  1.00  0.00     0.168 HD
HETATM    4  C3  UNL     1      25.124 -17.615  12.960  1.00  0.00     0.153 A 
HETATM    5  C4  UNL     1      25.090 -18.206  11.700  1.00  0.00     0.084 A 
HETATM    6  C5  UNL     1      24.531 -17.544  10.650  1.00  0.00     0.131 A 
HETATM    7  C6  UNL     1      24.006 -16.294  10.861  1.00  0.00     0.181 A 
ENDROOT
BRANCH   1   8
HETATM    8  N3  UNL     1      23.527 -14.541  12.205  1.00  0.00    -0.325 N 
HETATM    9  C1  UNL     1      22.147 -14.188  12.158  1.00  0.00     0.481 C 
HETATM   10  N1  UNL     1      22.036 -12.976  11.347  1.00  0.00    -0.033 N 
HETATM   11  N2  UNL     1      21.716 -13.817  13.496  1.00  0.00    -0.033 N 
ATOM     12  H13 UNL     1      21.109 -12.553  11.372  1.00  0.00     0.278 HD
ATOM     13  H12 UNL     1      22.546 -12.181  11.732  1.00  0.00     0.278 HD
ATOM     14  H11 UNL     1      22.339 -13.236  10.408  1.00  0.00     0.278 HD
ATOM     15  H23 UNL     1      22.226 -13.022  13.881  1.00  0.00     0.278 HD
ATOM     16  H22 UNL     1      20.789 -13.394  13.521  1.00  0.00     0.278 HD
ATOM     17  H21 UNL     1      21.794 -14.662  14.062  1.00  0.00     0.278 HD
ATOM     18  H3  UNL     1      24.183 -13.767  12.317  1.00  0.00     0.165 HD
ENDBRANCH   1   8
BRANCH   7  19
HETATM   19  N6  UNL     1      23.423 -15.613   9.759  1.00  0.00    -0.109 N 
HETATM   20  O7  UNL     1      24.192 -15.052   8.938  1.00  0.00    -0.532 OA
HETATM   21  O8  UNL     1      22.060 -15.589   9.619  1.00  0.00    -0.532 OA
ENDBRANCH   7  19
BRANCH   4  22
HETATM   22  S1  UNL     1      25.844 -18.465  14.283  1.00  0.00     0.272 S 
HETATM   23  O1  UNL     1      25.810 -19.946  14.023  1.00  0.00    -0.199 OA
HETATM   24  O2  UNL     1      27.256 -18.054  14.485  1.00  0.00    -0.199 OA
BRANCH  22  25
HETATM   25  N5  UNL     1      24.943 -18.187  15.732  1.00  0.00    -0.323 N 
ATOM     26  H52 UNL     1      25.305 -17.686  16.543  1.00  0.00     0.169 HD
ATOM     27  H51 UNL     1      24.011 -18.594  15.651  1.00  0.00     0.169 HD
ENDBRANCH  22  25
ENDBRANCH   4  22
BRANCH   6  28
HETATM   28  O3  UNL     1      24.486 -18.113   9.390  1.00  0.00    -0.211 OA
BRANCH  28  29
HETATM   29  S2  UNL     1      25.628 -17.910   8.177  1.00  0.00     0.257 S 
HETATM   30  O4  UNL     1      26.374 -19.187   7.863  1.00  0.00    -0.572 OA
HETATM   31  O5  UNL     1      26.630 -16.826   8.517  1.00  0.00    -0.572 OA
HETATM   32  O6  UNL     1      24.810 -17.449   6.763  1.00  0.00    -0.572 OA
ENDBRANCH  28  29
ENDBRANCH   6  28
TORSDOF 6
ENDMDL
MODEL 5
REMARK VINA RESULT: -7.803802915      2.007      4.734
REMARK  6 active torsions:
REMARK  status: ('A' for Active; 'I' for Inactive)
REMARK       I    between atoms: N1_1  and  C1_5 
REMARK       I    between atoms: C1_5  and  N2_6 
REMARK       I    between atoms: C1_5  and  N3_10 
REMARK    1  A    between atoms: N3_10  and  C2_12 
REMARK    2  A    between atoms: C3_15  and  S1_16 
REMARK    3  A    between atoms: S1_16  and  N5_17 
REMARK    4  A    between atoms: C5_23  and  O3_24 
REMARK    5  A    between atoms: O3_24  and  S2_25 
REMARK    6  A    between atoms: C6_29  and  N6_30 
ROOT
HETATM    1  C2  UNL     1      24.944 -18.147  12.037  1.00  0.00     0.141 A 
HETATM    2  N4  UNL     1      25.240 -18.157  10.739  1.00  0.00    -0.330 N 
ATOM      3  H4  UNL     1      25.555 -19.034  10.324  1.00  0.00     0.168 HD
HETATM    4  C3  UNL     1      25.148 -17.075   9.942  1.00  0.00     0.153 A 
HETATM    5  C4  UNL     1      24.719 -15.871  10.494  1.00  0.00     0.084 A 
HETATM    6  C5  UNL     1      24.403 -15.800  11.815  1.00  0.00     0.131 A 
HETATM    7  C6  UNL     1      24.513 -16.932  12.584  1.00  0.00     0.181 A 
ENDROOT
BRANCH   1   8
HETATM    8  N3  UNL     1      25.010 -19.123  12.833  1.00  0.00    -0.325 N 
HETATM    9  C1  UNL     1      26.089 -19.484  13.691  1.00  0.00     0.481 C 
HETATM   10  N1  UNL     1      26.219 -20.939  13.636  1.00  0.00    -0.033 N 
HETATM   11  N2  UNL     1      25.722 -19.163  15.060  1.00  0.00    -0.033 N 
ATOM     12  H13 UNL     1      26.866 -21.316  14.329  1.00  0.00     0.278 HD
ATOM     13  H12 UNL     1      25.388 -21.434  13.960  1.00  0.00     0.278 HD
ATOM     14  H11 UNL     1      26.476 -21.164  12.675  1.00  0.00     0.278 HD
ATOM     15  H23 UNL     1      24.891 -19.658  15.384  1.00  0.00     0.278 HD
ATOM     16  H22 UNL     1      26.368 -19.540  15.753  1.00  0.00     0.278 HD
ATOM     17  H21 UNL     1      25.631 -18.148  15.098  1.00  0.00     0.278 HD
ATOM     18  H3  UNL     1      24.190 -19.730  12.867  1.00  0.00     0.165 HD
ENDBRANCH   1   8
BRANCH   7  19
HETATM   19  N6  UNL     1      24.178 -16.848  13.961  1.00  0.00    -0.109 N 
HETATM   20  O7  UNL     1      24.996 -16.288  14.734  1.00  0.00    -0.532 OA
HETATM   21  O8  UNL     1      22.989 -17.366  14.405  1.00  0.00    -0.532 OA
ENDBRANCH   7  19
BRANCH   4  22
HETATM   22  S1  UNL     1      25.553 -17.149   8.262  1.00  0.00     0.272 S 
HETATM   23  O1  UNL     1      24.403 -16.647   7.433  1.00  0.00    -0.199 OA
HETATM   24  O2  UNL     1      26.748 -16.324   7.959  1.00  0.00    -0.199 OA
BRANCH  22  25
HETATM   25  N5  UNL     1      25.839 -18.787   7.789  1.00  0.00    -0.323 N 
ATOM     26  H52 UNL     1      26.014 -19.082   6.828  1.00  0.00     0.169 HD
ATOM     27  H51 UNL     1      25.806 -19.400   8.603  1.00  0.00     0.169 HD
ENDBRANCH  22  25
ENDBRANCH   4  22
BRANCH   6  28
HETATM   28  O3  UNL     1      23.974 -14.614  12.384  1.00  0.00    -0.211 OA
BRANCH  28  29
HETATM   29  S2  UNL     1      22.662 -13.698  11.881  1.00  0.00     0.257 S 
HETATM   30  O4  UNL     1      21.932 -14.325  10.714  1.00  0.00    -0.572 OA
HETATM   31  O5  UNL     1      23.064 -12.287  11.509  1.00  0.00    -0.572 OA
HETATM   32  O6  UNL     1      21.560 -13.613  13.170  1.00  0.00    -0.572 OA
ENDBRANCH  28  29
ENDBRANCH   6  28
TORSDOF 6
ENDMDL
