MODEL 1
REMARK VINA RESULT: -5.221561558      0.000      0.000
REMARK  5 active torsions:
REMARK  status: ('A' for Active; 'I' for Inactive)
REMARK    1  A    between atoms: N1_2  and  C3_4 
REMARK    2  A    between atoms: C3_4  and  C4_5 
REMARK    3  A    between atoms: C5_9  and  N4_10 
REMARK    4  A    between atoms: C6_11  and  N5_12 
REMARK    5  A    between atoms: C9_19  and  N7_20 
REMARK       I    between atoms: N7_20  and  C10_22 
REMARK       I    between atoms: C10_22  and  N8_23 
REMARK       I    between atoms: C10_22  and  N9_27 
ROOT
HETATM    1  N4  UNL     1      26.908 -18.031  13.195  1.00  0.00    -0.102 N 
HETATM    2  C6  UNL     1      28.190 -17.883  12.828  1.00  0.00     0.688 A 
HETATM    3  N6  UNL     1      28.923 -18.182  13.915  1.00  0.00    -0.174 N 
ATOM      4  H6  UNL     1      29.942 -18.161  13.949  1.00  0.00     0.186 HD
HETATM    5  C7  UNL     1      28.134 -18.511  14.949  1.00  0.00     0.159 A 
HETATM    6  C8  UNL     1      26.832 -18.420  14.507  1.00  0.00     0.149 A 
HETATM    7  C9  UNL     1      25.773 -18.700  15.342  1.00  0.00     0.140 A 
HETATM    8  N10 UNL     1      26.038 -19.063  16.599  1.00  0.00    -0.292 N 
ATOM      9  H10 UNL     1      25.267 -19.273  17.232  1.00  0.00     0.172 HD
HETATM   10  C11 UNL     1      27.326 -19.157  17.053  1.00  0.00     0.329 A 
HETATM   11  O1  UNL     1      27.570 -19.502  18.247  1.00  0.00    -0.246 OA
HETATM   12  N11 UNL     1      28.350 -18.883  16.232  1.00  0.00    -0.287 N 
HETATM   13  C12 UNL     1      29.718 -18.982  16.697  1.00  0.00     0.163 C 
ENDROOT
BRANCH   7  14
HETATM   14  N7  UNL     1      24.596 -18.616  14.921  1.00  0.00    -0.325 N 
HETATM   15  C10 UNL     1      23.548 -17.705  15.223  1.00  0.00     0.481 C 
HETATM   16  N8  UNL     1      23.804 -16.352  14.779  1.00  0.00    -0.033 N 
HETATM   17  N9  UNL     1      23.237 -17.658  16.629  1.00  0.00    -0.033 N 
ATOM     18  H83 UNL     1      24.692 -16.015  15.150  1.00  0.00     0.278 HD
ATOM     19  H82 UNL     1      24.018 -16.336  13.782  1.00  0.00     0.278 HD
ATOM     20  H81 UNL     1      23.052 -15.699  14.996  1.00  0.00     0.278 HD
ATOM     21  H93 UNL     1      23.027 -18.589  16.989  1.00  0.00     0.278 HD
ATOM     22  H92 UNL     1      24.070 -17.452  17.181  1.00  0.00     0.278 HD
ATOM     23  H91 UNL     1      22.486 -17.004  16.846  1.00  0.00     0.278 HD
ATOM     24  H7  UNL     1      24.345 -19.331  14.238  1.00  0.00     0.165 HD
ENDBRANCH   7  14
BRANCH   1  25
HETATM   25  C5  UNL     1      25.740 -17.826  12.387  1.00  0.00     0.259 C 
HETATM   26  N3  UNL     1      25.211 -18.744  11.653  1.00  0.00    -0.266 N 
HETATM   27  N2  UNL     1      24.084 -18.231  10.990  1.00  0.00    -0.103 NA
ATOM     28  H3  UNL     1      25.559 -19.699  11.566  1.00  0.00     0.186 HD
HETATM   29  C4  UNL     1      24.231 -16.792  11.019  1.00  0.00     0.273 C 
HETATM   30  O2  UNL     1      24.978 -16.656  12.240  1.00  0.00    -0.295 OA
BRANCH  29  31
HETATM   31  C3  UNL     1      25.143 -16.311   9.923  1.00  0.00     0.322 C 
BRANCH  31  32
HETATM   32  N1  UNL     1      24.838 -16.912   8.637  1.00  0.00     0.083 N 
HETATM   33  C1  UNL     1      25.891 -17.780   8.158  1.00  0.00     0.309 C 
HETATM   34  C2  UNL     1      24.740 -15.787   7.694  1.00  0.00     0.309 C 
ENDBRANCH  31  32
ENDBRANCH  29  31
ENDBRANCH   1  25
BRANCH   2  35
HETATM   35  N5  UNL     1      28.633 -17.526  11.654  1.00  0.00    -0.234 N 
ATOM     36  H52 UNL     1      29.350 -17.992  11.100  1.00  0.00     0.174 HD
ATOM     37  H51 UNL     1      28.327 -16.725  11.103  1.00  0.00     0.174 HD
ENDBRANCH   2  35
TORSDOF 5
ENDMDL
MODEL 2
REMARK VINA RESULT: -4.265296309      2.041      6.821
REMARK  5 active torsions:
REMARK  status: ('A' for Active; 'I' for Inactive)
REMARK    1  A    between atoms: N1_2  and  C3_4 
REMARK    2  A    between atoms: C3_4  and  C4_5 
REMARK    3  A    between atoms: C5_9  and  N4_10 
REMARK    4  A    between atoms: C6_11  and  N5_12 
REMARK    5  A    between atoms: C9_19  and  N7_20 
REMARK       I    between atoms: N7_20  and  C10_22 
REMARK       I    between atoms: C10_22  and  N8_23 
REMARK       I    between atoms: C10_22  and  N9_27 
ROOT
HETATM    1  N4  UNL     1      24.597 -17.415  13.627  1.00  0.00    -0.102 N 
HETATM    2  C6  UNL     1      23.859 -16.831  14.585  1.00  0.00     0.688 A 
HETATM    3  N6  UNL     1      23.114 -15.900  13.964  1.00  0.00    -0.174 N 
ATOM      4  H6  UNL     1      22.447 -15.287  14.431  1.00  0.00     0.186 HD
HETATM    5  C7  UNL     1      23.367 -15.886  12.646  1.00  0.00     0.159 A 
HETATM    6  C8  UNL     1      24.318 -16.854  12.408  1.00  0.00     0.149 A 
HETATM    7  C9  UNL     1      24.794 -17.091  11.137  1.00  0.00     0.140 A 
HETATM    8  N10 UNL     1      24.310 -16.356  10.134  1.00  0.00    -0.292 N 
ATOM      9  H10 UNL     1      24.650 -16.516   9.187  1.00  0.00     0.172 HD
HETATM   10  C11 UNL     1      23.364 -15.391  10.355  1.00  0.00     0.329 A 
HETATM   11  O1  UNL     1      22.909 -14.696   9.398  1.00  0.00    -0.246 OA
HETATM   12  N11 UNL     1      22.907 -15.168  11.596  1.00  0.00    -0.287 N 
HETATM   13  C12 UNL     1      21.905 -14.153  11.844  1.00  0.00     0.163 C 
ENDROOT
BRANCH   7  14
HETATM   14  N7  UNL     1      25.657 -17.978  10.939  1.00  0.00    -0.325 N 
HETATM   15  C10 UNL     1      25.923 -18.801   9.812  1.00  0.00     0.481 C 
HETATM   16  N8  UNL     1      26.405 -18.074   8.659  1.00  0.00    -0.033 N 
HETATM   17  N9  UNL     1      24.777 -19.573   9.401  1.00  0.00    -0.033 N 
ATOM     18  H83 UNL     1      25.760 -17.324   8.412  1.00  0.00     0.278 HD
ATOM     19  H82 UNL     1      27.226 -17.520   8.902  1.00  0.00     0.278 HD
ATOM     20  H81 UNL     1      26.596 -18.664   7.850  1.00  0.00     0.278 HD
ATOM     21  H93 UNL     1      24.410 -20.123  10.177  1.00  0.00     0.278 HD
ATOM     22  H92 UNL     1      23.972 -18.970   9.231  1.00  0.00     0.278 HD
ATOM     23  H91 UNL     1      24.968 -20.163   8.592  1.00  0.00     0.278 HD
ATOM     24  H7  UNL     1      26.280 -18.137  11.730  1.00  0.00     0.165 HD
ENDBRANCH   7  14
BRANCH   1  25
HETATM   25  C5  UNL     1      25.554 -18.472  13.785  1.00  0.00     0.259 C 
HETATM   26  N3  UNL     1      25.236 -19.719  13.845  1.00  0.00    -0.266 N 
HETATM   27  N2  UNL     1      26.394 -20.498  13.999  1.00  0.00    -0.103 NA
ATOM     28  H3  UNL     1      24.285 -20.086  13.789  1.00  0.00     0.186 HD
HETATM   29  C4  UNL     1      27.412 -19.596  14.493  1.00  0.00     0.273 C 
HETATM   30  O2  UNL     1      26.950 -18.371  13.898  1.00  0.00    -0.295 OA
BRANCH  29  31
HETATM   31  C3  UNL     1      27.298 -19.400  15.980  1.00  0.00     0.322 C 
BRANCH  31  32
HETATM   32  N1  UNL     1      28.399 -18.628  16.528  1.00  0.00     0.083 N 
HETATM   33  C1  UNL     1      29.694 -19.135  16.131  1.00  0.00     0.309 C 
HETATM   34  C2  UNL     1      28.300 -18.787  17.987  1.00  0.00     0.309 C 
ENDBRANCH  31  32
ENDBRANCH  29  31
ENDBRANCH   1  25
BRANCH   2  35
HETATM   35  N5  UNL     1      23.864 -17.115  15.858  1.00  0.00    -0.234 N 
ATOM     36  H52 UNL     1      24.036 -18.025  16.285  1.00  0.00     0.174 HD
ATOM     37  H51 UNL     1      23.699 -16.469  16.630  1.00  0.00     0.174 HD
ENDBRANCH   2  35
TORSDOF 5
ENDMDL
MODEL 3
REMARK VINA RESULT: -4.244185077      1.133      1.536
REMARK  5 active torsions:
REMARK  status: ('A' for Active; 'I' for Inactive)
REMARK    1  A    between atoms: N1_2  and  C3_4 
REMARK    2  A    between atoms: C3_4  and  C4_5 
REMARK    3  A    between atoms: C5_9  and  N4_10 
REMARK    4  A    between atoms: C6_11  and  N5_12 
REMARK    5  A    between atoms: C9_19  and  N7_20 
REMARK       I    between atoms: N7_20  and  C10_22 
REMARK       I    between atoms: C10_22  and  N8_23 
REMARK       I    between atoms: C10_22  and  N9_27 
ROOT
HETATM    1  N4  UNL     1      26.933 -18.088  13.257  1.00  0.00    -0.102 N 
HETATM    2  C6  UNL     1      28.205 -17.929  12.858  1.00  0.00     0.688 A 
HETATM    3  N6  UNL     1      28.966 -18.175  13.939  1.00  0.00    -0.174 N 
ATOM      4  H6  UNL     1      29.984 -18.134  13.951  1.00  0.00     0.186 HD
HETATM    5  C7  UNL     1      28.204 -18.482  15.000  1.00  0.00     0.159 A 
HETATM    6  C8  UNL     1      26.892 -18.432  14.583  1.00  0.00     0.149 A 
HETATM    7  C9  UNL     1      25.855 -18.701  15.449  1.00  0.00     0.140 A 
HETATM    8  N10 UNL     1      26.153 -19.014  16.712  1.00  0.00    -0.292 N 
ATOM      9  H10 UNL     1      25.399 -19.216  17.369  1.00  0.00     0.172 HD
HETATM   10  C11 UNL     1      27.452 -19.068  17.142  1.00  0.00     0.329 A 
HETATM   11  O1  UNL     1      27.727 -19.365  18.343  1.00  0.00    -0.246 OA
HETATM   12  N11 UNL     1      28.453 -18.804  16.291  1.00  0.00    -0.287 N 
HETATM   13  C12 UNL     1      29.832 -18.861  16.730  1.00  0.00     0.163 C 
ENDROOT
BRANCH   7  14
HETATM   14  N7  UNL     1      24.669 -18.655  15.051  1.00  0.00    -0.325 N 
HETATM   15  C10 UNL     1      23.568 -17.852  15.454  1.00  0.00     0.481 C 
HETATM   16  N8  UNL     1      23.727 -16.447  15.148  1.00  0.00    -0.033 N 
HETATM   17  N9  UNL     1      23.278 -17.967  16.861  1.00  0.00    -0.033 N 
ATOM     18  H83 UNL     1      24.597 -16.090  15.543  1.00  0.00     0.278 HD
ATOM     19  H82 UNL     1      23.923 -16.316  14.156  1.00  0.00     0.278 HD
ATOM     20  H81 UNL     1      22.938 -15.870  15.437  1.00  0.00     0.278 HD
ATOM     21  H93 UNL     1      23.136 -18.942  17.125  1.00  0.00     0.278 HD
ATOM     22  H92 UNL     1      24.105 -17.763  17.422  1.00  0.00     0.278 HD
ATOM     23  H91 UNL     1      22.489 -17.391  17.150  1.00  0.00     0.278 HD
ATOM     24  H7  UNL     1      24.454 -19.312  14.300  1.00  0.00     0.165 HD
ENDBRANCH   7  14
BRANCH   1  25
HETATM   25  C5  UNL     1      25.745 -17.935  12.467  1.00  0.00     0.259 C 
HETATM   26  N3  UNL     1      25.539 -18.562  11.360  1.00  0.00    -0.266 N 
HETATM   27  N2  UNL     1      24.289 -18.197  10.834  1.00  0.00    -0.103 NA
ATOM     28  H3  UNL     1      26.186 -19.224  10.932  1.00  0.00     0.186 HD
HETATM   29  C4  UNL     1      23.943 -16.945  11.471  1.00  0.00     0.273 C 
HETATM   30  O2  UNL     1      24.631 -17.120  12.722  1.00  0.00    -0.295 OA
BRANCH  29  31
HETATM   31  C3  UNL     1      24.613 -15.780  10.793  1.00  0.00     0.322 C 
BRANCH  31  32
HETATM   32  N1  UNL     1      23.713 -14.659  10.590  1.00  0.00     0.083 N 
HETATM   33  C1  UNL     1      23.433 -13.934  11.810  1.00  0.00     0.309 C 
HETATM   34  C2  UNL     1      22.445 -15.254  10.139  1.00  0.00     0.309 C 
ENDBRANCH  31  32
ENDBRANCH  29  31
ENDBRANCH   1  25
BRANCH   2  35
HETATM   35  N5  UNL     1      28.616 -17.606  11.664  1.00  0.00    -0.234 N 
ATOM     36  H52 UNL     1      28.712 -18.224  10.858  1.00  0.00     0.174 HD
ATOM     37  H51 UNL     1      28.904 -16.682  11.344  1.00  0.00     0.174 HD
ENDBRANCH   2  35
TORSDOF 5
ENDMDL
MODEL 4
REMARK VINA RESULT: -3.153865299      3.012      6.709
REMARK  5 active torsions:
REMARK  status: ('A' for Active; 'I' for Inactive)
REMARK    1  A    between atoms: N1_2  and  C3_4 
REMARK    2  A    between atoms: C3_4  and  C4_5 
REMARK    3  A    between atoms: C5_9  and  N4_10 
REMARK    4  A    between atoms: C6_11  and  N5_12 
REMARK    5  A    between atoms: C9_19  and  N7_20 
REMARK       I    between atoms: N7_20  and  C10_22 
REMARK       I    between atoms: C10_22  and  N8_23 
REMARK       I    between atoms: C10_22  and  N9_27 
ROOT
HETATM    1  N4  UNL     1      24.666 -17.812  12.466  1.00  0.00    -0.102 N 
HETATM    2  C6  UNL     1      25.211 -18.979  12.088  1.00  0.00     0.688 A 
HETATM    3  N6  UNL     1      25.356 -18.905  10.753  1.00  0.00    -0.174 N 
ATOM      4  H6  UNL     1      25.747 -19.646  10.172  1.00  0.00     0.186 HD
HETATM    5  C7  UNL     1      24.915 -17.726  10.289  1.00  0.00     0.159 A 
HETATM    6  C8  UNL     1      24.467 -17.007  11.375  1.00  0.00     0.149 A 
HETATM    7  C9  UNL     1      23.949 -15.739  11.229  1.00  0.00     0.140 A 
HETATM    8  N10 UNL     1      23.889 -15.219  10.001  1.00  0.00    -0.292 N 
ATOM      9  H10 UNL     1      23.508 -14.282   9.872  1.00  0.00     0.172 HD
HETATM   10  C11 UNL     1      24.331 -15.921   8.911  1.00  0.00     0.329 A 
HETATM   11  O1  UNL     1      24.270 -15.421   7.749  1.00  0.00    -0.246 OA
HETATM   12  N11 UNL     1      24.834 -17.154   9.065  1.00  0.00    -0.287 N 
HETATM   13  C12 UNL     1      25.308 -17.907   7.923  1.00  0.00     0.163 C 
ENDROOT
BRANCH   7  14
HETATM   14  N7  UNL     1      23.550 -15.098  12.229  1.00  0.00    -0.325 N 
HETATM   15  C10 UNL     1      22.857 -13.863  12.344  1.00  0.00     0.481 C 
HETATM   16  N8  UNL     1      21.506 -13.901  11.829  1.00  0.00    -0.033 N 
HETATM   17  N9  UNL     1      23.546 -12.774  11.700  1.00  0.00    -0.033 N 
ATOM     18  H83 UNL     1      21.500 -14.228  10.863  1.00  0.00     0.278 HD
ATOM     19  H82 UNL     1      20.976 -14.654  12.268  1.00  0.00     0.278 HD
ATOM     20  H81 UNL     1      21.009 -13.015  11.912  1.00  0.00     0.278 HD
ATOM     21  H93 UNL     1      24.502 -12.690  12.045  1.00  0.00     0.278 HD
ATOM     22  H92 UNL     1      23.742 -12.993  10.723  1.00  0.00     0.278 HD
ATOM     23  H91 UNL     1      23.048 -11.888  11.782  1.00  0.00     0.278 HD
ATOM     24  H7  UNL     1      23.761 -15.545  13.122  1.00  0.00     0.165 HD
ENDBRANCH   7  14
BRANCH   1  25
HETATM   25  C5  UNL     1      24.316 -17.403  13.796  1.00  0.00     0.259 C 
HETATM   26  N3  UNL     1      25.095 -17.541  14.813  1.00  0.00    -0.266 N 
HETATM   27  N2  UNL     1      24.464 -17.044  15.965  1.00  0.00    -0.103 NA
ATOM     28  H3  UNL     1      26.029 -17.950  14.785  1.00  0.00     0.186 HD
HETATM   29  C4  UNL     1      23.051 -17.009  15.657  1.00  0.00     0.273 C 
HETATM   30  O2  UNL     1      23.125 -16.803  14.236  1.00  0.00    -0.295 OA
BRANCH  29  31
HETATM   31  C3  UNL     1      22.415 -18.360  15.844  1.00  0.00     0.322 C 
BRANCH  31  32
HETATM   32  N1  UNL     1      21.427 -18.370  16.908  1.00  0.00     0.083 N 
HETATM   33  C1  UNL     1      20.446 -17.315  16.773  1.00  0.00     0.309 C 
HETATM   34  C2  UNL     1      22.180 -18.106  18.143  1.00  0.00     0.309 C 
ENDBRANCH  31  32
ENDBRANCH  29  31
ENDBRANCH   1  25
BRANCH   2  35
HETATM   35  N5  UNL     1      25.537 -19.977  12.861  1.00  0.00    -0.234 N 
ATOM     36  H52 UNL     1      25.824 -19.931  13.838  1.00  0.00     0.174 HD
ATOM     37  H51 UNL     1      25.554 -20.966  12.610  1.00  0.00     0.174 HD
ENDBRANCH   2  35
TORSDOF 5
ENDMDL
MODEL 5
REMARK VINA RESULT: -2.704560268      2.197      6.496
REMARK  5 active torsions:
REMARK  status: ('A' for Active; 'I' for Inactive)
REMARK    1  A    between atoms: N1_2  and  C3_4 
REMARK    2  A    between atoms: C3_4  and  C4_5 
REMARK    3  A    between atoms: C5_9  and  N4_10 
REMARK    4  A    between atoms: C6_11  and  N5_12 
REMARK    5  A    between atoms: C9_19  and  N7_20 
REMARK       I    between atoms: N7_20  and  C10_22 
REMARK       I    between atoms: C10_22  and  N8_23 
REMARK       I    between atoms: C10_22  and  N9_27 
ROOT
HETATM    1  N4  UNL     1      24.859 -18.073  11.787  1.00  0.00    -0.102 N 
HETATM    2  C6  UNL     1      25.421 -19.154  11.223  1.00  0.00     0.688 A 
HETATM    3  N6  UNL     1      25.481 -18.895   9.905  1.00  0.00    -0.174 N 
ATOM      4  H6  UNL     1      25.862 -19.532   9.206  1.00  0.00     0.186 HD
HETATM    5  C7  UNL     1      24.971 -17.684   9.632  1.00  0.00     0.159 A 
HETATM    6  C8  UNL     1      24.566 -17.138  10.830  1.00  0.00     0.149 A 
HETATM    7  C9  UNL     1      23.994 -15.885  10.887  1.00  0.00     0.140 A 
HETATM    8  N10 UNL     1      23.841 -15.208   9.747  1.00  0.00    -0.292 N 
ATOM      9  H10 UNL     1      23.420 -14.280   9.770  1.00  0.00     0.172 HD
HETATM   10  C11 UNL     1      24.240 -15.737   8.549  1.00  0.00     0.329 A 
HETATM   11  O1  UNL     1      24.091 -15.088   7.471  1.00  0.00    -0.246 OA
HETATM   12  N11 UNL     1      24.795 -16.956   8.504  1.00  0.00    -0.287 N 
HETATM   13  C12 UNL     1      25.225 -17.528   7.245  1.00  0.00     0.163 C 
ENDROOT
BRANCH   7  14
HETATM   14  N7  UNL     1      23.635 -15.403  11.986  1.00  0.00    -0.325 N 
HETATM   15  C10 UNL     1      23.033 -14.161  12.320  1.00  0.00     0.481 C 
HETATM   16  N8  UNL     1      21.687 -14.009  11.813  1.00  0.00    -0.033 N 
HETATM   17  N9  UNL     1      23.804 -13.028  11.874  1.00  0.00    -0.033 N 
ATOM     18  H83 UNL     1      21.664 -14.160  10.805  1.00  0.00     0.278 HD
ATOM     19  H82 UNL     1      21.099 -14.786  12.115  1.00  0.00     0.278 HD
ATOM     20  H81 UNL     1      21.254 -13.117  12.053  1.00  0.00     0.278 HD
ATOM     21  H93 UNL     1      24.761 -13.077  12.225  1.00  0.00     0.278 HD
ATOM     22  H92 UNL     1      23.992 -13.085  10.873  1.00  0.00     0.278 HD
ATOM     23  H91 UNL     1      23.372 -12.137  12.114  1.00  0.00     0.278 HD
ATOM     24  H7  UNL     1      23.805 -16.014  12.785  1.00  0.00     0.165 HD
ENDBRANCH   7  14
BRANCH   1  25
HETATM   25  C5  UNL     1      24.576 -17.862  13.177  1.00  0.00     0.259 C 
HETATM   26  N3  UNL     1      24.292 -16.710  13.681  1.00  0.00    -0.266 N 
HETATM   27  N2  UNL     1      24.067 -16.838  15.061  1.00  0.00    -0.103 NA
ATOM     28  H3  UNL     1      24.238 -15.838  13.156  1.00  0.00     0.186 HD
HETATM   29  C4  UNL     1      24.689 -18.086  15.448  1.00  0.00     0.273 C 
HETATM   30  O2  UNL     1      24.552 -18.810  14.213  1.00  0.00    -0.295 OA
BRANCH  29  31
HETATM   31  C3  UNL     1      26.168 -17.918  15.665  1.00  0.00     0.322 C 
BRANCH  31  32
HETATM   32  N1  UNL     1      26.898 -19.166  15.526  1.00  0.00     0.083 N 
HETATM   33  C1  UNL     1      27.381 -19.679  16.790  1.00  0.00     0.309 C 
HETATM   34  C2  UNL     1      28.078 -18.840  14.711  1.00  0.00     0.309 C 
ENDBRANCH  31  32
ENDBRANCH  29  31
ENDBRANCH   1  25
BRANCH   2  35
HETATM   35  N5  UNL     1      25.829 -20.232  11.832  1.00  0.00    -0.234 N 
ATOM     36  H52 UNL     1      26.756 -20.653  11.784  1.00  0.00     0.174 HD
ATOM     37  H51 UNL     1      25.283 -20.825  12.457  1.00  0.00     0.174 HD
ENDBRANCH   2  35
TORSDOF 5
ENDMDL
