MODEL 1
REMARK VINA RESULT: -7.188072055      0.000      0.000
REMARK  7 active torsions:
REMARK  status: ('A' for Active; 'I' for Inactive)
REMARK    1  A    between atoms: N1_1  and  C1_4 
REMARK    2  A    between atoms: C2_7  and  N3_8 
REMARK    3  A    between atoms: N3_8  and  C3_10 
REMARK    4  A    between atoms: C3_10  and  C4_11 
REMARK    5  A    between atoms: N6_17  and  N7_18 
REMARK    6  A    between atoms: C7_22  and  S1_23 
REMARK    7  A    between atoms: S1_23  and  N8_24 
ROOT
HETATM    1  C1  UNL     1      23.483 -17.295  15.093  1.00  0.00     0.679 A 
HETATM    2  N2  UNL     1      24.309 -18.197  14.542  1.00  0.00    -0.176 N 
ATOM      3  H2  UNL     1      24.636 -18.977  15.111  1.00  0.00     0.186 HD
HETATM    4  C2  UNL     1      24.730 -18.103  13.241  1.00  0.00     0.133 A 
HETATM    5  C6  UNL     1      24.298 -17.060  12.471  1.00  0.00     0.078 A 
HETATM    6  C7  UNL     1      24.676 -16.902  11.134  1.00  0.00     0.122 A 
HETATM    7  C8  UNL     1      24.124 -15.785  10.500  1.00  0.00     0.086 A 
HETATM    8  N9  UNL     1      24.491 -15.606   9.124  1.00  0.00    -0.099 NA
HETATM    9  C9  UNL     1      23.278 -14.881  11.091  1.00  0.00     0.118 A 
HETATM   10  N10 UNL     1      22.943 -15.061  12.364  1.00  0.00    -0.349 N 
ATOM     11  H10 UNL     1      22.317 -14.404  12.829  1.00  0.00     0.166 HD
HETATM   12  C10 UNL     1      23.436 -16.113  13.032  1.00  0.00     0.136 A 
HETATM   13  N11 UNL     1      23.061 -16.276  14.337  1.00  0.00    -0.176 N 
ATOM     14  H11 UNL     1      22.432 -15.589  14.752  1.00  0.00     0.186 HD
ENDROOT
BRANCH   4  15
HETATM   15  N3  UNL     1      25.501 -18.991  12.739  1.00  0.00    -0.368 N 
ATOM     16  H3  UNL     1      25.757 -18.966  11.752  1.00  0.00     0.161 HD
BRANCH  15  17
HETATM   17  C3  UNL     1      26.001 -20.034  13.612  1.00  0.00     0.201 C 
BRANCH  17  18
HETATM   18  C4  UNL     1      27.056 -19.583  14.522  1.00  0.00     0.136 A 
HETATM   19  N4  UNL     1      27.806 -18.478  14.473  1.00  0.00    -0.285 N 
HETATM   20  N5  UNL     1      28.655 -18.456  15.508  1.00  0.00    -0.293 N 
ATOM     21  H4  UNL     1      27.741 -17.758  13.753  1.00  0.00     0.188 HD
HETATM   22  C5  UNL     1      28.417 -19.586  16.217  1.00  0.00     0.224 A 
ATOM     23  H5  UNL     1      29.343 -17.733  15.720  1.00  0.00     0.187 HD
HETATM   24  N6  UNL     1      27.445 -20.275  15.621  1.00  0.00    -0.242 N 
BRANCH  24  25
HETATM   25  N7  UNL     1      26.917 -21.494  16.050  1.00  0.00    -0.336 N 
ATOM     26  H72 UNL     1      25.933 -21.760  16.040  1.00  0.00     0.177 HD
ATOM     27  H71 UNL     1      27.451 -22.277  16.428  1.00  0.00     0.177 HD
ENDBRANCH  24  25
ENDBRANCH  17  18
ENDBRANCH  15  17
ENDBRANCH   4  15
BRANCH   1  28
HETATM   28  N1  UNL     1      23.117 -17.420  16.305  1.00  0.00    -0.234 N 
ATOM     29  H12 UNL     1      23.152 -18.321  16.782  1.00  0.00     0.174 HD
ATOM     30  H11 UNL     1      22.780 -16.610  16.824  1.00  0.00     0.174 HD
ENDBRANCH   1  28
BRANCH   6  31
HETATM   31  S1  UNL     1      25.756 -17.990  10.403  1.00  0.00     0.259 S 
HETATM   32  O1  UNL     1      27.135 -18.153  10.969  1.00  0.00    -0.201 OA
HETATM   33  O2  UNL     1      26.234 -17.168   9.155  1.00  0.00    -0.201 OA
BRANCH  31  34
HETATM   34  N8  UNL     1      25.115 -19.327   9.559  1.00  0.00    -0.324 N 
ATOM     35  H82 UNL     1      24.276 -19.793   9.908  1.00  0.00     0.169 HD
ATOM     36  H81 UNL     1      25.588 -19.639   8.711  1.00  0.00     0.169 HD
ENDBRANCH  31  34
ENDBRANCH   6  31
TORSDOF 7
ENDMDL
MODEL 2
REMARK VINA RESULT: -7.148103457      0.587      1.219
REMARK  7 active torsions:
REMARK  status: ('A' for Active; 'I' for Inactive)
REMARK    1  A    between atoms: N1_1  and  C1_4 
REMARK    2  A    between atoms: C2_7  and  N3_8 
REMARK    3  A    between atoms: N3_8  and  C3_10 
REMARK    4  A    between atoms: C3_10  and  C4_11 
REMARK    5  A    between atoms: N6_17  and  N7_18 
REMARK    6  A    between atoms: C7_22  and  S1_23 
REMARK    7  A    between atoms: S1_23  and  N8_24 
ROOT
HETATM    1  C1  UNL     1      23.523 -17.288  15.092  1.00  0.00     0.679 A 
HETATM    2  N2  UNL     1      24.355 -18.164  14.510  1.00  0.00    -0.176 N 
ATOM      3  H2  UNL     1      24.711 -18.945  15.060  1.00  0.00     0.186 HD
HETATM    4  C2  UNL     1      24.742 -18.046  13.201  1.00  0.00     0.133 A 
HETATM    5  C6  UNL     1      24.271 -17.002  12.455  1.00  0.00     0.078 A 
HETATM    6  C7  UNL     1      24.614 -16.820  11.111  1.00  0.00     0.122 A 
HETATM    7  C8  UNL     1      24.024 -15.707  10.505  1.00  0.00     0.086 A 
HETATM    8  N9  UNL     1      24.355 -15.503   9.123  1.00  0.00    -0.099 NA
HETATM    9  C9  UNL     1      23.174 -14.828  11.127  1.00  0.00     0.118 A 
HETATM   10  N10 UNL     1      22.873 -15.031  12.405  1.00  0.00    -0.349 N 
ATOM     11  H10 UNL     1      22.244 -14.394  12.893  1.00  0.00     0.166 HD
HETATM   12  C10 UNL     1      23.403 -16.081  13.048  1.00  0.00     0.136 A 
HETATM   13  N11 UNL     1      23.062 -16.268  14.359  1.00  0.00    -0.176 N 
ATOM     14  H11 UNL     1      22.429 -15.600  14.797  1.00  0.00     0.186 HD
ENDROOT
BRANCH   4  15
HETATM   15  N3  UNL     1      25.520 -18.911  12.668  1.00  0.00    -0.368 N 
ATOM     16  H3  UNL     1      25.745 -18.874  11.674  1.00  0.00     0.161 HD
BRANCH  15  17
HETATM   17  C3  UNL     1      26.073 -19.945  13.519  1.00  0.00     0.201 C 
BRANCH  17  18
HETATM   18  C4  UNL     1      26.810 -19.426  14.673  1.00  0.00     0.136 A 
HETATM   19  N4  UNL     1      26.642 -19.682  15.974  1.00  0.00    -0.285 N 
HETATM   20  N5  UNL     1      27.535 -18.993  16.695  1.00  0.00    -0.293 N 
ATOM     21  H4  UNL     1      25.937 -20.310  16.361  1.00  0.00     0.188 HD
HETATM   22  C5  UNL     1      28.277 -18.290  15.805  1.00  0.00     0.224 A 
ATOM     23  H5  UNL     1      27.636 -18.996  17.710  1.00  0.00     0.187 HD
HETATM   24  N6  UNL     1      27.839 -18.550  14.574  1.00  0.00    -0.242 N 
BRANCH  24  25
HETATM   25  N7  UNL     1      28.349 -18.018  13.388  1.00  0.00    -0.336 N 
ATOM     26  H72 UNL     1      28.260 -17.052  13.075  1.00  0.00     0.177 HD
ATOM     27  H71 UNL     1      28.879 -18.530  12.682  1.00  0.00     0.177 HD
ENDBRANCH  24  25
ENDBRANCH  17  18
ENDBRANCH  15  17
ENDBRANCH   4  15
BRANCH   1  28
HETATM   28  N1  UNL     1      23.189 -17.436  16.310  1.00  0.00    -0.234 N 
ATOM     29  H12 UNL     1      22.404 -18.028  16.579  1.00  0.00     0.174 HD
ATOM     30  H11 UNL     1      23.708 -16.957  17.045  1.00  0.00     0.174 HD
ENDBRANCH   1  28
BRANCH   6  31
HETATM   31  S1  UNL     1      25.699 -17.875  10.341  1.00  0.00     0.259 S 
HETATM   32  O1  UNL     1      27.085 -18.037  10.889  1.00  0.00    -0.201 OA
HETATM   33  O2  UNL     1      26.155 -17.015   9.110  1.00  0.00    -0.201 OA
BRANCH  31  34
HETATM   34  N8  UNL     1      25.064 -19.197   9.468  1.00  0.00    -0.324 N 
ATOM     35  H82 UNL     1      24.391 -19.822   9.912  1.00  0.00     0.169 HD
ATOM     36  H81 UNL     1      25.375 -19.338   8.507  1.00  0.00     0.169 HD
ENDBRANCH  31  34
ENDBRANCH   6  31
TORSDOF 7
ENDMDL
MODEL 3
REMARK VINA RESULT: -6.815882169      2.220      4.025
REMARK  7 active torsions:
REMARK  status: ('A' for Active; 'I' for Inactive)
REMARK    1  A    between atoms: N1_1  and  C1_4 
REMARK    2  A    between atoms: C2_7  and  N3_8 
REMARK    3  A    between atoms: N3_8  and  C3_10 
REMARK    4  A    between atoms: C3_10  and  C4_11 
REMARK    5  A    between atoms: N6_17  and  N7_18 
REMARK    6  A    between atoms: C7_22  and  S1_23 
REMARK    7  A    between atoms: S1_23  and  N8_24 
ROOT
HETATM    1  C1  UNL     1      25.567 -18.170   8.787  1.00  0.00     0.679 A 
HETATM    2  N2  UNL     1      25.791 -18.618  10.032  1.00  0.00    -0.176 N 
ATOM      3  H2  UNL     1      26.387 -19.435  10.161  1.00  0.00     0.186 HD
HETATM    4  C2  UNL     1      25.245 -18.015  11.134  1.00  0.00     0.133 A 
HETATM    5  C6  UNL     1      24.443 -16.920  10.971  1.00  0.00     0.078 A 
HETATM    6  C7  UNL     1      23.858 -16.246  12.048  1.00  0.00     0.122 A 
HETATM    7  C8  UNL     1      23.083 -15.139  11.690  1.00  0.00     0.086 A 
HETATM    8  N9  UNL     1      22.478 -14.425  12.779  1.00  0.00    -0.099 NA
HETATM    9  C9  UNL     1      22.874 -14.704  10.406  1.00  0.00     0.118 A 
HETATM   10  N10 UNL     1      23.443 -15.371   9.408  1.00  0.00    -0.349 N 
ATOM     11  H10 UNL     1      23.305 -15.070   8.444  1.00  0.00     0.166 HD
HETATM   12  C10 UNL     1      24.202 -16.442   9.680  1.00  0.00     0.136 A 
HETATM   13  N11 UNL     1      24.783 -17.098   8.631  1.00  0.00    -0.176 N 
ATOM     14  H11 UNL     1      24.611 -16.754   7.686  1.00  0.00     0.186 HD
ENDROOT
BRANCH   4  15
HETATM   15  N3  UNL     1      25.495 -18.453  12.310  1.00  0.00    -0.368 N 
ATOM     16  H3  UNL     1      24.748 -18.802  12.910  1.00  0.00     0.161 HD
BRANCH  15  17
HETATM   17  C3  UNL     1      26.871 -18.438  12.764  1.00  0.00     0.201 C 
BRANCH  17  18
HETATM   18  C4  UNL     1      27.043 -18.924  14.135  1.00  0.00     0.136 A 
HETATM   19  N4  UNL     1      26.167 -19.540  14.935  1.00  0.00    -0.285 N 
HETATM   20  N5  UNL     1      26.738 -19.813  16.114  1.00  0.00    -0.293 N 
ATOM     21  H4  UNL     1      25.205 -19.768  14.683  1.00  0.00     0.188 HD
HETATM   22  C5  UNL     1      28.009 -19.350  16.035  1.00  0.00     0.224 A 
ATOM     23  H5  UNL     1      26.304 -20.278  16.912  1.00  0.00     0.187 HD
HETATM   24  N6  UNL     1      28.199 -18.807  14.833  1.00  0.00    -0.242 N 
BRANCH  24  25
HETATM   25  N7  UNL     1      29.379 -18.223  14.370  1.00  0.00    -0.336 N 
ATOM     26  H72 UNL     1      29.452 -17.495  13.659  1.00  0.00     0.177 HD
ATOM     27  H71 UNL     1      30.323 -18.450  14.685  1.00  0.00     0.177 HD
ENDBRANCH  24  25
ENDBRANCH  17  18
ENDBRANCH  15  17
ENDBRANCH   4  15
BRANCH   1  28
HETATM   28  N1  UNL     1      26.094 -18.760   7.791  1.00  0.00    -0.234 N 
ATOM     29  H12 UNL     1      25.650 -19.567   7.354  1.00  0.00     0.174 HD
ATOM     30  H11 UNL     1      26.980 -18.430   7.410  1.00  0.00     0.174 HD
ENDBRANCH   1  28
BRANCH   6  31
HETATM   31  S1  UNL     1      24.073 -16.800  13.639  1.00  0.00     0.259 S 
HETATM   32  O1  UNL     1      23.669 -18.199  13.994  1.00  0.00    -0.201 OA
HETATM   33  O2  UNL     1      22.857 -16.132  14.371  1.00  0.00    -0.201 OA
BRANCH  31  34
HETATM   34  N8  UNL     1      25.313 -16.101  14.580  1.00  0.00    -0.324 N 
ATOM     35  H82 UNL     1      26.202 -15.853  14.146  1.00  0.00     0.169 HD
ATOM     36  H81 UNL     1      25.138 -15.942  15.573  1.00  0.00     0.169 HD
ENDBRANCH  31  34
ENDBRANCH   6  31
TORSDOF 7
ENDMDL
MODEL 4
REMARK VINA RESULT: -6.482761461      1.534      2.775
REMARK  7 active torsions:
REMARK  status: ('A' for Active; 'I' for Inactive)
REMARK    1  A    between atoms: N1_1  and  C1_4 
REMARK    2  A    between atoms: C2_7  and  N3_8 
REMARK    3  A    between atoms: N3_8  and  C3_10 
REMARK    4  A    between atoms: C3_10  and  C4_11 
REMARK    5  A    between atoms: N6_17  and  N7_18 
REMARK    6  A    between atoms: C7_22  and  S1_23 
REMARK    7  A    between atoms: S1_23  and  N8_24 
ROOT
HETATM    1  C1  UNL     1      22.594 -14.513  12.382  1.00  0.00     0.679 A 
HETATM    2  N2  UNL     1      23.337 -15.459  12.977  1.00  0.00    -0.176 N 
ATOM      3  H2  UNL     1      23.336 -15.516  13.995  1.00  0.00     0.186 HD
HETATM    4  C2  UNL     1      24.095 -16.349  12.263  1.00  0.00     0.133 A 
HETATM    5  C6  UNL     1      24.103 -16.279  10.898  1.00  0.00     0.078 A 
HETATM    6  C7  UNL     1      24.845 -17.158  10.102  1.00  0.00     0.122 A 
HETATM    7  C8  UNL     1      24.718 -16.945   8.726  1.00  0.00     0.086 A 
HETATM    8  N9  UNL     1      25.464 -17.841   7.887  1.00  0.00    -0.099 NA
HETATM    9  C9  UNL     1      23.948 -15.969   8.147  1.00  0.00     0.118 A 
HETATM   10  N10 UNL     1      23.259 -15.151   8.934  1.00  0.00    -0.349 N 
ATOM     11  H10 UNL     1      22.679 -14.416   8.531  1.00  0.00     0.166 HD
HETATM   12  C10 UNL     1      23.334 -15.299  10.265  1.00  0.00     0.136 A 
HETATM   13  N11 UNL     1      22.603 -14.448  11.046  1.00  0.00    -0.176 N 
ATOM     14  H11 UNL     1      22.040 -13.731  10.589  1.00  0.00     0.186 HD
ENDROOT
BRANCH   4  15
HETATM   15  N3  UNL     1      24.776 -17.253  12.860  1.00  0.00    -0.368 N 
ATOM     16  H3  UNL     1      24.690 -18.234  12.596  1.00  0.00     0.161 HD
BRANCH  15  17
HETATM   17  C3  UNL     1      25.671 -16.843  13.922  1.00  0.00     0.201 C 
BRANCH  17  18
HETATM   18  C4  UNL     1      26.254 -17.962  14.665  1.00  0.00     0.136 A 
HETATM   19  N4  UNL     1      25.698 -18.752  15.588  1.00  0.00    -0.285 N 
HETATM   20  N5  UNL     1      26.588 -19.655  16.016  1.00  0.00    -0.293 N 
ATOM     21  H4  UNL     1      24.735 -18.677  15.919  1.00  0.00     0.188 HD
HETATM   22  C5  UNL     1      27.731 -19.411  15.330  1.00  0.00     0.224 A 
ATOM     23  H5  UNL     1      26.437 -20.381  16.716  1.00  0.00     0.187 HD
HETATM   24  N6  UNL     1      27.534 -18.382  14.508  1.00  0.00    -0.242 N 
BRANCH  24  25
HETATM   25  N7  UNL     1      28.474 -17.832  13.635  1.00  0.00    -0.336 N 
ATOM     26  H72 UNL     1      28.527 -17.990  12.629  1.00  0.00     0.177 HD
ATOM     27  H71 UNL     1      29.231 -17.198  13.894  1.00  0.00     0.177 HD
ENDBRANCH  24  25
ENDBRANCH  17  18
ENDBRANCH  15  17
ENDBRANCH   4  15
BRANCH   1  28
HETATM   28  N1  UNL     1      21.904 -13.707  13.082  1.00  0.00    -0.234 N 
ATOM     29  H12 UNL     1      21.595 -13.948  14.024  1.00  0.00     0.174 HD
ATOM     30  H11 UNL     1      21.647 -12.794  12.708  1.00  0.00     0.174 HD
ENDBRANCH   1  28
BRANCH   6  31
HETATM   31  S1  UNL     1      25.836 -18.342  10.808  1.00  0.00     0.259 S 
HETATM   32  O1  UNL     1      27.266 -18.017  11.121  1.00  0.00    -0.201 OA
HETATM   33  O2  UNL     1      26.185 -19.240   9.570  1.00  0.00    -0.201 OA
BRANCH  31  34
HETATM   34  N8  UNL     1      25.102 -19.552  11.762  1.00  0.00    -0.324 N 
ATOM     35  H82 UNL     1      24.302 -19.318  12.352  1.00  0.00     0.169 HD
ATOM     36  H81 UNL     1      25.481 -20.498  11.723  1.00  0.00     0.169 HD
ENDBRANCH  31  34
ENDBRANCH   6  31
TORSDOF 7
ENDMDL
MODEL 5
REMARK VINA RESULT: -6.216142181      0.673      1.310
REMARK  7 active torsions:
REMARK  status: ('A' for Active; 'I' for Inactive)
REMARK    1  A    between atoms: N1_1  and  C1_4 
REMARK    2  A    between atoms: C2_7  and  N3_8 
REMARK    3  A    between atoms: N3_8  and  C3_10 
REMARK    4  A    between atoms: C3_10  and  C4_11 
REMARK    5  A    between atoms: N6_17  and  N7_18 
REMARK    6  A    between atoms: C7_22  and  S1_23 
REMARK    7  A    between atoms: S1_23  and  N8_24 
ROOT
HETATM    1  C1  UNL     1      23.471 -17.335  15.323  1.00  0.00     0.679 A 
HETATM    2  N2  UNL     1      24.348 -18.183  14.766  1.00  0.00    -0.176 N 
ATOM      3  H2  UNL     1      24.709 -18.957  15.325  1.00  0.00     0.186 HD
HETATM    4  C2  UNL     1      24.776 -18.046  13.471  1.00  0.00     0.133 A 
HETATM    5  C6  UNL     1      24.299 -17.013  12.714  1.00  0.00     0.078 A 
HETATM    6  C7  UNL     1      24.682 -16.813  11.384  1.00  0.00     0.122 A 
HETATM    7  C8  UNL     1      24.080 -15.714  10.764  1.00  0.00     0.086 A 
HETATM    8  N9  UNL     1      24.451 -15.493   9.394  1.00  0.00    -0.099 NA
HETATM    9  C9  UNL     1      23.184 -14.865  11.361  1.00  0.00     0.118 A 
HETATM   10  N10 UNL     1      22.846 -15.083  12.627  1.00  0.00    -0.349 N 
ATOM     11  H10 UNL     1      22.183 -14.467  13.096  1.00  0.00     0.166 HD
HETATM   12  C10 UNL     1      23.385 -16.121  13.282  1.00  0.00     0.136 A 
HETATM   13  N11 UNL     1      23.006 -16.325  14.580  1.00  0.00    -0.176 N 
ATOM     14  H11 UNL     1      22.339 -15.678  15.000  1.00  0.00     0.186 HD
ENDROOT
BRANCH   4  15
HETATM   15  N3  UNL     1      25.596 -18.885  12.962  1.00  0.00    -0.368 N 
ATOM     16  H3  UNL     1      25.338 -19.444  12.148  1.00  0.00     0.161 HD
BRANCH  15  17
HETATM   17  C3  UNL     1      26.902 -19.019  13.574  1.00  0.00     0.201 C 
BRANCH  17  18
HETATM   18  C4  UNL     1      26.931 -19.955  14.700  1.00  0.00     0.136 A 
HETATM   19  N4  UNL     1      26.468 -21.207  14.778  1.00  0.00    -0.285 N 
HETATM   20  N5  UNL     1      26.700 -21.705  15.998  1.00  0.00    -0.293 N 
ATOM     21  H4  UNL     1      26.006 -21.708  14.018  1.00  0.00     0.188 HD
HETATM   22  C5  UNL     1      27.328 -20.726  16.693  1.00  0.00     0.224 A 
ATOM     23  H5  UNL     1      26.454 -22.635  16.336  1.00  0.00     0.187 HD
HETATM   24  N6  UNL     1      27.470 -19.659  15.908  1.00  0.00    -0.242 N 
BRANCH  24  25
HETATM   25  N7  UNL     1      28.069 -18.449  16.262  1.00  0.00    -0.336 N 
ATOM     26  H72 UNL     1      28.604 -18.268  17.111  1.00  0.00     0.177 HD
ATOM     27  H71 UNL     1      28.050 -17.589  15.714  1.00  0.00     0.177 HD
ENDBRANCH  24  25
ENDBRANCH  17  18
ENDBRANCH  15  17
ENDBRANCH   4  15
BRANCH   1  28
HETATM   28  N1  UNL     1      23.101 -17.499  16.529  1.00  0.00    -0.234 N 
ATOM     29  H12 UNL     1      22.137 -17.337  16.817  1.00  0.00     0.174 HD
ATOM     30  H11 UNL     1      23.773 -17.799  17.235  1.00  0.00     0.174 HD
ENDBRANCH   1  28
BRANCH   6  31
HETATM   31  S1  UNL     1      25.823 -17.832  10.647  1.00  0.00     0.259 S 
HETATM   32  O1  UNL     1      27.253 -17.783  11.093  1.00  0.00    -0.201 OA
HETATM   33  O2  UNL     1      26.091 -17.079   9.296  1.00  0.00    -0.201 OA
BRANCH  31  34
HETATM   34  N8  UNL     1      25.282 -19.306   9.978  1.00  0.00    -0.324 N 
ATOM     35  H82 UNL     1      25.505 -19.536   9.009  1.00  0.00     0.169 HD
ATOM     36  H81 UNL     1      24.740 -19.936  10.568  1.00  0.00     0.169 HD
ENDBRANCH  31  34
ENDBRANCH   6  31
TORSDOF 7
ENDMDL
