MODEL 1
REMARK VINA RESULT: -9.062571549      0.000      0.000
REMARK  7 active torsions:
REMARK  status: ('A' for Active; 'I' for Inactive)
REMARK    1  A    between atoms: C2_7  and  S1_8 
REMARK    2  A    between atoms: S1_8  and  C3_9 
REMARK    3  A    between atoms: C3_9  and  C4_10 
REMARK    4  A    between atoms: C6_14  and  S2_15 
REMARK    5  A    between atoms: S2_15  and  N4_16 
REMARK    6  A    between atoms: C7_23  and  N6_24 
REMARK    7  A    between atoms: N7_27  and  O3_28 
ROOT
HETATM    1  C4  UNL     1      24.685 -17.738  11.648  1.00  0.00     0.011 A 
HETATM    2  C5  UNL     1      25.387 -18.463  10.704  1.00  0.00     0.102 A 
HETATM    3  N3  UNL     1      25.507 -17.984   9.449  1.00  0.00    -0.341 N 
ATOM      4  H3  UNL     1      26.030 -18.535   8.768  1.00  0.00     0.167 HD
HETATM    5  C6  UNL     1      24.971 -16.815   9.051  1.00  0.00     0.225 A 
HETATM    6  N5  UNL     1      24.281 -16.106   9.983  1.00  0.00    -0.318 N 
ATOM      7  H5  UNL     1      23.861 -15.216   9.716  1.00  0.00     0.169 HD
HETATM    8  C7  UNL     1      24.135 -16.543  11.246  1.00  0.00     0.109 A 
ENDROOT
BRANCH   1   9
HETATM    9  C3  UNL     1      24.536 -18.246  13.048  1.00  0.00     0.126 C 
BRANCH   9  10
HETATM   10  S1  UNL     1      25.374 -17.214  14.235  1.00  0.00    -0.086 SA
BRANCH  10  11
HETATM   11  C2  UNL     1      26.681 -18.145  15.006  1.00  0.00     0.189 A 
HETATM   12  N2  UNL     1      26.396 -18.860  16.107  1.00  0.00    -0.168 N 
HETATM   13  C1  UNL     1      27.354 -19.563  16.701  1.00  0.00     0.680 A 
ATOM     14  H2  UNL     1      25.449 -18.862  16.485  1.00  0.00     0.186 HD
HETATM   15  N1  UNL     1      27.114 -20.257  17.755  1.00  0.00    -0.234 N 
HETATM   16  N9  UNL     1      28.593 -19.551  16.193  1.00  0.00    -0.161 N 
ATOM     17  H12 UNL     1      26.170 -20.265  18.142  1.00  0.00     0.174 HD
ATOM     18  H11 UNL     1      27.849 -20.797  18.210  1.00  0.00     0.174 HD
HETATM   19  C8  UNL     1      28.883 -18.827  15.078  1.00  0.00     0.235 A 
ATOM     20  H9  UNL     1      29.329 -20.092  16.648  1.00  0.00     0.187 HD
HETATM   21  N7  UNL     1      27.923 -18.120  14.479  1.00  0.00    -0.170 N 
HETATM   22  N8  UNL     1      30.200 -18.815  14.539  1.00  0.00    -0.060 NA
BRANCH  21  23
HETATM   23  O3  UNL     1      28.139 -17.359  13.342  1.00  0.00    -0.278 OA
ATOM     24  H3  UNL     1      28.932 -17.511  12.842  1.00  0.00     0.245 HD
ENDBRANCH  21  23
ENDBRANCH  10  11
ENDBRANCH   9  10
ENDBRANCH   1   9
BRANCH   8  25
HETATM   25  N6  UNL     1      23.479 -15.863  12.120  1.00  0.00    -0.385 N 
ATOM     26  H62 UNL     1      23.600 -16.024  13.121  1.00  0.00     0.157 HD
ATOM     27  H61 UNL     1      22.829 -15.154  11.779  1.00  0.00     0.157 HD
ENDBRANCH   8  25
BRANCH   5  28
HETATM   28  S2  UNL     1      25.140 -16.211   7.414  1.00  0.00     0.289 S 
HETATM   29  O1  UNL     1      24.407 -17.092   6.430  1.00  0.00    -0.198 OA
HETATM   30  O2  UNL     1      24.533 -14.836   7.280  1.00  0.00    -0.198 OA
BRANCH  28  31
HETATM   31  N4  UNL     1      26.807 -16.080   7.039  1.00  0.00    -0.322 N 
ATOM     32  H42 UNL     1      27.414 -15.320   7.347  1.00  0.00     0.169 HD
ATOM     33  H41 UNL     1      27.081 -16.879   6.467  1.00  0.00     0.169 HD
ENDBRANCH  28  31
ENDBRANCH   5  28
TORSDOF 7
ENDMDL
MODEL 2
REMARK VINA RESULT: -8.774830157      2.345      7.641
REMARK  7 active torsions:
REMARK  status: ('A' for Active; 'I' for Inactive)
REMARK    1  A    between atoms: C2_7  and  S1_8 
REMARK    2  A    between atoms: S1_8  and  C3_9 
REMARK    3  A    between atoms: C3_9  and  C4_10 
REMARK    4  A    between atoms: C6_14  and  S2_15 
REMARK    5  A    between atoms: S2_15  and  N4_16 
REMARK    6  A    between atoms: C7_23  and  N6_24 
REMARK    7  A    between atoms: N7_27  and  O3_28 
ROOT
HETATM    1  C4  UNL     1      25.392 -17.268  13.587  1.00  0.00     0.011 A 
HETATM    2  C5  UNL     1      26.666 -17.726  13.311  1.00  0.00     0.102 A 
HETATM    3  N3  UNL     1      27.317 -18.477  14.222  1.00  0.00    -0.341 N 
ATOM      4  H3  UNL     1      28.257 -18.805  13.998  1.00  0.00     0.167 HD
HETATM    5  C6  UNL     1      26.788 -18.815  15.413  1.00  0.00     0.225 A 
HETATM    6  N5  UNL     1      25.535 -18.363  15.680  1.00  0.00    -0.318 N 
ATOM      7  H5  UNL     1      25.104 -18.600  16.573  1.00  0.00     0.169 HD
HETATM    8  C7  UNL     1      24.847 -17.611  14.803  1.00  0.00     0.109 A 
ENDROOT
BRANCH   1   9
HETATM    9  C3  UNL     1      24.646 -16.433  12.594  1.00  0.00     0.126 C 
BRANCH   9  10
HETATM   10  S1  UNL     1      23.700 -17.423  11.452  1.00  0.00    -0.086 SA
BRANCH  10  11
HETATM   11  C2  UNL     1      24.386 -17.255   9.818  1.00  0.00     0.189 A 
HETATM   12  N2  UNL     1      25.144 -18.253   9.334  1.00  0.00    -0.168 N 
HETATM   13  C1  UNL     1      25.668 -18.151   8.118  1.00  0.00     0.680 A 
ATOM     14  H2  UNL     1      25.316 -19.085   9.898  1.00  0.00     0.186 HD
HETATM   15  N1  UNL     1      26.396 -19.087   7.626  1.00  0.00    -0.234 N 
HETATM   16  N9  UNL     1      25.433 -17.053   7.388  1.00  0.00    -0.161 N 
ATOM     17  H12 UNL     1      26.575 -19.923   8.183  1.00  0.00     0.174 HD
ATOM     18  H11 UNL     1      26.798 -19.009   6.692  1.00  0.00     0.174 HD
HETATM   19  C8  UNL     1      24.666 -16.041   7.877  1.00  0.00     0.235 A 
ATOM     20  H9  UNL     1      25.833 -16.974   6.453  1.00  0.00     0.187 HD
HETATM   21  N7  UNL     1      24.138 -16.140   9.099  1.00  0.00    -0.170 N 
HETATM   22  N8  UNL     1      24.416 -14.874   7.101  1.00  0.00    -0.060 NA
BRANCH  21  23
HETATM   23  O3  UNL     1      23.348 -15.155   9.665  1.00  0.00    -0.278 OA
ATOM     24  H3  UNL     1      23.676 -14.263   9.674  1.00  0.00     0.245 HD
ENDBRANCH  21  23
ENDBRANCH  10  11
ENDBRANCH   9  10
ENDBRANCH   1   9
BRANCH   8  25
HETATM   25  N6  UNL     1      23.660 -17.188  15.067  1.00  0.00    -0.385 N 
ATOM     26  H62 UNL     1      23.482 -16.209  15.292  1.00  0.00     0.157 HD
ATOM     27  H61 UNL     1      22.899 -17.866  15.044  1.00  0.00     0.157 HD
ENDBRANCH   8  25
BRANCH   5  28
HETATM   28  S2  UNL     1      27.653 -19.794  16.583  1.00  0.00     0.289 S 
HETATM   29  O1  UNL     1      27.791 -21.219  16.104  1.00  0.00    -0.198 OA
HETATM   30  O2  UNL     1      29.057 -19.279  16.786  1.00  0.00    -0.198 OA
BRANCH  28  31
HETATM   31  N4  UNL     1      26.844 -19.700  18.091  1.00  0.00    -0.322 N 
ATOM     32  H42 UNL     1      26.171 -18.978  18.345  1.00  0.00     0.169 HD
ATOM     33  H41 UNL     1      27.147 -20.478  18.678  1.00  0.00     0.169 HD
ENDBRANCH  28  31
ENDBRANCH   5  28
TORSDOF 7
ENDMDL
MODEL 3
REMARK VINA RESULT: -8.288306445      0.620      1.380
REMARK  7 active torsions:
REMARK  status: ('A' for Active; 'I' for Inactive)
REMARK    1  A    between atoms: C2_7  and  S1_8 
REMARK    2  A    between atoms: S1_8  and  C3_9 
REMARK    3  A    between atoms: C3_9  and  C4_10 
REMARK    4  A    between atoms: C6_14  and  S2_15 
REMARK    5  A    between atoms: S2_15  and  N4_16 
REMARK    6  A    between atoms: C7_23  and  N6_24 
REMARK    7  A    between atoms: N7_27  and  O3_28 
ROOT
HETATM    1  C4  UNL     1      24.364 -17.626  11.595  1.00  0.00     0.011 A 
HETATM    2  C5  UNL     1      23.618 -16.587  11.071  1.00  0.00     0.102 A 
HETATM    3  N3  UNL     1      23.847 -16.171   9.809  1.00  0.00    -0.341 N 
ATOM      4  H3  UNL     1      23.285 -15.403   9.443  1.00  0.00     0.167 HD
HETATM    5  C6  UNL     1      24.781 -16.718   9.010  1.00  0.00     0.225 A 
HETATM    6  N5  UNL     1      25.513 -17.739   9.529  1.00  0.00    -0.318 N 
ATOM      7  H5  UNL     1      26.230 -18.177   8.951  1.00  0.00     0.169 HD
HETATM    8  C7  UNL     1      25.321 -18.189  10.781  1.00  0.00     0.109 A 
ENDROOT
BRANCH   1   9
HETATM    9  C3  UNL     1      24.131 -18.108  12.992  1.00  0.00     0.126 C 
BRANCH   9  10
HETATM   10  S1  UNL     1      24.953 -17.091  14.204  1.00  0.00    -0.086 SA
BRANCH  10  11
HETATM   11  C2  UNL     1      26.323 -17.991  14.897  1.00  0.00     0.189 A 
HETATM   12  N2  UNL     1      26.118 -18.718  16.008  1.00  0.00    -0.168 N 
HETATM   13  C1  UNL     1      27.125 -19.399  16.544  1.00  0.00     0.680 A 
ATOM     14  H2  UNL     1      25.193 -18.747  16.437  1.00  0.00     0.186 HD
HETATM   15  N1  UNL     1      26.961 -20.103  17.605  1.00  0.00    -0.234 N 
HETATM   16  N9  UNL     1      28.333 -19.353  15.969  1.00  0.00    -0.161 N 
ATOM     17  H12 UNL     1      26.041 -20.138  18.043  1.00  0.00     0.174 HD
ATOM     18  H11 UNL     1      27.734 -20.626  18.017  1.00  0.00     0.174 HD
HETATM   19  C8  UNL     1      28.543 -18.616  14.844  1.00  0.00     0.235 A 
ATOM     20  H9  UNL     1      29.106 -19.876  16.379  1.00  0.00     0.187 HD
HETATM   21  N7  UNL     1      27.534 -17.931  14.302  1.00  0.00    -0.170 N 
HETATM   22  N8  UNL     1      29.828 -18.567  14.233  1.00  0.00    -0.060 NA
BRANCH  21  23
HETATM   23  O3  UNL     1      27.667 -17.160  13.160  1.00  0.00    -0.278 OA
ATOM     24  H3  UNL     1      27.525 -16.224  13.230  1.00  0.00     0.245 HD
ENDBRANCH  21  23
ENDBRANCH  10  11
ENDBRANCH   9  10
ENDBRANCH   1   9
BRANCH   8  25
HETATM   25  N6  UNL     1      26.020 -19.156  11.263  1.00  0.00    -0.385 N 
ATOM     26  H62 UNL     1      26.652 -19.016  12.051  1.00  0.00     0.157 HD
ATOM     27  H61 UNL     1      25.921 -20.074  10.828  1.00  0.00     0.157 HD
ENDBRANCH   8  25
BRANCH   5  28
HETATM   28  S2  UNL     1      25.062 -16.161   7.371  1.00  0.00     0.289 S 
HETATM   29  O1  UNL     1      24.368 -17.052   6.368  1.00  0.00    -0.198 OA
HETATM   30  O2  UNL     1      24.498 -14.777   7.167  1.00  0.00    -0.198 OA
BRANCH  28  31
HETATM   31  N4  UNL     1      26.751 -16.080   7.094  1.00  0.00    -0.322 N 
ATOM     32  H42 UNL     1      27.421 -16.798   7.369  1.00  0.00     0.169 HD
ATOM     33  H41 UNL     1      26.966 -15.204   6.615  1.00  0.00     0.169 HD
ENDBRANCH  28  31
ENDBRANCH   5  28
TORSDOF 7
ENDMDL
MODEL 4
REMARK VINA RESULT: -8.173697124      1.240      1.290
REMARK  7 active torsions:
REMARK  status: ('A' for Active; 'I' for Inactive)
REMARK    1  A    between atoms: C2_7  and  S1_8 
REMARK    2  A    between atoms: S1_8  and  C3_9 
REMARK    3  A    between atoms: C3_9  and  C4_10 
REMARK    4  A    between atoms: C6_14  and  S2_15 
REMARK    5  A    between atoms: S2_15  and  N4_16 
REMARK    6  A    between atoms: C7_23  and  N6_24 
REMARK    7  A    between atoms: N7_27  and  O3_28 
ROOT
HETATM    1  C4  UNL     1      24.498 -17.644  11.751  1.00  0.00     0.011 A 
HETATM    2  C5  UNL     1      25.167 -18.428  10.831  1.00  0.00     0.102 A 
HETATM    3  N3  UNL     1      25.337 -17.981   9.571  1.00  0.00    -0.341 N 
ATOM      4  H3  UNL     1      25.834 -18.576   8.908  1.00  0.00     0.167 HD
HETATM    5  C6  UNL     1      24.884 -16.788   9.144  1.00  0.00     0.225 A 
HETATM    6  N5  UNL     1      24.226 -16.019  10.051  1.00  0.00    -0.318 N 
ATOM      7  H5  UNL     1      23.869 -15.109   9.762  1.00  0.00     0.169 HD
HETATM    8  C7  UNL     1      24.032 -16.423  11.319  1.00  0.00     0.109 A 
ENDROOT
BRANCH   1   9
HETATM    9  C3  UNL     1      24.294 -18.116  13.157  1.00  0.00     0.126 C 
BRANCH   9  10
HETATM   10  S1  UNL     1      25.546 -17.499  14.265  1.00  0.00    -0.086 SA
BRANCH  10  11
HETATM   11  C2  UNL     1      26.544 -18.856  14.840  1.00  0.00     0.189 A 
HETATM   12  N2  UNL     1      26.076 -20.106  14.690  1.00  0.00    -0.168 N 
HETATM   13  C1  UNL     1      26.801 -21.136  15.111  1.00  0.00     0.680 A 
ATOM     14  H2  UNL     1      25.167 -20.263  14.254  1.00  0.00     0.186 HD
HETATM   15  N1  UNL     1      26.382 -22.342  14.982  1.00  0.00    -0.234 N 
HETATM   16  N9  UNL     1      27.993 -20.914  15.681  1.00  0.00    -0.161 N 
ATOM     17  H12 UNL     1      25.474 -22.511  14.548  1.00  0.00     0.174 HD
ATOM     18  H11 UNL     1      26.940 -23.133  15.305  1.00  0.00     0.174 HD
HETATM   19  C8  UNL     1      28.468 -19.648  15.834  1.00  0.00     0.235 A 
ATOM     20  H9  UNL     1      28.552 -21.704  16.003  1.00  0.00     0.187 HD
HETATM   21  N7  UNL     1      27.742 -18.611  15.412  1.00  0.00    -0.170 N 
HETATM   22  N8  UNL     1      29.735 -19.413  16.440  1.00  0.00    -0.060 NA
BRANCH  21  23
HETATM   23  O3  UNL     1      28.156 -17.296  15.532  1.00  0.00    -0.278 OA
ATOM     24  H3  UNL     1      29.074 -17.098  15.389  1.00  0.00     0.245 HD
ENDBRANCH  21  23
ENDBRANCH  10  11
ENDBRANCH   9  10
ENDBRANCH   1   9
BRANCH   8  25
HETATM   25  N6  UNL     1      23.407 -15.687  12.171  1.00  0.00    -0.385 N 
ATOM     26  H62 UNL     1      22.591 -16.033  12.676  1.00  0.00     0.157 HD
ATOM     27  H61 UNL     1      23.756 -14.741  12.324  1.00  0.00     0.157 HD
ENDBRANCH   8  25
BRANCH   5  28
HETATM   28  S2  UNL     1      25.117 -16.225   7.499  1.00  0.00     0.289 S 
HETATM   29  O1  UNL     1      24.424 -17.132   6.510  1.00  0.00    -0.198 OA
HETATM   30  O2  UNL     1      24.516 -14.855   7.307  1.00  0.00    -0.198 OA
BRANCH  28  31
HETATM   31  N4  UNL     1      26.798 -16.103   7.188  1.00  0.00    -0.322 N 
ATOM     32  H42 UNL     1      27.267 -15.261   6.855  1.00  0.00     0.169 HD
ATOM     33  H41 UNL     1      27.238 -17.001   7.389  1.00  0.00     0.169 HD
ENDBRANCH  28  31
ENDBRANCH   5  28
TORSDOF 7
ENDMDL
MODEL 5
REMARK VINA RESULT: -8.106066833      2.339      7.742
REMARK  7 active torsions:
REMARK  status: ('A' for Active; 'I' for Inactive)
REMARK    1  A    between atoms: C2_7  and  S1_8 
REMARK    2  A    between atoms: S1_8  and  C3_9 
REMARK    3  A    between atoms: C3_9  and  C4_10 
REMARK    4  A    between atoms: C6_14  and  S2_15 
REMARK    5  A    between atoms: S2_15  and  N4_16 
REMARK    6  A    between atoms: C7_23  and  N6_24 
REMARK    7  A    between atoms: N7_27  and  O3_28 
ROOT
HETATM    1  C4  UNL     1      25.467 -17.320  13.695  1.00  0.00     0.011 A 
HETATM    2  C5  UNL     1      24.823 -17.701  14.856  1.00  0.00     0.102 A 
HETATM    3  N3  UNL     1      25.474 -18.458  15.763  1.00  0.00    -0.341 N 
ATOM      4  H3  UNL     1      24.979 -18.728  16.613  1.00  0.00     0.167 HD
HETATM    5  C6  UNL     1      26.742 -18.877  15.599  1.00  0.00     0.225 A 
HETATM    6  N5  UNL     1      27.372 -18.501  14.456  1.00  0.00    -0.318 N 
ATOM      7  H5  UNL     1      28.334 -18.801  14.299  1.00  0.00     0.169 HD
HETATM    8  C7  UNL     1      26.764 -17.746  13.523  1.00  0.00     0.109 A 
ENDROOT
BRANCH   1   9
HETATM    9  C3  UNL     1      24.769 -16.479  12.672  1.00  0.00     0.126 C 
BRANCH   9  10
HETATM   10  S1  UNL     1      23.785 -17.455  11.551  1.00  0.00    -0.086 SA
BRANCH  10  11
HETATM   11  C2  UNL     1      24.434 -17.291   9.902  1.00  0.00     0.189 A 
HETATM   12  N2  UNL     1      25.184 -18.288   9.404  1.00  0.00    -0.168 N 
HETATM   13  C1  UNL     1      25.680 -18.189   8.176  1.00  0.00     0.680 A 
ATOM     14  H2  UNL     1      25.372 -19.117   9.967  1.00  0.00     0.186 HD
HETATM   15  N1  UNL     1      26.400 -19.124   7.671  1.00  0.00    -0.234 N 
HETATM   16  N9  UNL     1      25.425 -17.094   7.447  1.00  0.00    -0.161 N 
ATOM     17  H12 UNL     1      26.595 -19.958   8.226  1.00  0.00     0.174 HD
ATOM     18  H11 UNL     1      26.780 -19.048   6.728  1.00  0.00     0.174 HD
HETATM   19  C8  UNL     1      24.666 -16.083   7.951  1.00  0.00     0.235 A 
ATOM     20  H9  UNL     1      25.804 -17.017   6.504  1.00  0.00     0.187 HD
HETATM   21  N7  UNL     1      24.166 -16.179   9.184  1.00  0.00    -0.170 N 
HETATM   22  N8  UNL     1      24.395 -14.919   7.176  1.00  0.00    -0.060 NA
BRANCH  21  23
HETATM   23  O3  UNL     1      23.386 -15.195   9.765  1.00  0.00    -0.278 OA
ATOM     24  H3  UNL     1      22.446 -15.225   9.628  1.00  0.00     0.245 HD
ENDBRANCH  21  23
ENDBRANCH  10  11
ENDBRANCH   9  10
ENDBRANCH   1   9
BRANCH   8  25
HETATM   25  N6  UNL     1      27.371 -17.395  12.443  1.00  0.00    -0.385 N 
ATOM     26  H62 UNL     1      27.023 -16.633  11.861  1.00  0.00     0.157 HD
ATOM     27  H61 UNL     1      28.214 -17.908  12.186  1.00  0.00     0.157 HD
ENDBRANCH   8  25
BRANCH   5  28
HETATM   28  S2  UNL     1      27.569 -19.862  16.792  1.00  0.00     0.289 S 
HETATM   29  O1  UNL     1      27.593 -21.314  16.376  1.00  0.00    -0.198 OA
HETATM   30  O2  UNL     1      29.011 -19.441  16.933  1.00  0.00    -0.198 OA
BRANCH  28  31
HETATM   31  N4  UNL     1      26.813 -19.644  18.314  1.00  0.00    -0.322 N 
ATOM     32  H42 UNL     1      26.936 -18.827  18.912  1.00  0.00     0.169 HD
ATOM     33  H41 UNL     1      26.230 -20.457  18.513  1.00  0.00     0.169 HD
ENDBRANCH  28  31
ENDBRANCH   5  28
TORSDOF 7
ENDMDL
