MODEL 1
REMARK VINA RESULT: -8.533475687      0.000      0.000
REMARK  5 active torsions:
REMARK  status: ('A' for Active; 'I' for Inactive)
REMARK    1  A    between atoms: O1_2  and  N1_3 
REMARK    2  A    between atoms: N1_3  and  C2_5 
REMARK    3  A    between atoms: C4_18  and  N7_19 
REMARK    4  A    between atoms: N7_19  and  C5_21 
REMARK    5  A    between atoms: C9_29  and  N10_30 
ROOT
HETATM    1  C2  UNL     1      25.487 -18.264  14.895  1.00  0.00     0.173 C 
HETATM    2  N2  UNL     1      26.106 -18.932  15.887  1.00  0.00    -0.314 N 
ATOM      3  H2  UNL     1      25.431 -19.331  16.539  1.00  0.00     0.170 HD
HETATM    4  C3  UNL     1      27.373 -19.221  16.258  1.00  0.00     0.193 C 
HETATM    5  S1  UNL     1      27.470 -19.811  17.778  1.00  0.00    -0.039 SA
HETATM    6  N3  UNL     1      28.539 -19.113  15.616  1.00  0.00    -0.260 N 
ATOM      7  H3  UNL     1      29.269 -19.693  16.029  1.00  0.00     0.191 HD
HETATM    8  N4  UNL     1      28.972 -18.419  14.553  1.00  0.00    -0.226 N 
ATOM      9  H4  UNL     1      29.989 -18.452  14.472  1.00  0.00     0.210 HD
HETATM   10  N5  UNL     1      28.428 -17.703  13.581  1.00  0.00    -0.227 N 
ATOM     11  H5  UNL     1      29.117 -17.323  12.932  1.00  0.00     0.210 HD
HETATM   12  N6  UNL     1      27.177 -17.369  13.266  1.00  0.00    -0.267 N 
ATOM     13  H6  UNL     1      27.140 -16.719  12.482  1.00  0.00     0.190 HD
HETATM   14  C4  UNL     1      25.951 -17.676  13.724  1.00  0.00     0.165 C 
ENDROOT
BRANCH  14  15
HETATM   15  N7  UNL     1      24.886 -17.338  12.842  1.00  0.00    -0.349 N 
ATOM     16  H7  UNL     1      23.953 -17.730  12.969  1.00  0.00     0.163 HD
BRANCH  15  17
HETATM   17  C5  UNL     1      25.167 -16.424  11.764  1.00  0.00     0.211 C 
HETATM   18  N8  UNL     1      25.800 -17.047  10.643  1.00  0.00    -0.336 N 
HETATM   19  C6  UNL     1      25.139 -17.611   9.688  1.00  0.00     0.229 C 
ATOM     20  H8  UNL     1      26.819 -17.045  10.596  1.00  0.00     0.164 HD
HETATM   21  N9  UNL     1      25.855 -18.214   8.599  1.00  0.00    -0.056 NA
HETATM   22  O2  UNL     1      23.757 -17.598   9.780  1.00  0.00    -0.317 OA
HETATM   23  C7  UNL     1      23.139 -16.426  10.274  1.00  0.00     0.154 C 
HETATM   24  C8  UNL     1      22.836 -15.559   9.047  1.00  0.00     0.042 C 
HETATM   25  C9  UNL     1      23.962 -15.687  11.285  1.00  0.00     0.155 C 
BRANCH  25  26
HETATM   26  N10 UNL     1      23.125 -15.214  12.378  1.00  0.00    -0.356 N 
HETATM   27  C10 UNL     1      22.546 -14.056  12.333  1.00  0.00     0.197 C 
HETATM   28  N11 UNL     1      21.745 -13.649  13.424  1.00  0.00    -0.067 NA
HETATM   29  N12 UNL     1      22.673 -13.163  11.236  1.00  0.00    -0.067 NA
ATOM     30  H10 UNL     1      22.992 -15.807  13.198  1.00  0.00     0.162 HD
ENDBRANCH  25  26
ENDBRANCH  15  17
ENDBRANCH  14  15
BRANCH   1  31
HETATM   31  N1  UNL     1      24.220 -18.128  15.030  1.00  0.00    -0.248 N 
ATOM     32  H1  UNL     1      23.622 -18.780  14.522  1.00  0.00     0.196 HD
BRANCH  31  33
HETATM   33  O1  UNL     1      23.612 -17.189  15.791  1.00  0.00    -0.284 OA
HETATM   34  C1  UNL     1      22.355 -17.419  16.408  1.00  0.00     0.237 C 
ENDBRANCH  31  33
ENDBRANCH   1  31
TORSDOF 5
ENDMDL
MODEL 2
REMARK VINA RESULT: -7.527281630      1.397      1.625
REMARK  5 active torsions:
REMARK  status: ('A' for Active; 'I' for Inactive)
REMARK    1  A    between atoms: O1_2  and  N1_3 
REMARK    2  A    between atoms: N1_3  and  C2_5 
REMARK    3  A    between atoms: C4_18  and  N7_19 
REMARK    4  A    between atoms: N7_19  and  C5_21 
REMARK    5  A    between atoms: C9_29  and  N10_30 
ROOT
HETATM    1  C2  UNL     1      25.686 -18.246  14.820  1.00  0.00     0.173 C 
HETATM    2  N2  UNL     1      26.210 -18.629  16.000  1.00  0.00    -0.314 N 
ATOM      3  H2  UNL     1      26.164 -17.875  16.686  1.00  0.00     0.170 HD
HETATM    4  C3  UNL     1      26.780 -19.735  16.529  1.00  0.00     0.193 C 
HETATM    5  S1  UNL     1      27.519 -19.447  17.956  1.00  0.00    -0.039 SA
HETATM    6  N3  UNL     1      26.845 -20.998  16.101  1.00  0.00    -0.260 N 
ATOM      7  H3  UNL     1      27.062 -21.655  16.850  1.00  0.00     0.191 HD
HETATM    8  N4  UNL     1      26.691 -21.603  14.914  1.00  0.00    -0.226 N 
ATOM      9  H4  UNL     1      27.005 -22.574  14.943  1.00  0.00     0.210 HD
HETATM   10  N5  UNL     1      26.239 -21.273  13.714  1.00  0.00    -0.227 N 
ATOM     11  H5  UNL     1      26.281 -22.043  13.046  1.00  0.00     0.210 HD
HETATM   12  N6  UNL     1      25.741 -20.154  13.188  1.00  0.00    -0.267 N 
ATOM     13  H6  UNL     1      25.574 -20.244  12.186  1.00  0.00     0.190 HD
HETATM   14  C4  UNL     1      25.404 -18.937  13.648  1.00  0.00     0.165 C 
ENDROOT
BRANCH  14  15
HETATM   15  N7  UNL     1      24.585 -18.175  12.766  1.00  0.00    -0.349 N 
ATOM     16  H7  UNL     1      23.569 -18.260  12.787  1.00  0.00     0.163 HD
BRANCH  15  17
HETATM   17  C5  UNL     1      25.237 -17.281  11.844  1.00  0.00     0.211 C 
HETATM   18  N8  UNL     1      25.944 -17.958  10.801  1.00  0.00    -0.336 N 
HETATM   19  C6  UNL     1      25.384 -18.323   9.696  1.00  0.00     0.229 C 
ATOM     20  H8  UNL     1      26.934 -18.161  10.937  1.00  0.00     0.164 HD
HETATM   21  N9  UNL     1      26.169 -18.999   8.701  1.00  0.00    -0.056 NA
HETATM   22  O2  UNL     1      24.038 -18.034   9.542  1.00  0.00    -0.317 OA
HETATM   23  C7  UNL     1      23.571 -16.789  10.023  1.00  0.00     0.154 C 
HETATM   24  C8  UNL     1      23.680 -15.814   8.846  1.00  0.00     0.042 C 
HETATM   25  C9  UNL     1      24.309 -16.289  11.228  1.00  0.00     0.155 C 
BRANCH  25  26
HETATM   26  N10 UNL     1      23.382 -15.716  12.193  1.00  0.00    -0.356 N 
HETATM   27  C10 UNL     1      23.143 -14.443  12.226  1.00  0.00     0.197 C 
HETATM   28  N11 UNL     1      22.234 -13.943  13.186  1.00  0.00    -0.067 NA
HETATM   29  N12 UNL     1      23.751 -13.513  11.342  1.00  0.00    -0.067 NA
ATOM     30  H10 UNL     1      22.910 -16.329  12.858  1.00  0.00     0.162 HD
ENDBRANCH  25  26
ENDBRANCH  15  17
ENDBRANCH  14  15
BRANCH   1  31
HETATM   31  N1  UNL     1      25.376 -17.006  14.732  1.00  0.00    -0.248 N 
ATOM     32  H1  UNL     1      26.107 -16.361  14.432  1.00  0.00     0.196 HD
BRANCH  31  33
HETATM   33  O1  UNL     1      24.159 -16.483  15.005  1.00  0.00    -0.284 OA
HETATM   34  C1  UNL     1      23.148 -17.231  15.662  1.00  0.00     0.237 C 
ENDBRANCH  31  33
ENDBRANCH   1  31
TORSDOF 5
ENDMDL
MODEL 3
REMARK VINA RESULT: -6.711033130      2.407      4.448
REMARK  5 active torsions:
REMARK  status: ('A' for Active; 'I' for Inactive)
REMARK    1  A    between atoms: O1_2  and  N1_3 
REMARK    2  A    between atoms: N1_3  and  C2_5 
REMARK    3  A    between atoms: C4_18  and  N7_19 
REMARK    4  A    between atoms: N7_19  and  C5_21 
REMARK    5  A    between atoms: C9_29  and  N10_30 
ROOT
HETATM    1  C2  UNL     1      27.312 -18.719  15.460  1.00  0.00     0.173 C 
HETATM    2  N2  UNL     1      27.526 -18.703  16.790  1.00  0.00    -0.314 N 
ATOM      3  H2  UNL     1      27.789 -17.771  17.110  1.00  0.00     0.170 HD
HETATM    4  C3  UNL     1      27.489 -19.579  17.819  1.00  0.00     0.193 C 
HETATM    5  S1  UNL     1      28.186 -18.994  19.175  1.00  0.00    -0.039 SA
HETATM    6  N3  UNL     1      26.992 -20.814  17.923  1.00  0.00    -0.260 N 
ATOM      7  H3  UNL     1      26.836 -21.093  18.892  1.00  0.00     0.191 HD
HETATM    8  N4  UNL     1      26.653 -21.774  17.050  1.00  0.00    -0.226 N 
ATOM      9  H4  UNL     1      26.483 -22.665  17.517  1.00  0.00     0.210 HD
HETATM   10  N5  UNL     1      26.480 -21.869  15.740  1.00  0.00    -0.227 N 
ATOM     11  H5  UNL     1      26.205 -22.805  15.442  1.00  0.00     0.210 HD
HETATM   12  N6  UNL     1      26.586 -21.009  14.728  1.00  0.00    -0.267 N 
ATOM     13  H6  UNL     1      26.460 -21.466  13.824  1.00  0.00     0.190 HD
HETATM   14  C4  UNL     1      26.818 -19.692  14.599  1.00  0.00     0.165 C 
ENDROOT
BRANCH  14  15
HETATM   15  N7  UNL     1      26.499 -19.155  13.319  1.00  0.00    -0.349 N 
ATOM     16  H7  UNL     1      27.230 -18.944  12.641  1.00  0.00     0.163 HD
BRANCH  15  17
HETATM   17  C5  UNL     1      25.111 -18.919  13.014  1.00  0.00     0.211 C 
HETATM   18  N8  UNL     1      24.316 -18.637  14.169  1.00  0.00    -0.336 N 
HETATM   19  C6  UNL     1      24.176 -17.448  14.651  1.00  0.00     0.229 C 
ATOM     20  H8  UNL     1      23.839 -19.411  14.632  1.00  0.00     0.164 HD
HETATM   21  N9  UNL     1      23.358 -17.254  15.815  1.00  0.00    -0.056 NA
HETATM   22  O2  UNL     1      24.837 -16.418  14.000  1.00  0.00    -0.317 OA
HETATM   23  C7  UNL     1      24.880 -16.450  12.587  1.00  0.00     0.154 C 
HETATM   24  C8  UNL     1      23.657 -15.659  12.110  1.00  0.00     0.042 C 
HETATM   25  C9  UNL     1      24.903 -17.834  12.012  1.00  0.00     0.155 C 
BRANCH  25  26
HETATM   26  N10 UNL     1      25.842 -17.910  10.902  1.00  0.00    -0.356 N 
HETATM   27  C10 UNL     1      25.435 -17.902   9.672  1.00  0.00     0.197 C 
HETATM   28  N11 UNL     1      26.392 -17.979   8.635  1.00  0.00    -0.067 NA
HETATM   29  N12 UNL     1      24.066 -17.820   9.305  1.00  0.00    -0.067 NA
ATOM     30  H10 UNL     1      26.842 -17.971  11.097  1.00  0.00     0.162 HD
ENDBRANCH  25  26
ENDBRANCH  15  17
ENDBRANCH  14  15
BRANCH   1  31
HETATM   31  N1  UNL     1      27.614 -17.639  14.842  1.00  0.00    -0.248 N 
ATOM     32  H1  UNL     1      26.953 -16.864  14.902  1.00  0.00     0.196 HD
BRANCH  31  33
HETATM   33  O1  UNL     1      28.737 -17.443  14.114  1.00  0.00    -0.284 OA
HETATM   34  C1  UNL     1      29.923 -18.188  14.343  1.00  0.00     0.237 C 
ENDBRANCH  31  33
ENDBRANCH   1  31
TORSDOF 5
ENDMDL
MODEL 4
REMARK VINA RESULT: -5.647890359      2.409      4.018
REMARK  5 active torsions:
REMARK  status: ('A' for Active; 'I' for Inactive)
REMARK    1  A    between atoms: O1_2  and  N1_3 
REMARK    2  A    between atoms: N1_3  and  C2_5 
REMARK    3  A    between atoms: C4_18  and  N7_19 
REMARK    4  A    between atoms: N7_19  and  C5_21 
REMARK    5  A    between atoms: C9_29  and  N10_30 
ROOT
HETATM    1  C2  UNL     1      23.834 -16.299  13.288  1.00  0.00     0.173 C 
HETATM    2  N2  UNL     1      23.220 -16.778  14.387  1.00  0.00    -0.314 N 
ATOM      3  H2  UNL     1      22.221 -16.576  14.368  1.00  0.00     0.170 HD
HETATM    4  C3  UNL     1      23.561 -17.453  15.508  1.00  0.00     0.193 C 
HETATM    5  S1  UNL     1      22.379 -17.449  16.634  1.00  0.00    -0.039 SA
HETATM    6  N3  UNL     1      24.670 -18.111  15.852  1.00  0.00    -0.260 N 
ATOM      7  H3  UNL     1      24.514 -18.770  16.615  1.00  0.00     0.191 HD
HETATM    8  N4  UNL     1      25.943 -18.106  15.427  1.00  0.00    -0.226 N 
ATOM      9  H4  UNL     1      26.554 -18.617  16.066  1.00  0.00     0.210 HD
HETATM   10  N5  UNL     1      26.614 -17.614  14.398  1.00  0.00    -0.227 N 
ATOM     11  H5  UNL     1      27.609 -17.838  14.428  1.00  0.00     0.210 HD
HETATM   12  N6  UNL     1      26.275 -16.891  13.332  1.00  0.00    -0.267 N 
ATOM     13  H6  UNL     1      27.088 -16.615  12.782  1.00  0.00     0.190 HD
HETATM   14  C4  UNL     1      25.128 -16.434  12.799  1.00  0.00     0.165 C 
ENDROOT
BRANCH  14  15
HETATM   15  N7  UNL     1      25.236 -15.988  11.451  1.00  0.00    -0.349 N 
ATOM     16  H7  UNL     1      25.853 -15.217  11.200  1.00  0.00     0.163 HD
BRANCH  15  17
HETATM   17  C5  UNL     1      24.445 -16.662  10.453  1.00  0.00     0.211 C 
HETATM   18  N8  UNL     1      24.164 -15.850   9.309  1.00  0.00    -0.336 N 
HETATM   19  C6  UNL     1      24.959 -15.767   8.295  1.00  0.00     0.229 C 
ATOM     20  H8  UNL     1      23.297 -15.313   9.295  1.00  0.00     0.164 HD
HETATM   21  N9  UNL     1      24.599 -14.927   7.188  1.00  0.00    -0.056 NA
HETATM   22  O2  UNL     1      26.128 -16.508   8.345  1.00  0.00    -0.317 OA
HETATM   23  C7  UNL     1      26.066 -17.805   8.905  1.00  0.00     0.154 C 
HETATM   24  C8  UNL     1      25.784 -18.755   7.736  1.00  0.00     0.042 C 
HETATM   25  C9  UNL     1      25.045 -17.947   9.992  1.00  0.00     0.155 C 
BRANCH  25  26
HETATM   26  N10 UNL     1      25.576 -18.741  11.091  1.00  0.00    -0.356 N 
HETATM   27  C10 UNL     1      24.800 -19.241  12.000  1.00  0.00     0.197 C 
HETATM   28  N11 UNL     1      25.373 -20.004  13.043  1.00  0.00    -0.067 NA
HETATM   29  N12 UNL     1      23.392 -19.063  12.006  1.00  0.00    -0.067 NA
ATOM     30  H10 UNL     1      26.582 -18.907  11.146  1.00  0.00     0.162 HD
ENDBRANCH  25  26
ENDBRANCH  15  17
ENDBRANCH  14  15
BRANCH   1  31
HETATM   31  N1  UNL     1      23.106 -15.573  12.524  1.00  0.00    -0.248 N 
ATOM     32  H1  UNL     1      22.775 -15.993  11.655  1.00  0.00     0.196 HD
BRANCH  31  33
HETATM   33  O1  UNL     1      22.742 -14.295  12.775  1.00  0.00    -0.284 OA
HETATM   34  C1  UNL     1      23.110 -13.225  11.920  1.00  0.00     0.237 C 
ENDBRANCH  31  33
ENDBRANCH   1  31
TORSDOF 5
ENDMDL
MODEL 5
REMARK VINA RESULT: -4.854454271      1.872      4.055
REMARK  5 active torsions:
REMARK  status: ('A' for Active; 'I' for Inactive)
REMARK    1  A    between atoms: O1_2  and  N1_3 
REMARK    2  A    between atoms: N1_3  and  C2_5 
REMARK    3  A    between atoms: C4_18  and  N7_19 
REMARK    4  A    between atoms: N7_19  and  C5_21 
REMARK    5  A    between atoms: C9_29  and  N10_30 
ROOT
HETATM    1  C2  UNL     1      26.614 -18.253  13.900  1.00  0.00     0.173 C 
HETATM    2  N2  UNL     1      27.356 -18.976  14.760  1.00  0.00    -0.314 N 
ATOM      3  H2  UNL     1      28.259 -19.219  14.353  1.00  0.00     0.170 HD
HETATM    4  C3  UNL     1      27.238 -19.467  16.013  1.00  0.00     0.193 C 
HETATM    5  S1  UNL     1      28.392 -20.564  16.376  1.00  0.00    -0.039 SA
HETATM    6  N3  UNL     1      26.363 -19.220  16.991  1.00  0.00    -0.260 N 
ATOM      7  H3  UNL     1      26.711 -19.501  17.909  1.00  0.00     0.191 HD
HETATM    8  N4  UNL     1      25.132 -18.689  17.047  1.00  0.00    -0.226 N 
ATOM      9  H4  UNL     1      24.700 -18.838  17.959  1.00  0.00     0.210 HD
HETATM   10  N5  UNL     1      24.331 -18.022  16.231  1.00  0.00    -0.227 N 
ATOM     11  H5  UNL     1      23.439 -17.777  16.660  1.00  0.00     0.210 HD
HETATM   12  N6  UNL     1      24.436 -17.602  14.970  1.00  0.00    -0.267 N 
ATOM     13  H6  UNL     1      23.568 -17.187  14.632  1.00  0.00     0.190 HD
HETATM   14  C4  UNL     1      25.400 -17.589  14.033  1.00  0.00     0.165 C 
ENDROOT
BRANCH  14  15
HETATM   15  N7  UNL     1      25.148 -16.718  12.935  1.00  0.00    -0.349 N 
ATOM     16  H7  UNL     1      25.910 -16.231  12.464  1.00  0.00     0.163 HD
BRANCH  15  17
HETATM   17  C5  UNL     1      23.782 -16.546  12.510  1.00  0.00     0.211 C 
HETATM   18  N8  UNL     1      23.235 -15.271  12.860  1.00  0.00    -0.336 N 
HETATM   19  C6  UNL     1      23.360 -14.225  12.113  1.00  0.00     0.229 C 
ATOM     20  H8  UNL     1      22.725 -15.185  13.739  1.00  0.00     0.164 HD
HETATM   21  N9  UNL     1      22.779 -12.983  12.541  1.00  0.00    -0.056 NA
HETATM   22  O2  UNL     1      24.059 -14.374  10.926  1.00  0.00    -0.317 OA
HETATM   23  C7  UNL     1      23.869 -15.568  10.193  1.00  0.00     0.154 C 
HETATM   24  C8  UNL     1      22.723 -15.286   9.216  1.00  0.00     0.042 C 
HETATM   25  C9  UNL     1      23.586 -16.766  11.048  1.00  0.00     0.155 C 
BRANCH  25  26
HETATM   26  N10 UNL     1      24.312 -17.928  10.555  1.00  0.00    -0.356 N 
HETATM   27  C10 UNL     1      25.301 -17.806   9.728  1.00  0.00     0.197 C 
HETATM   28  N11 UNL     1      25.967 -18.970   9.282  1.00  0.00    -0.067 NA
HETATM   29  N12 UNL     1      25.756 -16.554   9.238  1.00  0.00    -0.067 NA
ATOM     30  H10 UNL     1      24.035 -18.859  10.868  1.00  0.00     0.162 HD
ENDBRANCH  25  26
ENDBRANCH  15  17
ENDBRANCH  14  15
BRANCH   1  31
HETATM   31  N1  UNL     1      27.095 -18.138  12.719  1.00  0.00    -0.248 N 
ATOM     32  H1  UNL     1      26.479 -18.362  11.937  1.00  0.00     0.196 HD
BRANCH  31  33
HETATM   33  O1  UNL     1      28.355 -17.743  12.424  1.00  0.00    -0.284 OA
HETATM   34  C1  UNL     1      29.375 -17.679  13.408  1.00  0.00     0.237 C 
ENDBRANCH  31  33
ENDBRANCH   1  31
TORSDOF 5
ENDMDL
