MODEL 1
REMARK VINA RESULT: -7.302685144      0.000      0.000
REMARK  3 active torsions:
REMARK  status: ('A' for Active; 'I' for Inactive)
REMARK    1  A    between atoms: N1_1  and  C1_4 
REMARK    2  A    between atoms: C3_10  and  N4_11 
REMARK    3  A    between atoms: N4_11  and  N5_13 
ROOT
HETATM    1  C1  UNL     1     -12.852  58.606   7.729  1.00  0.00     0.706 A 
HETATM    2  N2  UNL     1     -12.945  59.234   8.914  1.00  0.00    -0.019 N 
ATOM      3  H2  UNL     1     -12.162  59.670   9.401  1.00  0.00     0.203 HD
HETATM    4  C2  UNL     1     -14.218  59.211   9.373  1.00  0.00     0.737 A 
HETATM    5  N3  UNL     1     -14.806  59.700  10.498  1.00  0.00    -0.018 N 
ATOM      6  H3  UNL     1     -14.241  60.199  11.186  1.00  0.00     0.203 HD
HETATM    7  C3  UNL     1     -16.122  59.533  10.712  1.00  0.00     0.715 A 
HETATM    8  N6  UNL     1     -16.829  58.867   9.777  1.00  0.00    -0.137 N 
ATOM      9  H6  UNL     1     -17.830  58.724   9.912  1.00  0.00     0.189 HD
HETATM   10  C4  UNL     1     -16.237  58.391   8.675  1.00  0.00     0.375 A 
HETATM   11  O1  UNL     1     -16.921  57.778   7.827  1.00  0.00    -0.244 OA
HETATM   12  N7  UNL     1     -14.925  58.550   8.447  1.00  0.00    -0.015 N 
HETATM   13  N8  UNL     1     -14.100  58.187   7.458  1.00  0.00    -0.106 N 
ATOM     14  H8  UNL     1     -14.377  57.669   6.623  1.00  0.00     0.207 HD
ENDROOT
BRANCH   7  15
HETATM   15  N4  UNL     1     -16.699  59.998  11.788  1.00  0.00    -0.138 N 
ATOM     16  H4  UNL     1     -16.592  60.975  12.060  1.00  0.00     0.205 HD
BRANCH  15  17
HETATM   17  N5  UNL     1     -17.468  59.118  12.555  1.00  0.00    -0.331 N 
ATOM     18  H52 UNL     1     -17.293  58.114  12.509  1.00  0.00     0.177 HD
ATOM     19  H51 UNL     1     -18.196  59.510  13.151  1.00  0.00     0.177 HD
ENDBRANCH  15  17
ENDBRANCH   7  15
BRANCH   1  20
HETATM   20  N1  UNL     1     -11.825  58.412   6.971  1.00  0.00    -0.233 N 
ATOM     21  H12 UNL     1     -11.338  57.522   6.861  1.00  0.00     0.174 HD
ATOM     22  H11 UNL     1     -11.322  59.064   6.370  1.00  0.00     0.174 HD
ENDBRANCH   1  20
TORSDOF 3
ENDMDL
MODEL 2
REMARK VINA RESULT: -7.298293827      0.980      4.450
REMARK  3 active torsions:
REMARK  status: ('A' for Active; 'I' for Inactive)
REMARK    1  A    between atoms: N1_1  and  C1_4 
REMARK    2  A    between atoms: C3_10  and  N4_11 
REMARK    3  A    between atoms: N4_11  and  N5_13 
ROOT
HETATM    1  C1  UNL     1     -15.873  59.592  10.735  1.00  0.00     0.706 A 
HETATM    2  N2  UNL     1     -14.533  59.697  10.739  1.00  0.00    -0.019 N 
ATOM      3  H2  UNL     1     -13.980  60.018  11.534  1.00  0.00     0.203 HD
HETATM    4  C2  UNL     1     -14.016  59.320   9.546  1.00  0.00     0.737 A 
HETATM    5  N3  UNL     1     -12.745  59.251   9.068  1.00  0.00    -0.018 N 
ATOM      6  H3  UNL     1     -11.965  59.521   9.668  1.00  0.00     0.203 HD
HETATM    7  C3  UNL     1     -12.506  58.832   7.814  1.00  0.00     0.715 A 
HETATM    8  N6  UNL     1     -13.566  58.487   7.056  1.00  0.00    -0.137 N 
ATOM      9  H6  UNL     1     -13.416  58.165   6.100  1.00  0.00     0.189 HD
HETATM   10  C4  UNL     1     -14.812  58.561   7.540  1.00  0.00     0.375 A 
HETATM   11  O1  UNL     1     -15.774  58.232   6.811  1.00  0.00    -0.244 OA
HETATM   12  N7  UNL     1     -15.067  58.976   8.790  1.00  0.00    -0.015 N 
HETATM   13  N8  UNL     1     -16.183  59.141   9.508  1.00  0.00    -0.106 N 
ATOM     14  H8  UNL     1     -17.129  58.952   9.174  1.00  0.00     0.207 HD
ENDROOT
BRANCH   7  15
HETATM   15  N4  UNL     1     -11.290  58.761   7.342  1.00  0.00    -0.138 N 
ATOM     16  H4  UNL     1     -11.102  58.913   6.351  1.00  0.00     0.205 HD
BRANCH  15  17
HETATM   17  N5  UNL     1     -10.253  58.471   8.234  1.00  0.00    -0.331 N 
ATOM     18  H52 UNL     1     -10.467  58.169   9.184  1.00  0.00     0.177 HD
ATOM     19  H51 UNL     1      -9.294  58.570   7.904  1.00  0.00     0.177 HD
ENDBRANCH  15  17
ENDBRANCH   7  15
BRANCH   1  20
HETATM   20  N1  UNL     1     -16.729  59.852  11.667  1.00  0.00    -0.233 N 
ATOM     21  H12 UNL     1     -17.515  60.497  11.576  1.00  0.00     0.174 HD
ATOM     22  H11 UNL     1     -16.790  59.492  12.619  1.00  0.00     0.174 HD
ENDBRANCH   1  20
TORSDOF 3
ENDMDL
MODEL 3
REMARK VINA RESULT: -7.277608711      2.691      5.240
REMARK  3 active torsions:
REMARK  status: ('A' for Active; 'I' for Inactive)
REMARK    1  A    between atoms: N1_1  and  C1_4 
REMARK    2  A    between atoms: C3_10  and  N4_11 
REMARK    3  A    between atoms: N4_11  and  N5_13 
ROOT
HETATM    1  C1  UNL     1     -13.629  59.480   9.817  1.00  0.00     0.706 A 
HETATM    2  N2  UNL     1     -14.545  59.266   8.856  1.00  0.00    -0.019 N 
ATOM      3  H2  UNL     1     -15.553  59.342   8.991  1.00  0.00     0.203 HD
HETATM    4  C2  UNL     1     -13.949  58.934   7.687  1.00  0.00     0.737 A 
HETATM    5  N3  UNL     1     -14.434  58.630   6.454  1.00  0.00    -0.018 N 
ATOM      6  H3  UNL     1     -15.442  58.630   6.295  1.00  0.00     0.203 HD
HETATM    7  C3  UNL     1     -13.601  58.330   5.444  1.00  0.00     0.715 A 
HETATM    8  N6  UNL     1     -12.277  58.341   5.699  1.00  0.00    -0.137 N 
ATOM      9  H6  UNL     1     -11.619  58.117   4.952  1.00  0.00     0.189 HD
HETATM   10  C4  UNL     1     -11.814  58.641   6.919  1.00  0.00     0.375 A 
HETATM   11  O1  UNL     1     -10.580  58.643   7.123  1.00  0.00    -0.244 OA
HETATM   12  N7  UNL     1     -12.632  58.944   7.937  1.00  0.00    -0.015 N 
HETATM   13  N8  UNL     1     -12.443  59.273   9.220  1.00  0.00    -0.106 N 
ATOM     14  H8  UNL     1     -11.534  59.354   9.676  1.00  0.00     0.207 HD
ENDROOT
BRANCH   7  15
HETATM   15  N4  UNL     1     -14.054  58.036   4.254  1.00  0.00    -0.138 N 
ATOM     16  H4  UNL     1     -14.114  58.748   3.526  1.00  0.00     0.205 HD
BRANCH  15  17
HETATM   17  N5  UNL     1     -14.454  56.720   4.009  1.00  0.00    -0.331 N 
ATOM     18  H52 UNL     1     -13.892  56.120   3.404  1.00  0.00     0.177 HD
ATOM     19  H51 UNL     1     -15.312  56.388   4.449  1.00  0.00     0.177 HD
ENDBRANCH  15  17
ENDBRANCH   7  15
BRANCH   1  20
HETATM   20  N1  UNL     1     -13.787  59.811  11.055  1.00  0.00    -0.233 N 
ATOM     21  H12 UNL     1     -14.645  59.680  11.591  1.00  0.00     0.174 HD
ATOM     22  H11 UNL     1     -13.132  60.244  11.706  1.00  0.00     0.174 HD
ENDBRANCH   1  20
TORSDOF 3
ENDMDL
MODEL 4
REMARK VINA RESULT: -7.236111312      1.867      2.380
REMARK  3 active torsions:
REMARK  status: ('A' for Active; 'I' for Inactive)
REMARK    1  A    between atoms: N1_1  and  C1_4 
REMARK    2  A    between atoms: C3_10  and  N4_11 
REMARK    3  A    between atoms: N4_11  and  N5_13 
ROOT
HETATM    1  C1  UNL     1     -12.660  58.687   7.348  1.00  0.00     0.706 A 
HETATM    2  N2  UNL     1     -13.990  58.507   7.418  1.00  0.00    -0.019 N 
ATOM      3  H2  UNL     1     -14.573  58.187   6.645  1.00  0.00     0.203 HD
HETATM    4  C2  UNL     1     -14.453  58.809   8.654  1.00  0.00     0.737 A 
HETATM    5  N3  UNL     1     -15.694  58.789   9.209  1.00  0.00    -0.018 N 
ATOM      6  H3  UNL     1     -16.493  58.498   8.645  1.00  0.00     0.203 HD
HETATM    7  C3  UNL     1     -15.879  59.147  10.491  1.00  0.00     0.715 A 
HETATM    8  N6  UNL     1     -14.795  59.525  11.198  1.00  0.00    -0.137 N 
ATOM      9  H6  UNL     1     -14.903  59.803  12.173  1.00  0.00     0.189 HD
HETATM   10  C4  UNL     1     -13.579  59.541  10.638  1.00  0.00     0.375 A 
HETATM   11  O1  UNL     1     -12.593  59.896  11.321  1.00  0.00    -0.244 OA
HETATM   12  N7  UNL     1     -13.378  59.186   9.360  1.00  0.00    -0.015 N 
HETATM   13  N8  UNL     1     -12.300  59.111   8.571  1.00  0.00    -0.106 N 
ATOM     14  H8  UNL     1     -11.348  59.342   8.856  1.00  0.00     0.207 HD
ENDROOT
BRANCH   7  15
HETATM   15  N4  UNL     1     -17.065  59.132  11.036  1.00  0.00    -0.138 N 
ATOM     16  H4  UNL     1     -17.887  58.862  10.496  1.00  0.00     0.205 HD
BRANCH  15  17
HETATM   17  N5  UNL     1     -17.177  59.497  12.381  1.00  0.00    -0.331 N 
ATOM     18  H52 UNL     1     -18.095  59.544  12.822  1.00  0.00     0.177 HD
ATOM     19  H51 UNL     1     -16.322  59.710  12.894  1.00  0.00     0.177 HD
ENDBRANCH  15  17
ENDBRANCH   7  15
BRANCH   1  20
HETATM   20  N1  UNL     1     -11.850  58.512   6.357  1.00  0.00    -0.233 N 
ATOM     21  H12 UNL     1     -11.468  57.611   6.066  1.00  0.00     0.174 HD
ATOM     22  H11 UNL     1     -11.453  59.190   5.708  1.00  0.00     0.174 HD
ENDBRANCH   1  20
TORSDOF 3
ENDMDL
MODEL 5
REMARK VINA RESULT: -7.118662161      2.855      3.788
REMARK  3 active torsions:
REMARK  status: ('A' for Active; 'I' for Inactive)
REMARK    1  A    between atoms: N1_1  and  C1_4 
REMARK    2  A    between atoms: C3_10  and  N4_11 
REMARK    3  A    between atoms: N4_11  and  N5_13 
ROOT
HETATM    1  C1  UNL     1     -14.125  57.880   5.150  1.00  0.00     0.706 A 
HETATM    2  N2  UNL     1     -14.859  58.346   6.175  1.00  0.00    -0.019 N 
ATOM      3  H2  UNL     1     -15.878  58.388   6.185  1.00  0.00     0.203 HD
HETATM    4  C2  UNL     1     -14.064  58.752   7.192  1.00  0.00     0.737 A 
HETATM    5  N3  UNL     1     -14.325  59.285   8.415  1.00  0.00    -0.018 N 
ATOM      6  H3  UNL     1     -15.291  59.443   8.701  1.00  0.00     0.203 HD
HETATM    7  C3  UNL     1     -13.323  59.606   9.251  1.00  0.00     0.715 A 
HETATM    8  N6  UNL     1     -12.061  59.382   8.832  1.00  0.00    -0.137 N 
ATOM      9  H6  UNL     1     -11.279  59.616   9.445  1.00  0.00     0.189 HD
HETATM   10  C4  UNL     1     -11.820  58.857   7.625  1.00  0.00     0.375 A 
HETATM   11  O1  UNL     1     -10.638  58.661   7.266  1.00  0.00    -0.244 OA
HETATM   12  N7  UNL     1     -12.808  58.531   6.779  1.00  0.00    -0.015 N 
HETATM   13  N8  UNL     1     -12.848  58.006   5.550  1.00  0.00    -0.106 N 
ATOM     14  H8  UNL     1     -12.032  57.740   4.998  1.00  0.00     0.207 HD
ENDROOT
BRANCH   7  15
HETATM   15  N4  UNL     1     -13.559  60.119  10.429  1.00  0.00    -0.138 N 
ATOM     16  H4  UNL     1     -14.016  61.026  10.524  1.00  0.00     0.205 HD
BRANCH  15  17
HETATM   17  N5  UNL     1     -13.168  59.390  11.556  1.00  0.00    -0.331 N 
ATOM     18  H52 UNL     1     -12.293  58.866  11.545  1.00  0.00     0.177 HD
ATOM     19  H51 UNL     1     -13.778  59.402  12.372  1.00  0.00     0.177 HD
ENDBRANCH  15  17
ENDBRANCH   7  15
BRANCH   1  20
HETATM   20  N1  UNL     1     -14.500  57.406   4.009  1.00  0.00    -0.233 N 
ATOM     21  H12 UNL     1     -15.330  57.705   3.494  1.00  0.00     0.174 HD
ATOM     22  H11 UNL     1     -14.075  56.684   3.428  1.00  0.00     0.174 HD
ENDBRANCH   1  20
TORSDOF 3
ENDMDL
