MODEL 1
REMARK VINA RESULT: -6.215784483      0.000      0.000
REMARK  4 active torsions:
REMARK  status: ('A' for Active; 'I' for Inactive)
REMARK    1  A    between atoms: O1_2  and  C2_3 
REMARK       I    between atoms: C2_3  and  N1_5 
REMARK    2  A    between atoms: N1_5  and  C3_7 
REMARK    3  A    between atoms: C3_7  and  N2_8 
REMARK    4  A    between atoms: N5_15  and  N6_16 
ROOT
HETATM    1  C3  UNL     1     -14.737  59.003  11.817  1.00  0.00     0.305 C 
HETATM    2  C4  UNL     1     -15.141  57.556  11.808  1.00  0.00     0.214 C 
HETATM    3  N3  UNL     1     -14.209  57.001  12.800  1.00  0.00    -0.124 NA
HETATM    4  N4  UNL     1     -13.796  58.046  13.596  1.00  0.00    -0.033 NA
HETATM    5  N5  UNL     1     -14.508  59.181  13.256  1.00  0.00    -0.075 NA
ENDROOT
BRANCH   1   6
HETATM    6  N1  UNL     1     -13.565  59.305  11.058  1.00  0.00    -0.288 N 
HETATM    7  C2  UNL     1     -13.626  59.433   9.656  1.00  0.00     0.363 C 
HETATM    8  O2  UNL     1     -14.699  59.289   9.032  1.00  0.00    -0.238 OA
ATOM      9  H1  UNL     1     -12.673  59.429  11.536  1.00  0.00     0.168 HD
BRANCH   7  10
HETATM   10  O1  UNL     1     -12.485  59.722   8.935  1.00  0.00    -0.309 OA
HETATM   11  C1  UNL     1     -12.045  58.980   7.822  1.00  0.00     0.215 C 
ENDBRANCH   7  10
ENDBRANCH   1   6
BRANCH   1  12
HETATM   12  N2  UNL     1     -15.824  59.881  11.423  1.00  0.00    -0.034 N 
ATOM     13  H23 UNL     1     -16.435  59.446  10.733  1.00  0.00     0.279 HD
ATOM     14  H22 UNL     1     -16.507  60.004  12.172  1.00  0.00     0.279 HD
ATOM     15  H21 UNL     1     -15.450  60.772  11.097  1.00  0.00     0.279 HD
ENDBRANCH   1  12
BRANCH   5  16
HETATM   16  N6  UNL     1     -15.782  59.065  13.852  1.00  0.00    -0.344 NA
ATOM     17  H62 UNL     1     -16.392  58.612  13.172  1.00  0.00     0.172 HD
ATOM     18  H61 UNL     1     -16.150  60.016  13.889  1.00  0.00     0.172 HD
ENDBRANCH   5  16
TORSDOF 4
ENDMDL
MODEL 2
REMARK VINA RESULT: -5.857574927      1.082      1.323
REMARK  4 active torsions:
REMARK  status: ('A' for Active; 'I' for Inactive)
REMARK    1  A    between atoms: O1_2  and  C2_3 
REMARK       I    between atoms: C2_3  and  N1_5 
REMARK    2  A    between atoms: N1_5  and  C3_7 
REMARK    3  A    between atoms: C3_7  and  N2_8 
REMARK    4  A    between atoms: N5_15  and  N6_16 
ROOT
HETATM    1  C3  UNL     1     -15.716  59.124  11.252  1.00  0.00     0.305 C 
HETATM    2  C4  UNL     1     -15.541  57.749  11.832  1.00  0.00     0.214 C 
HETATM    3  N3  UNL     1     -14.997  58.073  13.157  1.00  0.00    -0.124 NA
HETATM    4  N4  UNL     1     -15.360  59.371  13.438  1.00  0.00    -0.033 NA
HETATM    5  N5  UNL     1     -16.205  59.828  12.444  1.00  0.00    -0.075 NA
ENDROOT
BRANCH   1   6
HETATM    6  N1  UNL     1     -14.519  59.719  10.745  1.00  0.00    -0.288 N 
HETATM    7  C2  UNL     1     -14.045  59.402   9.457  1.00  0.00     0.363 C 
HETATM    8  O2  UNL     1     -14.650  58.597   8.717  1.00  0.00    -0.238 OA
ATOM      9  H1  UNL     1     -14.002  60.381  11.323  1.00  0.00     0.168 HD
BRANCH   7  10
HETATM   10  O1  UNL     1     -12.887  59.983   8.982  1.00  0.00    -0.309 OA
HETATM   11  C1  UNL     1     -12.011  59.364   8.069  1.00  0.00     0.215 C 
ENDBRANCH   7  10
ENDBRANCH   1   6
BRANCH   1  12
HETATM   12  N2  UNL     1     -16.758  59.170  10.244  1.00  0.00    -0.034 N 
ATOM     13  H23 UNL     1     -16.650  59.967   9.618  1.00  0.00     0.279 HD
ATOM     14  H22 UNL     1     -16.656  58.424   9.555  1.00  0.00     0.279 HD
ATOM     15  H21 UNL     1     -17.675  59.156  10.690  1.00  0.00     0.279 HD
ENDBRANCH   1  12
BRANCH   5  16
HETATM   16  N6  UNL     1     -17.480  59.282  12.700  1.00  0.00    -0.344 NA
ATOM     17  H62 UNL     1     -18.070  60.044  13.035  1.00  0.00     0.172 HD
ATOM     18  H61 UNL     1     -17.363  58.704  13.533  1.00  0.00     0.172 HD
ENDBRANCH   5  16
TORSDOF 4
ENDMDL
MODEL 3
REMARK VINA RESULT: -5.698216659      4.629      5.879
REMARK  4 active torsions:
REMARK  status: ('A' for Active; 'I' for Inactive)
REMARK    1  A    between atoms: O1_2  and  C2_3 
REMARK       I    between atoms: C2_3  and  N1_5 
REMARK    2  A    between atoms: N1_5  and  C3_7 
REMARK    3  A    between atoms: C3_7  and  N2_8 
REMARK    4  A    between atoms: N5_15  and  N6_16 
ROOT
HETATM    1  C3  UNL     1     -12.778  58.696   6.663  1.00  0.00     0.305 C 
HETATM    2  C4  UNL     1     -12.845  60.197   6.638  1.00  0.00     0.214 C 
HETATM    3  N3  UNL     1     -12.973  60.494   8.071  1.00  0.00    -0.124 NA
HETATM    4  N4  UNL     1     -12.483  59.404   8.755  1.00  0.00    -0.033 NA
HETATM    5  N5  UNL     1     -11.937  58.512   7.851  1.00  0.00    -0.075 NA
ENDROOT
BRANCH   1   6
HETATM    6  N1  UNL     1     -14.040  58.040   6.806  1.00  0.00    -0.288 N 
HETATM    7  C2  UNL     1     -14.857  57.794   5.686  1.00  0.00     0.363 C 
HETATM    8  O2  UNL     1     -14.510  58.136   4.535  1.00  0.00    -0.238 OA
ATOM      9  H1  UNL     1     -14.352  57.747   7.732  1.00  0.00     0.168 HD
BRANCH   7  10
HETATM   10  O1  UNL     1     -16.074  57.162   5.840  1.00  0.00    -0.309 OA
HETATM   11  C1  UNL     1     -16.629  56.277   4.896  1.00  0.00     0.215 C 
ENDBRANCH   7  10
ENDBRANCH   1   6
BRANCH   1  12
HETATM   12  N2  UNL     1     -12.066  58.156   5.520  1.00  0.00    -0.034 N 
ATOM     13  H23 UNL     1     -11.434  58.840   5.105  1.00  0.00     0.279 HD
ATOM     14  H22 UNL     1     -11.371  57.461   5.796  1.00  0.00     0.279 HD
ATOM     15  H21 UNL     1     -12.729  57.785   4.840  1.00  0.00     0.279 HD
ENDBRANCH   1  12
BRANCH   5  16
HETATM   16  N6  UNL     1     -10.668  59.013   7.490  1.00  0.00    -0.344 NA
ATOM     17  H62 UNL     1     -10.010  58.236   7.551  1.00  0.00     0.172 HD
ATOM     18  H61 UNL     1     -10.384  59.611   8.266  1.00  0.00     0.172 HD
ENDBRANCH   5  16
TORSDOF 4
ENDMDL
MODEL 4
REMARK VINA RESULT: -5.697298499      3.820      5.513
REMARK  4 active torsions:
REMARK  status: ('A' for Active; 'I' for Inactive)
REMARK    1  A    between atoms: O1_2  and  C2_3 
REMARK       I    between atoms: C2_3  and  N1_5 
REMARK    2  A    between atoms: N1_5  and  C3_7 
REMARK    3  A    between atoms: C3_7  and  N2_8 
REMARK    4  A    between atoms: N5_15  and  N6_16 
ROOT
HETATM    1  C3  UNL     1     -13.761  58.700   7.009  1.00  0.00     0.305 C 
HETATM    2  C4  UNL     1     -13.241  60.109   7.004  1.00  0.00     0.214 C 
HETATM    3  N3  UNL     1     -12.016  59.955   7.800  1.00  0.00    -0.124 NA
HETATM    4  N4  UNL     1     -11.658  58.627   7.741  1.00  0.00    -0.033 NA
HETATM    5  N5  UNL     1     -12.495  57.974   6.856  1.00  0.00    -0.075 NA
ENDROOT
BRANCH   1   6
HETATM    6  N1  UNL     1     -14.446  58.316   8.203  1.00  0.00    -0.288 N 
HETATM    7  C2  UNL     1     -15.737  58.804   8.484  1.00  0.00     0.363 C 
HETATM    8  O2  UNL     1     -16.327  59.582   7.704  1.00  0.00    -0.238 OA
ATOM      9  H1  UNL     1     -13.993  57.681   8.861  1.00  0.00     0.168 HD
BRANCH   7  10
HETATM   10  O1  UNL     1     -16.385  58.426   9.643  1.00  0.00    -0.309 OA
HETATM   11  C1  UNL     1     -16.245  59.089  10.877  1.00  0.00     0.215 C 
ENDBRANCH   7  10
ENDBRANCH   1   6
BRANCH   1  12
HETATM   12  N2  UNL     1     -14.587  58.412   5.850  1.00  0.00    -0.034 N 
ATOM     13  H23 UNL     1     -14.812  59.256   5.323  1.00  0.00     0.279 HD
ATOM     14  H22 UNL     1     -14.067  57.918   5.124  1.00  0.00     0.279 HD
ATOM     15  H21 UNL     1     -15.423  57.904   6.136  1.00  0.00     0.279 HD
ENDBRANCH   1  12
BRANCH   5  16
HETATM   16  N6  UNL     1     -12.044  58.283   5.555  1.00  0.00    -0.344 NA
ATOM     17  H62 UNL     1     -11.564  57.456   5.200  1.00  0.00     0.172 HD
ATOM     18  H61 UNL     1     -11.282  58.949   5.685  1.00  0.00     0.172 HD
ENDBRANCH   5  16
TORSDOF 4
ENDMDL
MODEL 5
REMARK VINA RESULT: -5.687828667      3.328      5.355
REMARK  4 active torsions:
REMARK  status: ('A' for Active; 'I' for Inactive)
REMARK    1  A    between atoms: O1_2  and  C2_3 
REMARK       I    between atoms: C2_3  and  N1_5 
REMARK    2  A    between atoms: N1_5  and  C3_7 
REMARK    3  A    between atoms: C3_7  and  N2_8 
REMARK    4  A    between atoms: N5_15  and  N6_16 
ROOT
HETATM    1  C3  UNL     1     -13.181  58.878   7.749  1.00  0.00     0.305 C 
HETATM    2  C4  UNL     1     -13.567  60.114   6.985  1.00  0.00     0.214 C 
HETATM    3  N3  UNL     1     -12.246  60.604   6.566  1.00  0.00    -0.124 NA
HETATM    4  N4  UNL     1     -11.386  59.529   6.602  1.00  0.00    -0.033 NA
HETATM    5  N5  UNL     1     -12.106  58.384   6.882  1.00  0.00    -0.075 NA
ENDROOT
BRANCH   1   6
HETATM    6  N1  UNL     1     -12.716  59.115   9.080  1.00  0.00    -0.288 N 
HETATM    7  C2  UNL     1     -13.609  59.498  10.100  1.00  0.00     0.363 C 
HETATM    8  O2  UNL     1     -14.831  59.640   9.880  1.00  0.00    -0.238 OA
ATOM      9  H1  UNL     1     -11.724  59.007   9.293  1.00  0.00     0.168 HD
BRANCH   7  10
HETATM   10  O1  UNL     1     -13.145  59.725  11.379  1.00  0.00    -0.309 OA
HETATM   11  C1  UNL     1     -13.535  58.976  12.506  1.00  0.00     0.215 C 
ENDBRANCH   7  10
ENDBRANCH   1   6
BRANCH   1  12
HETATM   12  N2  UNL     1     -14.240  57.886   7.764  1.00  0.00    -0.034 N 
ATOM     13  H23 UNL     1     -14.422  57.535   8.703  1.00  0.00     0.279 HD
ATOM     14  H22 UNL     1     -15.154  58.300   7.579  1.00  0.00     0.279 HD
ATOM     15  H21 UNL     1     -14.021  57.135   7.110  1.00  0.00     0.279 HD
ENDBRANCH   1  12
BRANCH   5  16
HETATM   16  N6  UNL     1     -12.743  57.992   5.686  1.00  0.00    -0.344 NA
ATOM     17  H62 UNL     1     -13.732  58.223   5.783  1.00  0.00     0.172 HD
ATOM     18  H61 UNL     1     -12.746  56.972   5.704  1.00  0.00     0.172 HD
ENDBRANCH   5  16
TORSDOF 4
ENDMDL
