MODEL 1
REMARK VINA RESULT: -6.477651989      0.000      0.000
REMARK  3 active torsions:
REMARK  status: ('A' for Active; 'I' for Inactive)
REMARK    1  A    between atoms: C2_3  and  C3_4 
REMARK    2  A    between atoms: C3_4  and  N2_5 
REMARK    3  A    between atoms: C3_4  and  N3_9 
ROOT
HETATM    1  N1  UNL     1     -14.805  58.943   7.295  1.00  0.00    -0.094 NA
HETATM    2  C1  UNL     1     -15.280  59.119   8.615  1.00  0.00     0.140 A 
HETATM    3  C2  UNL     1     -16.602  58.832   8.871  1.00  0.00     0.101 A 
HETATM    4  N4  UNL     1     -17.048  59.001  10.128  1.00  0.00    -0.307 N 
ATOM      5  H4  UNL     1     -18.025  58.791  10.335  1.00  0.00     0.170 HD
HETATM    6  C4  UNL     1     -16.255  59.435  11.121  1.00  0.00     0.327 A 
HETATM    7  O1  UNL     1     -16.701  59.585  12.292  1.00  0.00    -0.247 OA
HETATM    8  N5  UNL     1     -14.980  59.717  10.897  1.00  0.00    -0.274 N 
ATOM      9  H5  UNL     1     -14.380  60.045  11.653  1.00  0.00     0.173 HD
HETATM   10  C5  UNL     1     -14.494  59.561   9.655  1.00  0.00     0.275 A 
HETATM   11  O2  UNL     1     -13.278  59.819   9.392  1.00  0.00    -0.266 OA
ENDROOT
BRANCH   3  12
HETATM   12  C3  UNL     1     -17.512  58.354   7.818  1.00  0.00     0.429 C 
BRANCH  12  13
HETATM   13  N2  UNL     1     -18.909  58.667   8.113  1.00  0.00    -0.045 N 
ATOM     14  H23 UNL     1     -18.986  59.507   8.686  1.00  0.00     0.277 HD
ATOM     15  H22 UNL     1     -19.398  58.993   7.280  1.00  0.00     0.277 HD
ATOM     16  H21 UNL     1     -19.397  57.881   8.544  1.00  0.00     0.277 HD
ENDBRANCH  12  13
BRANCH  12  17
HETATM   17  N3  UNL     1     -17.350  56.937   7.570  1.00  0.00    -0.045 N 
ATOM     18  H33 UNL     1     -18.135  56.562   7.037  1.00  0.00     0.277 HD
ATOM     19  H32 UNL     1     -16.602  56.761   6.900  1.00  0.00     0.277 HD
ATOM     20  H31 UNL     1     -17.204  56.416   8.435  1.00  0.00     0.277 HD
ENDBRANCH  12  17
ENDBRANCH   3  12
TORSDOF 3
ENDMDL
MODEL 2
REMARK VINA RESULT: -6.464251485      3.262      4.728
REMARK  3 active torsions:
REMARK  status: ('A' for Active; 'I' for Inactive)
REMARK    1  A    between atoms: C2_3  and  C3_4 
REMARK    2  A    between atoms: C3_4  and  N2_5 
REMARK    3  A    between atoms: C3_4  and  N3_9 
ROOT
HETATM    1  N1  UNL     1     -15.516  59.310   7.323  1.00  0.00    -0.094 NA
HETATM    2  C1  UNL     1     -14.115  59.144   7.411  1.00  0.00     0.140 A 
HETATM    3  C2  UNL     1     -13.529  59.244   8.653  1.00  0.00     0.101 A 
HETATM    4  N4  UNL     1     -12.196  59.085   8.733  1.00  0.00    -0.307 N 
ATOM      5  H4  UNL     1     -11.747  59.154   9.646  1.00  0.00     0.170 HD
HETATM    6  C4  UNL     1     -11.436  58.838   7.654  1.00  0.00     0.327 A 
HETATM    7  O1  UNL     1     -10.187  58.693   7.758  1.00  0.00    -0.247 OA
HETATM    8  N5  UNL     1     -11.979  58.739   6.450  1.00  0.00    -0.274 N 
ATOM      9  H5  UNL     1     -11.399  58.550   5.632  1.00  0.00     0.173 HD
HETATM   10  C5  UNL     1     -13.307  58.891   6.326  1.00  0.00     0.275 A 
HETATM   11  O2  UNL     1     -13.873  58.804   5.192  1.00  0.00    -0.266 OA
ENDROOT
BRANCH   3  12
HETATM   12  C3  UNL     1     -14.318  59.513   9.867  1.00  0.00     0.429 C 
BRANCH  12  13
HETATM   13  N2  UNL     1     -13.471  59.814  11.019  1.00  0.00    -0.045 N 
ATOM     14  H23 UNL     1     -13.712  59.229  11.818  1.00  0.00     0.277 HD
ATOM     15  H22 UNL     1     -12.514  59.495  10.867  1.00  0.00     0.277 HD
ATOM     16  H21 UNL     1     -13.495  60.804  11.266  1.00  0.00     0.277 HD
ENDBRANCH  12  13
BRANCH  12  17
HETATM   17  N3  UNL     1     -15.223  58.426  10.171  1.00  0.00    -0.045 N 
ATOM     18  H33 UNL     1     -16.032  58.431   9.549  1.00  0.00     0.277 HD
ATOM     19  H32 UNL     1     -14.824  57.525   9.908  1.00  0.00     0.277 HD
ATOM     20  H31 UNL     1     -15.508  58.433  11.151  1.00  0.00     0.277 HD
ENDBRANCH  12  17
ENDBRANCH   3  12
TORSDOF 3
ENDMDL
MODEL 3
REMARK VINA RESULT: -6.317153587      2.774      4.379
REMARK  3 active torsions:
REMARK  status: ('A' for Active; 'I' for Inactive)
REMARK    1  A    between atoms: C2_3  and  C3_4 
REMARK    2  A    between atoms: C3_4  and  N2_5 
REMARK    3  A    between atoms: C3_4  and  N3_9 
ROOT
HETATM    1  N1  UNL     1     -15.406  59.512   8.129  1.00  0.00    -0.094 NA
HETATM    2  C1  UNL     1     -14.035  59.252   7.901  1.00  0.00     0.140 A 
HETATM    3  C2  UNL     1     -13.678  58.669   6.706  1.00  0.00     0.101 A 
HETATM    4  N4  UNL     1     -12.373  58.424   6.493  1.00  0.00    -0.307 N 
ATOM      5  H4  UNL     1     -12.091  57.993   5.612  1.00  0.00     0.170 HD
HETATM    6  C4  UNL     1     -11.428  58.725   7.398  1.00  0.00     0.327 A 
HETATM    7  O1  UNL     1     -10.210  58.484   7.171  1.00  0.00    -0.247 OA
HETATM    8  N5  UNL     1     -11.750  59.287   8.553  1.00  0.00    -0.274 N 
ATOM      9  H5  UNL     1     -11.029  59.517   9.238  1.00  0.00     0.173 HD
HETATM   10  C5  UNL     1     -13.042  59.549   8.806  1.00  0.00     0.275 A 
HETATM   11  O2  UNL     1     -13.399  60.086   9.900  1.00  0.00    -0.266 OA
ENDROOT
BRANCH   3  12
HETATM   12  C3  UNL     1     -14.676  58.319   5.682  1.00  0.00     0.429 C 
BRANCH  12  13
HETATM   13  N2  UNL     1     -15.574  57.255   6.128  1.00  0.00    -0.045 N 
ATOM     14  H23 UNL     1     -15.720  56.563   5.395  1.00  0.00     0.277 HD
ATOM     15  H22 UNL     1     -15.125  56.661   6.825  1.00  0.00     0.277 HD
ATOM     16  H21 UNL     1     -16.462  57.621   6.473  1.00  0.00     0.277 HD
ENDBRANCH  12  13
BRANCH  12  17
HETATM   17  N3  UNL     1     -14.053  57.964   4.424  1.00  0.00    -0.045 N 
ATOM     18  H33 UNL     1     -14.749  57.840   3.688  1.00  0.00     0.277 HD
ATOM     19  H32 UNL     1     -13.540  58.751   4.029  1.00  0.00     0.277 HD
ATOM     20  H31 UNL     1     -13.458  57.140   4.515  1.00  0.00     0.277 HD
ENDBRANCH  12  17
ENDBRANCH   3  12
TORSDOF 3
ENDMDL
MODEL 4
REMARK VINA RESULT: -6.117158196      2.284      3.995
REMARK  3 active torsions:
REMARK  status: ('A' for Active; 'I' for Inactive)
REMARK    1  A    between atoms: C2_3  and  C3_4 
REMARK    2  A    between atoms: C3_4  and  N2_5 
REMARK    3  A    between atoms: C3_4  and  N3_9 
ROOT
HETATM    1  N1  UNL     1     -15.518  58.179   6.512  1.00  0.00    -0.094 NA
HETATM    2  C1  UNL     1     -14.840  58.650   7.660  1.00  0.00     0.140 A 
HETATM    3  C2  UNL     1     -13.470  58.763   7.602  1.00  0.00     0.101 A 
HETATM    4  N4  UNL     1     -12.830  59.211   8.696  1.00  0.00    -0.307 N 
ATOM      5  H4  UNL     1     -11.814  59.303   8.669  1.00  0.00     0.170 HD
HETATM    6  C4  UNL     1     -13.480  59.542   9.824  1.00  0.00     0.327 A 
HETATM    7  O1  UNL     1     -12.854  59.960  10.836  1.00  0.00    -0.247 OA
HETATM    8  N5  UNL     1     -14.798  59.441   9.902  1.00  0.00    -0.274 N 
ATOM      9  H5  UNL     1     -15.289  59.695  10.759  1.00  0.00     0.173 HD
HETATM   10  C5  UNL     1     -15.476  58.998   8.830  1.00  0.00     0.275 A 
HETATM   11  O2  UNL     1     -16.740  58.883   8.858  1.00  0.00    -0.266 OA
ENDROOT
BRANCH   3  12
HETATM   12  C3  UNL     1     -12.711  58.413   6.390  1.00  0.00     0.429 C 
BRANCH  12  13
HETATM   13  N2  UNL     1     -11.266  58.486   6.604  1.00  0.00    -0.045 N 
ATOM     14  H23 UNL     1     -10.988  59.411   6.932  1.00  0.00     0.277 HD
ATOM     15  H22 UNL     1     -10.985  57.935   7.414  1.00  0.00     0.277 HD
ATOM     16  H21 UNL     1     -10.740  58.216   5.773  1.00  0.00     0.277 HD
ENDBRANCH  12  13
BRANCH  12  17
HETATM   17  N3  UNL     1     -13.100  59.226   5.258  1.00  0.00    -0.045 N 
ATOM     18  H33 UNL     1     -13.894  58.819   4.764  1.00  0.00     0.277 HD
ATOM     19  H32 UNL     1     -13.530  60.100   5.560  1.00  0.00     0.277 HD
ATOM     20  H31 UNL     1     -12.316  59.397   4.627  1.00  0.00     0.277 HD
ENDBRANCH  12  17
ENDBRANCH   3  12
TORSDOF 3
ENDMDL
MODEL 5
REMARK VINA RESULT: -6.109839663      2.334      4.463
REMARK  3 active torsions:
REMARK  status: ('A' for Active; 'I' for Inactive)
REMARK    1  A    between atoms: C2_3  and  C3_4 
REMARK    2  A    between atoms: C3_4  and  N2_5 
REMARK    3  A    between atoms: C3_4  and  N3_9 
ROOT
HETATM    1  N1  UNL     1     -16.555  58.646  11.035  1.00  0.00    -0.094 NA
HETATM    2  C1  UNL     1     -15.412  58.966  10.268  1.00  0.00     0.140 A 
HETATM    3  C2  UNL     1     -14.191  58.986  10.905  1.00  0.00     0.101 A 
HETATM    4  N4  UNL     1     -13.106  59.290  10.172  1.00  0.00    -0.307 N 
ATOM      5  H4  UNL     1     -12.194  59.308  10.627  1.00  0.00     0.170 HD
HETATM    6  C4  UNL     1     -13.180  59.571   8.860  1.00  0.00     0.327 A 
HETATM    7  O1  UNL     1     -12.145  59.852   8.196  1.00  0.00    -0.247 OA
HETATM    8  N5  UNL     1     -14.344  59.556   8.228  1.00  0.00    -0.274 N 
ATOM      9  H5  UNL     1     -14.397  59.768   7.231  1.00  0.00     0.173 HD
HETATM   10  C5  UNL     1     -15.453  59.257   8.924  1.00  0.00     0.275 A 
HETATM   11  O2  UNL     1     -16.591  59.231   8.361  1.00  0.00    -0.266 OA
ENDROOT
BRANCH   3  12
HETATM   12  C3  UNL     1     -14.056  58.687  12.340  1.00  0.00     0.429 C 
BRANCH  12  13
HETATM   13  N2  UNL     1     -14.405  57.301  12.648  1.00  0.00    -0.045 N 
ATOM     14  H23 UNL     1     -15.165  57.253  13.327  1.00  0.00     0.277 HD
ATOM     15  H22 UNL     1     -14.866  56.852  11.858  1.00  0.00     0.277 HD
ATOM     16  H21 UNL     1     -13.598  56.761  12.960  1.00  0.00     0.277 HD
ENDBRANCH  12  13
BRANCH  12  17
HETATM   17  N3  UNL     1     -14.830  59.599  13.154  1.00  0.00    -0.045 N 
ATOM     18  H33 UNL     1     -15.399  60.220  12.578  1.00  0.00     0.277 HD
ATOM     19  H32 UNL     1     -15.576  59.113  13.650  1.00  0.00     0.277 HD
ATOM     20  H31 UNL     1     -14.239  60.127  13.797  1.00  0.00     0.277 HD
ENDBRANCH  12  17
ENDBRANCH   3  12
TORSDOF 3
ENDMDL
