MODEL 1
REMARK VINA RESULT: -7.260738674      0.000      0.000
REMARK  3 active torsions:
REMARK  status: ('A' for Active; 'I' for Inactive)
REMARK       I    between atoms: N1_2  and  C2_4 
REMARK       I    between atoms: C2_4  and  N2_6 
REMARK    1  A    between atoms: N2_6  and  N3_8 
REMARK    2  A    between atoms: N3_8  and  C3_10 
REMARK    3  A    between atoms: C4_19  and  N8_20 
ROOT
HETATM    1  C3  UNL     1     -14.713  59.321  11.362  1.00  0.00     0.182 A 
HETATM    2  N4  UNL     1     -15.907  60.015  11.176  1.00  0.00    -0.266 N 
ATOM      3  H4  UNL     1     -15.962  60.716  10.436  1.00  0.00     0.190 HD
HETATM    4  N5  UNL     1     -16.954  59.793  11.921  1.00  0.00    -0.226 N 
ATOM      5  H5  UNL     1     -17.807  60.325  11.748  1.00  0.00     0.210 HD
HETATM    6  N6  UNL     1     -16.942  58.896  12.894  1.00  0.00    -0.227 N 
ATOM      7  H6  UNL     1     -17.779  58.747  13.456  1.00  0.00     0.210 HD
HETATM    8  N7  UNL     1     -15.873  58.207  13.136  1.00  0.00    -0.267 N 
ATOM      9  H7  UNL     1     -15.873  57.518  13.889  1.00  0.00     0.190 HD
HETATM   10  C4  UNL     1     -14.739  58.399  12.383  1.00  0.00     0.162 A 
ENDROOT
BRANCH   1  11
HETATM   11  N3  UNL     1     -13.768  59.612  10.592  1.00  0.00    -0.277 N 
ATOM     12  H3  UNL     1     -13.268  60.449  10.893  1.00  0.00     0.189 HD
BRANCH  11  13
HETATM   13  N2  UNL     1     -13.257  59.094   9.476  1.00  0.00    -0.250 N 
HETATM   14  C2  UNL     1     -13.866  59.155   8.183  1.00  0.00     0.334 C 
HETATM   15  N1  UNL     1     -13.312  58.603   7.011  1.00  0.00    -0.346 N 
HETATM   16  O1  UNL     1     -14.985  59.752   8.081  1.00  0.00    -0.246 OA
HETATM   17  C1  UNL     1     -13.963  58.691   5.730  1.00  0.00     0.151 C 
ATOM     18  H1  UNL     1     -12.415  58.122   7.072  1.00  0.00     0.163 HD
ATOM     19  H2  UNL     1     -12.359  58.614   9.550  1.00  0.00     0.192 HD
ENDBRANCH  11  13
ENDBRANCH   1  11
BRANCH  10  20
HETATM   20  N8  UNL     1     -13.735  57.673  12.697  1.00  0.00    -0.381 N 
ATOM     21  H82 UNL     1     -13.358  57.092  11.948  1.00  0.00     0.157 HD
ATOM     22  H81 UNL     1     -13.324  57.660  13.630  1.00  0.00     0.157 HD
ENDBRANCH  10  20
TORSDOF 3
ENDMDL
MODEL 2
REMARK VINA RESULT: -7.226589666      3.824      5.727
REMARK  3 active torsions:
REMARK  status: ('A' for Active; 'I' for Inactive)
REMARK       I    between atoms: N1_2  and  C2_4 
REMARK       I    between atoms: C2_4  and  N2_6 
REMARK    1  A    between atoms: N2_6  and  N3_8 
REMARK    2  A    between atoms: N3_8  and  C3_10 
REMARK    3  A    between atoms: C4_19  and  N8_20 
ROOT
HETATM    1  C3  UNL     1     -12.748  58.705   6.208  1.00  0.00     0.182 A 
HETATM    2  N4  UNL     1     -11.388  58.665   5.906  1.00  0.00    -0.266 N 
ATOM      3  H4  UNL     1     -11.098  58.659   4.928  1.00  0.00     0.190 HD
HETATM    4  N5  UNL     1     -10.478  58.633   6.839  1.00  0.00    -0.226 N 
ATOM      5  H5  UNL     1      -9.494  58.604   6.571  1.00  0.00     0.210 HD
HETATM    6  N6  UNL     1     -10.794  58.639   8.124  1.00  0.00    -0.227 N 
ATOM      7  H6  UNL     1     -10.056  58.616   8.827  1.00  0.00     0.210 HD
HETATM    8  N7  UNL     1     -12.034  58.676   8.493  1.00  0.00    -0.267 N 
ATOM      9  H7  UNL     1     -12.269  58.680   9.486  1.00  0.00     0.190 HD
HETATM   10  C4  UNL     1     -13.037  58.710   7.553  1.00  0.00     0.162 A 
ENDROOT
BRANCH   1  11
HETATM   11  N3  UNL     1     -13.539  58.732   5.236  1.00  0.00    -0.277 N 
ATOM     12  H3  UNL     1     -13.766  59.685   4.949  1.00  0.00     0.189 HD
BRANCH  11  13
HETATM   13  N2  UNL     1     -14.154  57.819   4.486  1.00  0.00    -0.250 N 
HETATM   14  C2  UNL     1     -15.390  57.177   4.814  1.00  0.00     0.334 C 
HETATM   15  N1  UNL     1     -16.029  56.214   4.009  1.00  0.00    -0.346 N 
HETATM   16  O1  UNL     1     -15.954  57.499   5.909  1.00  0.00    -0.246 OA
HETATM   17  C1  UNL     1     -17.275  55.595   4.382  1.00  0.00     0.151 C 
ATOM     18  H1  UNL     1     -15.593  55.944   3.127  1.00  0.00     0.163 HD
ATOM     19  H2  UNL     1     -13.708  57.557   3.606  1.00  0.00     0.192 HD
ENDBRANCH  11  13
ENDBRANCH   1  11
BRANCH  10  20
HETATM   20  N8  UNL     1     -14.228  58.744   8.013  1.00  0.00    -0.381 N 
ATOM     21  H82 UNL     1     -14.899  58.130   7.551  1.00  0.00     0.157 HD
ATOM     22  H81 UNL     1     -14.511  59.341   8.792  1.00  0.00     0.157 HD
ENDBRANCH  10  20
TORSDOF 3
ENDMDL
MODEL 3
REMARK VINA RESULT: -7.151201805      2.051      5.811
REMARK  3 active torsions:
REMARK  status: ('A' for Active; 'I' for Inactive)
REMARK       I    between atoms: N1_2  and  C2_4 
REMARK       I    between atoms: C2_4  and  N2_6 
REMARK    1  A    between atoms: N2_6  and  N3_8 
REMARK    2  A    between atoms: N3_8  and  C3_10 
REMARK    3  A    between atoms: C4_19  and  N8_20 
ROOT
HETATM    1  C3  UNL     1     -13.444  58.801   7.480  1.00  0.00     0.182 A 
HETATM    2  N4  UNL     1     -12.414  58.880   8.416  1.00  0.00    -0.266 N 
ATOM      3  H4  UNL     1     -12.646  59.042   9.396  1.00  0.00     0.190 HD
HETATM    4  N5  UNL     1     -11.162  58.752   8.072  1.00  0.00    -0.226 N 
ATOM      5  H5  UNL     1     -10.441  58.817   8.791  1.00  0.00     0.210 HD
HETATM    6  N6  UNL     1     -10.801  58.541   6.817  1.00  0.00    -0.227 N 
ATOM      7  H6  UNL     1      -9.813  58.444   6.584  1.00  0.00     0.210 HD
HETATM    8  N7  UNL     1     -11.693  58.455   5.884  1.00  0.00    -0.267 N 
ATOM      9  H7  UNL     1     -11.405  58.292   4.919  1.00  0.00     0.190 HD
HETATM   10  C4  UNL     1     -13.029  58.582   6.187  1.00  0.00     0.162 A 
ENDROOT
BRANCH   1  11
HETATM   11  N3  UNL     1     -14.610  58.938   7.917  1.00  0.00    -0.277 N 
ATOM     12  H3  UNL     1     -15.289  58.394   7.384  1.00  0.00     0.189 HD
BRANCH  11  13
HETATM   13  N2  UNL     1     -15.180  59.623   8.908  1.00  0.00    -0.250 N 
HETATM   14  C2  UNL     1     -15.771  59.046  10.076  1.00  0.00     0.334 C 
HETATM   15  N1  UNL     1     -16.369  59.783  11.117  1.00  0.00    -0.346 N 
HETATM   16  O1  UNL     1     -15.755  57.778  10.186  1.00  0.00    -0.246 OA
HETATM   17  C1  UNL     1     -16.951  59.157  12.276  1.00  0.00     0.151 C 
ATOM     18  H1  UNL     1     -16.391  60.801  11.047  1.00  0.00     0.163 HD
ATOM     19  H2  UNL     1     -15.197  60.640   8.827  1.00  0.00     0.192 HD
ENDBRANCH  11  13
ENDBRANCH   1  11
BRANCH  10  20
HETATM   20  N8  UNL     1     -13.834  58.482   5.200  1.00  0.00    -0.381 N 
ATOM     21  H82 UNL     1     -14.723  58.970   5.304  1.00  0.00     0.157 HD
ATOM     22  H81 UNL     1     -13.620  57.954   4.354  1.00  0.00     0.157 HD
ENDBRANCH  10  20
TORSDOF 3
ENDMDL
MODEL 4
REMARK VINA RESULT: -7.117198984      2.352      2.852
REMARK  3 active torsions:
REMARK  status: ('A' for Active; 'I' for Inactive)
REMARK       I    between atoms: N1_2  and  C2_4 
REMARK       I    between atoms: C2_4  and  N2_6 
REMARK    1  A    between atoms: N2_6  and  N3_8 
REMARK    2  A    between atoms: N3_8  and  C3_10 
REMARK    3  A    between atoms: C4_19  and  N8_20 
ROOT
HETATM    1  C3  UNL     1     -16.062  59.403  10.675  1.00  0.00     0.182 A 
HETATM    2  N4  UNL     1     -16.711  59.672  11.878  1.00  0.00    -0.266 N 
ATOM      3  H4  UNL     1     -17.713  59.861  11.870  1.00  0.00     0.190 HD
HETATM    4  N5  UNL     1     -16.071  59.689  13.015  1.00  0.00    -0.226 N 
ATOM      5  H5  UNL     1     -16.586  59.890  13.871  1.00  0.00     0.210 HD
HETATM    6  N6  UNL     1     -14.771  59.451  13.088  1.00  0.00    -0.227 N 
ATOM      7  H6  UNL     1     -14.303  59.471  13.994  1.00  0.00     0.210 HD
HETATM    8  N7  UNL     1     -14.091  59.193  12.018  1.00  0.00    -0.267 N 
ATOM      9  H7  UNL     1     -13.089  59.012  12.084  1.00  0.00     0.190 HD
HETATM   10  C4  UNL     1     -14.713  59.162  10.791  1.00  0.00     0.162 A 
ENDROOT
BRANCH   1  11
HETATM   11  N3  UNL     1     -16.770  59.413   9.641  1.00  0.00    -0.277 N 
ATOM     12  H3  UNL     1     -16.909  60.356   9.276  1.00  0.00     0.189 HD
BRANCH  11  13
HETATM   13  N2  UNL     1     -17.386  58.491   8.902  1.00  0.00    -0.250 N 
HETATM   14  C2  UNL     1     -16.887  57.946   7.677  1.00  0.00     0.334 C 
HETATM   15  N1  UNL     1     -17.549  56.970   6.907  1.00  0.00    -0.346 N 
HETATM   16  O1  UNL     1     -15.765  58.370   7.252  1.00  0.00    -0.246 OA
HETATM   17  C1  UNL     1     -17.006  56.451   5.679  1.00  0.00     0.151 C 
ATOM     18  H1  UNL     1     -18.449  56.617   7.232  1.00  0.00     0.163 HD
ATOM     19  H2  UNL     1     -18.286  58.146   9.236  1.00  0.00     0.192 HD
ENDBRANCH  11  13
ENDBRANCH   1  11
BRANCH  10  20
HETATM   20  N8  UNL     1     -13.959  58.900   9.794  1.00  0.00    -0.381 N 
ATOM     21  H82 UNL     1     -13.142  58.323   9.997  1.00  0.00     0.157 HD
ATOM     22  H81 UNL     1     -14.144  59.236   8.848  1.00  0.00     0.157 HD
ENDBRANCH  10  20
TORSDOF 3
ENDMDL
MODEL 5
REMARK VINA RESULT: -7.061413585      2.071      5.582
REMARK  3 active torsions:
REMARK  status: ('A' for Active; 'I' for Inactive)
REMARK       I    between atoms: N1_2  and  C2_4 
REMARK       I    between atoms: C2_4  and  N2_6 
REMARK    1  A    between atoms: N2_6  and  N3_8 
REMARK    2  A    between atoms: N3_8  and  C3_10 
REMARK    3  A    between atoms: C4_19  and  N8_20 
ROOT
HETATM    1  C3  UNL     1     -13.891  59.269   7.135  1.00  0.00     0.182 A 
HETATM    2  N4  UNL     1     -14.100  58.962   5.792  1.00  0.00    -0.266 N 
ATOM      3  H4  UNL     1     -15.005  59.173   5.370  1.00  0.00     0.190 HD
HETATM    4  N5  UNL     1     -13.171  58.412   5.060  1.00  0.00    -0.226 N 
ATOM      5  H5  UNL     1     -13.368  58.205   4.081  1.00  0.00     0.210 HD
HETATM    6  N6  UNL     1     -11.978  58.117   5.551  1.00  0.00    -0.227 N 
ATOM      7  H6  UNL     1     -11.275  57.689   4.950  1.00  0.00     0.210 HD
HETATM    8  N7  UNL     1     -11.699  58.368   6.790  1.00  0.00    -0.267 N 
ATOM      9  H7  UNL     1     -10.778  58.136   7.160  1.00  0.00     0.190 HD
HETATM   10  C4  UNL     1     -12.641  58.947   7.609  1.00  0.00     0.162 A 
ENDROOT
BRANCH   1  11
HETATM   11  N3  UNL     1     -14.850  59.795   7.747  1.00  0.00    -0.277 N 
ATOM     12  H3  UNL     1     -14.897  60.803   7.599  1.00  0.00     0.189 HD
BRANCH  11  13
HETATM   13  N2  UNL     1     -15.824  59.356   8.543  1.00  0.00    -0.250 N 
HETATM   14  C2  UNL     1     -15.760  59.297   9.971  1.00  0.00     0.334 C 
HETATM   15  N1  UNL     1     -16.799  58.832  10.800  1.00  0.00    -0.346 N 
HETATM   16  O1  UNL     1     -14.689  59.693  10.534  1.00  0.00    -0.246 OA
HETATM   17  C1  UNL     1     -16.687  58.791  12.235  1.00  0.00     0.151 C 
ATOM     18  H1  UNL     1     -17.665  58.511  10.367  1.00  0.00     0.163 HD
ATOM     19  H2  UNL     1     -16.686  59.038   8.099  1.00  0.00     0.192 HD
ENDBRANCH  11  13
ENDBRANCH   1  11
BRANCH  10  20
HETATM   20  N8  UNL     1     -12.273  59.156   8.815  1.00  0.00    -0.381 N 
ATOM     21  H82 UNL     1     -11.267  59.225   8.965  1.00  0.00     0.157 HD
ATOM     22  H81 UNL     1     -12.928  59.250   9.592  1.00  0.00     0.157 HD
ENDBRANCH  10  20
TORSDOF 3
ENDMDL
