MODEL 1
REMARK VINA RESULT: -9.688114272      0.000      0.000
REMARK  12 active torsions:
REMARK  status: ('A' for Active; 'I' for Inactive)
REMARK    1  A    between atoms: C2_2  and  N1_3 
REMARK       I    between atoms: N1_3  and  C3_5 
REMARK    2  A    between atoms: C3_5  and  C4_7 
REMARK    3  A    between atoms: C4_7  and  C5_8 
REMARK    4  A    between atoms: C5_8  and  C6_9 
REMARK    5  A    between atoms: C6_9  and  N2_10 
REMARK    6  A    between atoms: C6_9  and  C28_40 
REMARK    7  A    between atoms: N2_10  and  S1_12 
REMARK    8  A    between atoms: S1_12  and  O4_15 
REMARK    9  A    between atoms: O4_15  and  C7_16 
REMARK   10  A    between atoms: C20_29  and  C21_30 
REMARK   11  A    between atoms: C21_30  and  C22_32 
REMARK   12  A    between atoms: C22_32  and  O6_33 
ROOT
HETATM    1  C7  UNL     1      15.407  19.931  18.541  1.00  0.00     0.145 C 
HETATM    2  C8  UNL     1      15.450  20.980  19.636  1.00  0.00     0.034 C 
HETATM    3  C9  UNL     1      16.703  21.800  19.608  1.00  0.00     0.013 C 
HETATM    4  C10 UNL     1      16.865  22.604  18.297  1.00  0.00    -0.033 C 
HETATM    5  C11 UNL     1      15.680  23.510  18.265  1.00  0.00     0.016 C 
HETATM    6  C12 UNL     1      18.183  23.269  18.448  1.00  0.00    -0.001 C 
HETATM    7  C13 UNL     1      18.091  24.150  19.711  1.00  0.00     0.006 C 
HETATM    8  C14 UNL     1      18.923  23.638  20.832  1.00  0.00     0.000 C 
HETATM    9  C15 UNL     1      20.048  24.552  21.226  1.00  0.00     0.000 C 
HETATM   10  C16 UNL     1      20.792  25.128  20.062  1.00  0.00     0.000 C 
HETATM   11  C17 UNL     1      20.826  24.162  18.868  1.00  0.00     0.000 C 
HETATM   12  C18 UNL     1      20.062  24.704  17.730  1.00  0.00     0.006 C 
HETATM   13  C19 UNL     1      18.707  24.143  17.402  1.00  0.00     0.002 C 
HETATM   14  C20 UNL     1      18.731  23.692  15.983  1.00  0.00     0.062 C 
HETATM   15  C23 UNL     1      17.293  23.425  15.575  1.00  0.00     0.013 C 
HETATM   16  C24 UNL     1      16.817  22.055  15.826  1.00  0.00     0.011 C 
HETATM   17  C25 UNL     1      16.828  21.556  17.214  1.00  0.00    -0.034 C 
HETATM   18  C26 UNL     1      18.001  20.582  17.372  1.00  0.00     0.016 C 
HETATM   19  C27 UNL     1      15.607  20.662  17.287  1.00  0.00     0.043 C 
ENDROOT
BRANCH   1  20
HETATM   20  O4  UNL     1      14.061  19.491  18.547  1.00  0.00    -0.254 OA
BRANCH  20  21
HETATM   21  S1  UNL     1      13.883  17.938  19.077  1.00  0.00     0.358 S 
HETATM   22  O2  UNL     1      15.163  17.162  18.830  1.00  0.00    -0.176 OA
HETATM   23  O3  UNL     1      13.710  17.978  20.572  1.00  0.00    -0.176 OA
BRANCH  21  24
HETATM   24  N2  UNL     1      12.615  17.152  18.274  1.00  0.00    -0.282 N 
ATOM     25  H2  UNL     1      12.768  16.310  17.718  1.00  0.00     0.175 HD
BRANCH  24  26
HETATM   26  C6  UNL     1      11.324  17.735  18.422  1.00  0.00     0.196 C 
BRANCH  26  27
HETATM   27  C5  UNL     1      10.557  17.865  17.138  1.00  0.00     0.046 C 
BRANCH  27  28
HETATM   28  C4  UNL     1      10.146  19.260  16.803  1.00  0.00     0.105 C 
BRANCH  28  29
HETATM   29  C3  UNL     1      10.997  19.784  15.721  1.00  0.00     0.217 C 
HETATM   30  N1  UNL     1      12.209  20.500  15.983  1.00  0.00    -0.361 N 
ATOM     31  H1  UNL     1      12.494  20.652  16.951  1.00  0.00     0.162 HD
HETATM   32  O1  UNL     1      10.669  19.612  14.535  1.00  0.00    -0.274 OA
BRANCH  30  33
HETATM   33  C2  UNL     1      13.036  21.012  14.921  1.00  0.00     0.118 C 
HETATM   34  C1  UNL     1      13.199  22.513  15.068  1.00  0.00     0.026 C 
ENDBRANCH  30  33
ENDBRANCH  28  29
ENDBRANCH  27  28
ENDBRANCH  26  27
BRANCH  26  35
HETATM   35  C28 UNL     1      10.467  17.033  19.410  1.00  0.00     0.197 C 
HETATM   36  O7  UNL     1       9.722  16.079  19.163  1.00  0.00    -0.646 OA
HETATM   37  O8  UNL     1      10.516  17.501  20.726  1.00  0.00    -0.646 OA
ENDBRANCH  26  35
ENDBRANCH  24  26
ENDBRANCH  21  24
ENDBRANCH  20  21
ENDBRANCH   1  20
BRANCH  14  38
HETATM   38  C21 UNL     1      19.089  24.871  15.108  1.00  0.00     0.154 C 
HETATM   39  O5  UNL     1      18.251  25.729  14.921  1.00  0.00    -0.295 OA
BRANCH  38  40
HETATM   40  C22 UNL     1      20.405  25.019  14.478  1.00  0.00     0.242 C 
BRANCH  40  41
HETATM   41  O6  UNL     1      20.595  26.365  14.119  1.00  0.00    -0.394 OA
ATOM     42  H6  UNL     1      21.468  26.471  13.760  1.00  0.00     0.209 HD
ENDBRANCH  40  41
ENDBRANCH  38  40
ENDBRANCH  14  38
TORSDOF 12
ENDMDL
MODEL 2
REMARK VINA RESULT: -9.321648807      4.020      9.120
REMARK  12 active torsions:
REMARK  status: ('A' for Active; 'I' for Inactive)
REMARK    1  A    between atoms: C2_2  and  N1_3 
REMARK       I    between atoms: N1_3  and  C3_5 
REMARK    2  A    between atoms: C3_5  and  C4_7 
REMARK    3  A    between atoms: C4_7  and  C5_8 
REMARK    4  A    between atoms: C5_8  and  C6_9 
REMARK    5  A    between atoms: C6_9  and  N2_10 
REMARK    6  A    between atoms: C6_9  and  C28_40 
REMARK    7  A    between atoms: N2_10  and  S1_12 
REMARK    8  A    between atoms: S1_12  and  O4_15 
REMARK    9  A    between atoms: O4_15  and  C7_16 
REMARK   10  A    between atoms: C20_29  and  C21_30 
REMARK   11  A    between atoms: C21_30  and  C22_32 
REMARK   12  A    between atoms: C22_32  and  O6_33 
ROOT
HETATM    1  C7  UNL     1      17.683  23.510  19.156  1.00  0.00     0.145 C 
HETATM    2  C8  UNL     1      17.748  22.080  19.661  1.00  0.00     0.034 C 
HETATM    3  C9  UNL     1      16.466  21.332  19.458  1.00  0.00     0.013 C 
HETATM    4  C10 UNL     1      16.079  21.198  17.967  1.00  0.00    -0.033 C 
HETATM    5  C11 UNL     1      17.202  20.429  17.356  1.00  0.00     0.016 C 
HETATM    6  C12 UNL     1      14.766  20.508  18.001  1.00  0.00    -0.001 C 
HETATM    7  C13 UNL     1      14.996  19.157  18.708  1.00  0.00     0.006 C 
HETATM    8  C14 UNL     1      14.360  19.093  20.051  1.00  0.00     0.000 C 
HETATM    9  C15 UNL     1      13.261  18.075  20.159  1.00  0.00     0.000 C 
HETATM   10  C16 UNL     1      12.330  18.066  18.987  1.00  0.00     0.000 C 
HETATM   11  C17 UNL     1      12.171  19.464  18.369  1.00  0.00     0.000 C 
HETATM   12  C18 UNL     1      12.737  19.507  17.009  1.00  0.00     0.006 C 
HETATM   13  C19 UNL     1      14.056  20.184  16.767  1.00  0.00     0.002 C 
HETATM   14  C20 UNL     1      13.850  21.223  15.720  1.00  0.00     0.062 C 
HETATM   15  C23 UNL     1      15.225  21.676  15.264  1.00  0.00     0.013 C 
HETATM   16  C24 UNL     1      15.798  22.799  16.025  1.00  0.00     0.011 C 
HETATM   17  C25 UNL     1      16.010  22.621  17.474  1.00  0.00    -0.034 C 
HETATM   18  C26 UNL     1      14.920  23.395  18.224  1.00  0.00     0.016 C 
HETATM   19  C27 UNL     1      17.270  23.414  17.754  1.00  0.00     0.043 C 
ENDROOT
BRANCH   1  20
HETATM   20  O4  UNL     1      19.036  23.930  19.157  1.00  0.00    -0.254 OA
BRANCH  20  21
HETATM   21  S1  UNL     1      19.645  24.174  20.670  1.00  0.00     0.358 S 
HETATM   22  O2  UNL     1      18.513  24.205  21.681  1.00  0.00    -0.176 OA
HETATM   23  O3  UNL     1      20.481  22.975  21.030  1.00  0.00    -0.176 OA
BRANCH  21  24
HETATM   24  N2  UNL     1      20.491  25.639  20.768  1.00  0.00    -0.282 N 
ATOM     25  H2  UNL     1      20.026  26.517  20.996  1.00  0.00     0.175 HD
BRANCH  24  26
HETATM   26  C6  UNL     1      21.892  25.570  20.514  1.00  0.00     0.196 C 
BRANCH  26  27
HETATM   27  C5  UNL     1      22.274  25.862  19.092  1.00  0.00     0.046 C 
BRANCH  27  28
HETATM   28  C4  UNL     1      21.523  26.990  18.470  1.00  0.00     0.105 C 
BRANCH  28  29
HETATM   29  C3  UNL     1      20.977  26.568  17.168  1.00  0.00     0.217 C 
HETATM   30  N1  UNL     1      20.727  25.193  16.856  1.00  0.00    -0.361 N 
ATOM     31  H1  UNL     1      20.932  24.481  17.557  1.00  0.00     0.162 HD
HETATM   32  O1  UNL     1      20.722  27.417  16.297  1.00  0.00    -0.274 OA
BRANCH  30  33
HETATM   33  C2  UNL     1      20.196  24.787  15.580  1.00  0.00     0.118 C 
HETATM   34  C1  UNL     1      21.310  24.720  14.551  1.00  0.00     0.026 C 
ENDBRANCH  30  33
ENDBRANCH  28  29
ENDBRANCH  27  28
ENDBRANCH  26  27
BRANCH  26  35
HETATM   35  C28 UNL     1      22.698  26.442  21.404  1.00  0.00     0.197 C 
HETATM   36  O7  UNL     1      22.271  27.044  22.395  1.00  0.00    -0.646 OA
HETATM   37  O8  UNL     1      24.050  26.588  21.082  1.00  0.00    -0.646 OA
ENDBRANCH  26  35
ENDBRANCH  24  26
ENDBRANCH  21  24
ENDBRANCH  20  21
ENDBRANCH   1  20
BRANCH  14  38
HETATM   38  C21 UNL     1      13.314  20.554  14.475  1.00  0.00     0.154 C 
HETATM   39  O5  UNL     1      12.128  20.646  14.233  1.00  0.00    -0.295 OA
BRANCH  38  40
HETATM   40  C22 UNL     1      14.168  19.799  13.552  1.00  0.00     0.242 C 
BRANCH  40  41
HETATM   41  O6  UNL     1      13.681  18.485  13.444  1.00  0.00    -0.394 OA
ATOM     42  H6  UNL     1      14.407  17.877  13.511  1.00  0.00     0.209 HD
ENDBRANCH  40  41
ENDBRANCH  38  40
ENDBRANCH  14  38
TORSDOF 12
ENDMDL
MODEL 3
REMARK VINA RESULT: -9.261572818      4.063      9.116
REMARK  12 active torsions:
REMARK  status: ('A' for Active; 'I' for Inactive)
REMARK    1  A    between atoms: C2_2  and  N1_3 
REMARK       I    between atoms: N1_3  and  C3_5 
REMARK    2  A    between atoms: C3_5  and  C4_7 
REMARK    3  A    between atoms: C4_7  and  C5_8 
REMARK    4  A    between atoms: C5_8  and  C6_9 
REMARK    5  A    between atoms: C6_9  and  N2_10 
REMARK    6  A    between atoms: C6_9  and  C28_40 
REMARK    7  A    between atoms: N2_10  and  S1_12 
REMARK    8  A    between atoms: S1_12  and  O4_15 
REMARK    9  A    between atoms: O4_15  and  C7_16 
REMARK   10  A    between atoms: C20_29  and  C21_30 
REMARK   11  A    between atoms: C21_30  and  C22_32 
REMARK   12  A    between atoms: C22_32  and  O6_33 
ROOT
HETATM    1  C7  UNL     1      18.137  23.307  19.107  1.00  0.00     0.145 C 
HETATM    2  C8  UNL     1      18.118  21.865  19.578  1.00  0.00     0.034 C 
HETATM    3  C9  UNL     1      16.786  21.207  19.384  1.00  0.00     0.013 C 
HETATM    4  C10 UNL     1      16.363  21.134  17.899  1.00  0.00    -0.033 C 
HETATM    5  C11 UNL     1      17.422  20.308  17.247  1.00  0.00     0.016 C 
HETATM    6  C12 UNL     1      15.008  20.530  17.943  1.00  0.00    -0.001 C 
HETATM    7  C13 UNL     1      15.163  19.150  18.615  1.00  0.00     0.006 C 
HETATM    8  C14 UNL     1      14.549  19.095  19.968  1.00  0.00     0.000 C 
HETATM    9  C15 UNL     1      13.388  18.148  20.075  1.00  0.00     0.000 C 
HETATM   10  C16 UNL     1      12.437  18.229  18.922  1.00  0.00     0.000 C 
HETATM   11  C17 UNL     1      12.358  19.649  18.340  1.00  0.00     0.000 C 
HETATM   12  C18 UNL     1      12.900  19.687  16.970  1.00  0.00     0.006 C 
HETATM   13  C19 UNL     1      14.255  20.282  16.717  1.00  0.00     0.002 C 
HETATM   14  C20 UNL     1      14.098  21.358  15.698  1.00  0.00     0.062 C 
HETATM   15  C23 UNL     1      15.491  21.731  15.224  1.00  0.00     0.013 C 
HETATM   16  C24 UNL     1      16.150  22.795  15.999  1.00  0.00     0.011 C 
HETATM   17  C25 UNL     1      16.378  22.570  17.439  1.00  0.00    -0.034 C 
HETATM   18  C26 UNL     1      15.355  23.395  18.229  1.00  0.00     0.016 C 
HETATM   19  C27 UNL     1      17.692  23.272  17.711  1.00  0.00     0.043 C 
ENDROOT
BRANCH   1  20
HETATM   20  O4  UNL     1      19.514  23.639  19.089  1.00  0.00    -0.254 OA
BRANCH  20  21
HETATM   21  S1  UNL     1      20.046  24.298  20.505  1.00  0.00     0.358 S 
HETATM   22  O2  UNL     1      18.904  24.363  21.503  1.00  0.00    -0.176 OA
HETATM   23  O3  UNL     1      21.058  23.356  21.101  1.00  0.00    -0.176 OA
BRANCH  21  24
HETATM   24  N2  UNL     1      20.643  25.867  20.271  1.00  0.00    -0.282 N 
ATOM     25  H2  UNL     1      20.331  26.654  20.839  1.00  0.00     0.175 HD
BRANCH  24  26
HETATM   26  C6  UNL     1      21.607  26.020  19.233  1.00  0.00     0.196 C 
BRANCH  26  27
HETATM   27  C5  UNL     1      21.367  27.202  18.340  1.00  0.00     0.046 C 
BRANCH  27  28
HETATM   28  C4  UNL     1      22.108  27.158  17.046  1.00  0.00     0.105 C 
BRANCH  28  29
HETATM   29  C3  UNL     1      21.160  27.279  15.924  1.00  0.00     0.217 C 
HETATM   30  N1  UNL     1      20.468  26.146  15.386  1.00  0.00    -0.361 N 
ATOM     31  H1  UNL     1      20.635  25.226  15.792  1.00  0.00     0.162 HD
HETATM   32  O1  UNL     1      20.942  28.389  15.412  1.00  0.00    -0.274 OA
BRANCH  30  33
HETATM   33  C2  UNL     1      19.544  26.271  14.289  1.00  0.00     0.118 C 
HETATM   34  C1  UNL     1      18.545  25.129  14.320  1.00  0.00     0.026 C 
ENDBRANCH  30  33
ENDBRANCH  28  29
ENDBRANCH  27  28
ENDBRANCH  26  27
BRANCH  26  35
HETATM   35  C28 UNL     1      23.005  26.085  19.730  1.00  0.00     0.197 C 
HETATM   36  O7  UNL     1      23.549  27.085  20.210  1.00  0.00    -0.646 OA
HETATM   37  O8  UNL     1      23.758  24.911  19.639  1.00  0.00    -0.646 OA
ENDBRANCH  26  35
ENDBRANCH  24  26
ENDBRANCH  21  24
ENDBRANCH  20  21
ENDBRANCH   1  20
BRANCH  14  38
HETATM   38  C21 UNL     1      13.496  20.755  14.450  1.00  0.00     0.154 C 
HETATM   39  O5  UNL     1      12.366  21.071  14.140  1.00  0.00    -0.295 OA
BRANCH  38  40
HETATM   40  C22 UNL     1      14.222  19.805  13.601  1.00  0.00     0.242 C 
BRANCH  40  41
HETATM   41  O6  UNL     1      13.525  18.585  13.574  1.00  0.00    -0.394 OA
ATOM     42  H6  UNL     1      13.912  17.990  14.206  1.00  0.00     0.209 HD
ENDBRANCH  40  41
ENDBRANCH  38  40
ENDBRANCH  14  38
TORSDOF 12
ENDMDL
MODEL 4
REMARK VINA RESULT: -9.171009697      1.078      1.431
REMARK  12 active torsions:
REMARK  status: ('A' for Active; 'I' for Inactive)
REMARK    1  A    between atoms: C2_2  and  N1_3 
REMARK       I    between atoms: N1_3  and  C3_5 
REMARK    2  A    between atoms: C3_5  and  C4_7 
REMARK    3  A    between atoms: C4_7  and  C5_8 
REMARK    4  A    between atoms: C5_8  and  C6_9 
REMARK    5  A    between atoms: C6_9  and  N2_10 
REMARK    6  A    between atoms: C6_9  and  C28_40 
REMARK    7  A    between atoms: N2_10  and  S1_12 
REMARK    8  A    between atoms: S1_12  and  O4_15 
REMARK    9  A    between atoms: O4_15  and  C7_16 
REMARK   10  A    between atoms: C20_29  and  C21_30 
REMARK   11  A    between atoms: C21_30  and  C22_32 
REMARK   12  A    between atoms: C22_32  and  O6_33 
ROOT
HETATM    1  C7  UNL     1      15.397  19.921  18.570  1.00  0.00     0.145 C 
HETATM    2  C8  UNL     1      15.449  20.972  19.663  1.00  0.00     0.034 C 
HETATM    3  C9  UNL     1      16.702  21.792  19.622  1.00  0.00     0.013 C 
HETATM    4  C10 UNL     1      16.853  22.593  18.309  1.00  0.00    -0.033 C 
HETATM    5  C11 UNL     1      15.668  23.500  18.284  1.00  0.00     0.016 C 
HETATM    6  C12 UNL     1      18.173  23.258  18.446  1.00  0.00    -0.001 C 
HETATM    7  C13 UNL     1      18.092  24.141  19.708  1.00  0.00     0.006 C 
HETATM    8  C14 UNL     1      18.933  23.631  20.824  1.00  0.00     0.000 C 
HETATM    9  C15 UNL     1      20.062  24.546  21.206  1.00  0.00     0.000 C 
HETATM   10  C16 UNL     1      20.796  25.119  20.034  1.00  0.00     0.000 C 
HETATM   11  C17 UNL     1      20.820  24.150  18.842  1.00  0.00     0.000 C 
HETATM   12  C18 UNL     1      20.046  24.691  17.709  1.00  0.00     0.006 C 
HETATM   13  C19 UNL     1      18.688  24.130  17.395  1.00  0.00     0.002 C 
HETATM   14  C20 UNL     1      18.700  23.676  15.976  1.00  0.00     0.062 C 
HETATM   15  C23 UNL     1      17.258  23.409  15.581  1.00  0.00     0.013 C 
HETATM   16  C24 UNL     1      16.783  22.039  15.839  1.00  0.00     0.011 C 
HETATM   17  C25 UNL     1      16.806  21.543  17.228  1.00  0.00    -0.034 C 
HETATM   18  C26 UNL     1      17.981  20.569  17.378  1.00  0.00     0.016 C 
HETATM   19  C27 UNL     1      15.586  20.650  17.313  1.00  0.00     0.043 C 
ENDROOT
BRANCH   1  20
HETATM   20  O4  UNL     1      14.050  19.481  18.588  1.00  0.00    -0.254 OA
BRANCH  20  21
HETATM   21  S1  UNL     1      13.879  17.921  19.098  1.00  0.00     0.358 S 
HETATM   22  O2  UNL     1      15.162  17.153  18.840  1.00  0.00    -0.176 OA
HETATM   23  O3  UNL     1      13.707  17.940  20.593  1.00  0.00    -0.176 OA
BRANCH  21  24
HETATM   24  N2  UNL     1      12.614  17.140  18.285  1.00  0.00    -0.282 N 
ATOM     25  H2  UNL     1      12.772  16.318  17.703  1.00  0.00     0.175 HD
BRANCH  24  26
HETATM   26  C6  UNL     1      11.316  17.700  18.464  1.00  0.00     0.196 C 
BRANCH  26  27
HETATM   27  C5  UNL     1      10.466  17.690  17.227  1.00  0.00     0.046 C 
BRANCH  27  28
HETATM   28  C4  UNL     1      10.417  18.992  16.500  1.00  0.00     0.105 C 
BRANCH  28  29
HETATM   29  C3  UNL     1      10.570  18.761  15.053  1.00  0.00     0.217 C 
HETATM   30  N1  UNL     1      11.664  18.011  14.512  1.00  0.00    -0.361 N 
ATOM     31  H1  UNL     1      12.360  17.624  15.148  1.00  0.00     0.162 HD
HETATM   32  O1  UNL     1       9.735  19.225  14.259  1.00  0.00    -0.274 OA
BRANCH  30  33
HETATM   33  C2  UNL     1      11.808  17.791  13.096  1.00  0.00     0.118 C 
HETATM   34  C1  UNL     1      12.470  16.448  12.846  1.00  0.00     0.026 C 
ENDBRANCH  30  33
ENDBRANCH  28  29
ENDBRANCH  27  28
ENDBRANCH  26  27
BRANCH  26  35
HETATM   35  C28 UNL     1      10.547  17.071  19.567  1.00  0.00     0.197 C 
HETATM   36  O7  UNL     1      10.540  17.449  20.743  1.00  0.00    -0.646 OA
HETATM   37  O8  UNL     1       9.770  15.957  19.233  1.00  0.00    -0.646 OA
ENDBRANCH  26  35
ENDBRANCH  24  26
ENDBRANCH  21  24
ENDBRANCH  20  21
ENDBRANCH   1  20
BRANCH  14  38
HETATM   38  C21 UNL     1      19.050  24.853  15.096  1.00  0.00     0.154 C 
HETATM   39  O5  UNL     1      18.235  25.743  14.967  1.00  0.00    -0.295 OA
BRANCH  38  40
HETATM   40  C22 UNL     1      20.333  24.962  14.393  1.00  0.00     0.242 C 
BRANCH  40  41
HETATM   41  O6  UNL     1      20.901  26.219  14.663  1.00  0.00    -0.394 OA
ATOM     42  H6  UNL     1      21.786  26.241  14.319  1.00  0.00     0.209 HD
ENDBRANCH  40  41
ENDBRANCH  38  40
ENDBRANCH  14  38
TORSDOF 12
ENDMDL
MODEL 5
REMARK VINA RESULT: -9.169317378      2.339      4.708
REMARK  12 active torsions:
REMARK  status: ('A' for Active; 'I' for Inactive)
REMARK    1  A    between atoms: C2_2  and  N1_3 
REMARK       I    between atoms: N1_3  and  C3_5 
REMARK    2  A    between atoms: C3_5  and  C4_7 
REMARK    3  A    between atoms: C4_7  and  C5_8 
REMARK    4  A    between atoms: C5_8  and  C6_9 
REMARK    5  A    between atoms: C6_9  and  N2_10 
REMARK    6  A    between atoms: C6_9  and  C28_40 
REMARK    7  A    between atoms: N2_10  and  S1_12 
REMARK    8  A    between atoms: S1_12  and  O4_15 
REMARK    9  A    between atoms: O4_15  and  C7_16 
REMARK   10  A    between atoms: C20_29  and  C21_30 
REMARK   11  A    between atoms: C21_30  and  C22_32 
REMARK   12  A    between atoms: C22_32  and  O6_33 
ROOT
HETATM    1  C7  UNL     1      15.186  22.498  16.749  1.00  0.00     0.145 C 
HETATM    2  C8  UNL     1      16.211  22.386  15.635  1.00  0.00     0.034 C 
HETATM    3  C9  UNL     1      17.343  23.356  15.786  1.00  0.00     0.013 C 
HETATM    4  C10 UNL     1      18.155  23.133  17.082  1.00  0.00    -0.033 C 
HETATM    5  C11 UNL     1      18.702  21.751  16.949  1.00  0.00     0.016 C 
HETATM    6  C12 UNL     1      19.156  24.229  17.068  1.00  0.00    -0.001 C 
HETATM    7  C13 UNL     1      19.983  24.054  15.778  1.00  0.00     0.006 C 
HETATM    8  C14 UNL     1      19.723  25.123  14.777  1.00  0.00     0.000 C 
HETATM    9  C15 UNL     1      20.912  25.995  14.492  1.00  0.00     0.000 C 
HETATM   10  C16 UNL     1      21.664  26.408  15.718  1.00  0.00     0.000 C 
HETATM   11  C17 UNL     1      20.740  26.559  16.935  1.00  0.00     0.000 C 
HETATM   12  C18 UNL     1      21.048  25.545  17.959  1.00  0.00     0.006 C 
HETATM   13  C19 UNL     1      20.137  24.365  18.142  1.00  0.00     0.002 C 
HETATM   14  C20 UNL     1      19.703  24.339  19.567  1.00  0.00     0.062 C 
HETATM   15  C23 UNL     1      19.051  22.989  19.811  1.00  0.00     0.013 C 
HETATM   16  C24 UNL     1      17.604  22.938  19.546  1.00  0.00     0.011 C 
HETATM   17  C25 UNL     1      17.133  23.252  18.184  1.00  0.00    -0.034 C 
HETATM   18  C26 UNL     1      16.518  24.656  18.194  1.00  0.00     0.016 C 
HETATM   19  C27 UNL     1      15.939  22.339  17.995  1.00  0.00     0.043 C 
ENDROOT
BRANCH   1  20
HETATM   20  O4  UNL     1      14.394  21.334  16.597  1.00  0.00    -0.254 OA
BRANCH  20  21
HETATM   21  S1  UNL     1      13.325  21.428  15.344  1.00  0.00     0.358 S 
HETATM   22  O2  UNL     1      13.244  22.859  14.845  1.00  0.00    -0.176 OA
HETATM   23  O3  UNL     1      13.884  20.626  14.199  1.00  0.00    -0.176 OA
BRANCH  21  24
HETATM   24  N2  UNL     1      11.774  20.936  15.816  1.00  0.00    -0.282 N 
ATOM     25  H2  UNL     1      11.219  21.468  16.485  1.00  0.00     0.175 HD
BRANCH  24  26
HETATM   26  C6  UNL     1      11.291  19.735  15.221  1.00  0.00     0.196 C 
BRANCH  26  27
HETATM   27  C5  UNL     1      11.094  18.605  16.189  1.00  0.00     0.046 C 
BRANCH  27  28
HETATM   28  C4  UNL     1      10.663  19.028  17.553  1.00  0.00     0.105 C 
BRANCH  28  29
HETATM   29  C3  UNL     1      11.717  18.705  18.531  1.00  0.00     0.217 C 
HETATM   30  N1  UNL     1      13.109  18.822  18.218  1.00  0.00    -0.361 N 
ATOM     31  H1  UNL     1      13.383  19.139  17.288  1.00  0.00     0.162 HD
HETATM   32  O1  UNL     1      11.408  18.314  19.669  1.00  0.00    -0.274 OA
BRANCH  30  33
HETATM   33  C2  UNL     1      14.134  18.503  19.178  1.00  0.00     0.118 C 
HETATM   34  C1  UNL     1      14.548  19.755  19.930  1.00  0.00     0.026 C 
ENDBRANCH  30  33
ENDBRANCH  28  29
ENDBRANCH  27  28
ENDBRANCH  26  27
BRANCH  26  35
HETATM   35  C28 UNL     1      10.033  19.919  14.453  1.00  0.00     0.197 C 
HETATM   36  O7  UNL     1       9.577  19.124  13.626  1.00  0.00    -0.646 OA
HETATM   37  O8  UNL     1       9.317  21.095  14.696  1.00  0.00    -0.646 OA
ENDBRANCH  26  35
ENDBRANCH  24  26
ENDBRANCH  21  24
ENDBRANCH  20  21
ENDBRANCH   1  20
BRANCH  14  38
HETATM   38  C21 UNL     1      20.932  24.253  20.443  1.00  0.00     0.154 C 
HETATM   39  O5  UNL     1      21.711  23.340  20.261  1.00  0.00    -0.295 OA
BRANCH  38  40
HETATM   40  C22 UNL     1      21.219  25.227  21.501  1.00  0.00     0.242 C 
BRANCH  40  41
HETATM   41  O6  UNL     1      20.729  26.486  21.113  1.00  0.00    -0.394 OA
ATOM     42  H6  UNL     1      21.096  26.716  20.267  1.00  0.00     0.209 HD
ENDBRANCH  40  41
ENDBRANCH  38  40
ENDBRANCH  14  38
TORSDOF 12
ENDMDL
