MODEL 1
REMARK VINA RESULT: -8.540346128      0.000      0.000
REMARK  13 active torsions:
REMARK  status: ('A' for Active; 'I' for Inactive)
REMARK    1  A    between atoms: C2_2  and  C3_3 
REMARK    2  A    between atoms: C2_2  and  C6_8 
REMARK    3  A    between atoms: C3_3  and  C4_4 
REMARK    4  A    between atoms: C4_4  and  C5_5 
REMARK    5  A    between atoms: C6_8  and  O3_9 
REMARK    6  A    between atoms: C6_8  and  C7_11 
REMARK    7  A    between atoms: C7_11  and  C9_13 
REMARK    8  A    between atoms: C19_24  and  C21_26 
REMARK    9  A    between atoms: C23_28  and  C24_29 
REMARK   10  A    between atoms: C24_29  and  C25_30 
REMARK       I    between atoms: C25_30  and  N1_32 
REMARK   11  A    between atoms: N1_32  and  C26_34 
REMARK   12  A    between atoms: C26_34  and  C27_35 
REMARK   13  A    between atoms: C27_35  and  N2_36 
ROOT
HETATM    1  C9  UNL     1      16.053  21.834  15.911  1.00  0.00     0.013 C 
HETATM    2  C10 UNL     1      17.427  22.321  15.656  1.00  0.00     0.065 C 
HETATM    3  C11 UNL     1      18.457  21.931  16.659  1.00  0.00     0.136 C 
HETATM    4  O4  UNL     1      18.762  20.855  17.109  1.00  0.00    -0.297 OA
HETATM    5  C12 UNL     1      19.130  23.190  17.065  1.00  0.00     0.056 C 
HETATM    6  C13 UNL     1      18.395  24.019  18.046  1.00  0.00     0.017 C 
HETATM    7  C14 UNL     1      16.918  24.234  17.640  1.00  0.00    -0.013 C 
HETATM    8  C15 UNL     1      16.937  24.735  16.253  1.00  0.00     0.010 C 
HETATM    9  C16 UNL     1      17.636  23.756  15.378  1.00  0.00    -0.002 C 
HETATM   10  C17 UNL     1      19.139  23.903  15.705  1.00  0.00     0.017 C 
HETATM   11  C18 UNL     1      16.175  23.099  18.072  1.00  0.00     0.016 C 
HETATM   12  C19 UNL     1      15.339  22.252  17.133  1.00  0.00    -0.019 C 
HETATM   13  C20 UNL     1      14.046  23.024  16.937  1.00  0.00     0.018 C 
ENDROOT
BRANCH  12  14
HETATM   14  C21 UNL     1      14.874  21.124  18.060  1.00  0.00     0.087 C 
HETATM   15  C22 UNL     1      15.585  20.908  19.340  1.00  0.00     0.050 C 
HETATM   16  C23 UNL     1      14.274  20.189  19.684  1.00  0.00     0.087 C 
HETATM   17  N3  UNL     1      13.666  21.082  18.705  1.00  0.00    -0.412 N 
ATOM     18  H3  UNL     1      12.745  21.494  18.562  1.00  0.00     0.154 HD
BRANCH  16  19
HETATM   19  C24 UNL     1      14.247  18.732  19.389  1.00  0.00     0.127 C 
BRANCH  19  20
HETATM   20  C25 UNL     1      13.175  18.061  20.211  1.00  0.00     0.219 C 
HETATM   21  O5  UNL     1      13.139  18.320  21.427  1.00  0.00    -0.274 OA
HETATM   22  N1  UNL     1      12.274  17.185  19.594  1.00  0.00    -0.359 N 
ATOM     23  H1  UNL     1      12.365  17.023  18.591  1.00  0.00     0.162 HD
BRANCH  22  24
HETATM   24  C26 UNL     1      11.229  16.504  20.305  1.00  0.00     0.152 C 
BRANCH  24  25
HETATM   25  C27 UNL     1       9.950  16.502  19.545  1.00  0.00     0.292 C 
BRANCH  25  26
HETATM   26  N2  UNL     1       9.652  15.214  18.944  1.00  0.00     0.094 N 
HETATM   27  C28 UNL     1      10.379  14.951  17.748  1.00  0.00     0.298 C 
HETATM   28  C29 UNL     1       9.671  15.227  16.469  1.00  0.00     0.198 C 
HETATM   29  O6  UNL     1       8.285  15.289  16.616  1.00  0.00    -0.388 OA
HETATM   30  C30 UNL     1       7.887  14.356  17.575  1.00  0.00     0.198 C 
HETATM   31  C31 UNL     1       8.262  14.909  18.929  1.00  0.00     0.298 C 
ENDBRANCH  25  26
ENDBRANCH  24  25
ENDBRANCH  22  24
ENDBRANCH  19  20
ENDBRANCH  16  19
ENDBRANCH  12  14
BRANCH   1  32
HETATM   32  C7  UNL     1      15.206  21.593  14.707  1.00  0.00     0.016 C 
HETATM   33  C8  UNL     1      15.900  21.749  13.371  1.00  0.00     0.013 C 
BRANCH  32  34
HETATM   34  C6  UNL     1      14.421  20.317  14.654  1.00  0.00     0.126 C 
BRANCH  34  35
HETATM   35  C2  UNL     1      13.005  20.500  14.148  1.00  0.00     0.011 C 
HETATM   36  C1  UNL     1      12.594  19.174  13.505  1.00  0.00     0.012 C 
BRANCH  35  37
HETATM   37  C3  UNL     1      11.993  20.675  15.261  1.00  0.00     0.017 C 
BRANCH  37  38
HETATM   38  C4  UNL     1      12.097  19.478  16.189  1.00  0.00     0.113 C 
BRANCH  38  39
HETATM   39  C5  UNL     1      10.830  19.243  16.918  1.00  0.00     0.172 C 
HETATM   40  O1  UNL     1      10.814  19.506  18.159  1.00  0.00    -0.648 OA
HETATM   41  O2  UNL     1       9.685  18.767  16.351  1.00  0.00    -0.648 OA
ENDBRANCH  38  39
ENDBRANCH  37  38
ENDBRANCH  35  37
ENDBRANCH  34  35
BRANCH  34  42
HETATM   42  O3  UNL     1      14.973  19.360  13.762  1.00  0.00    -0.395 OA
ATOM     43  H3  UNL     1      15.531  18.831  14.320  1.00  0.00     0.210 HD
ENDBRANCH  34  42
ENDBRANCH  32  34
ENDBRANCH   1  32
TORSDOF 13
ENDMDL
MODEL 2
REMARK VINA RESULT: -8.527469885      1.157      1.407
REMARK  13 active torsions:
REMARK  status: ('A' for Active; 'I' for Inactive)
REMARK    1  A    between atoms: C2_2  and  C3_3 
REMARK    2  A    between atoms: C2_2  and  C6_8 
REMARK    3  A    between atoms: C3_3  and  C4_4 
REMARK    4  A    between atoms: C4_4  and  C5_5 
REMARK    5  A    between atoms: C6_8  and  O3_9 
REMARK    6  A    between atoms: C6_8  and  C7_11 
REMARK    7  A    between atoms: C7_11  and  C9_13 
REMARK    8  A    between atoms: C19_24  and  C21_26 
REMARK    9  A    between atoms: C23_28  and  C24_29 
REMARK   10  A    between atoms: C24_29  and  C25_30 
REMARK       I    between atoms: C25_30  and  N1_32 
REMARK   11  A    between atoms: N1_32  and  C26_34 
REMARK   12  A    between atoms: C26_34  and  C27_35 
REMARK   13  A    between atoms: C27_35  and  N2_36 
ROOT
HETATM    1  C9  UNL     1      15.962  21.635  16.173  1.00  0.00     0.013 C 
HETATM    2  C10 UNL     1      17.351  22.114  15.993  1.00  0.00     0.065 C 
HETATM    3  C11 UNL     1      18.362  21.561  16.937  1.00  0.00     0.136 C 
HETATM    4  O4  UNL     1      18.634  20.426  17.236  1.00  0.00    -0.297 OA
HETATM    5  C12 UNL     1      19.065  22.733  17.516  1.00  0.00     0.056 C 
HETATM    6  C13 UNL     1      18.345  23.440  18.599  1.00  0.00     0.017 C 
HETATM    7  C14 UNL     1      16.877  23.749  18.220  1.00  0.00    -0.013 C 
HETATM    8  C15 UNL     1      16.921  24.435  16.916  1.00  0.00     0.010 C 
HETATM    9  C16 UNL     1      17.600  23.568  15.917  1.00  0.00    -0.002 C 
HETATM   10  C17 UNL     1      19.103  23.626  16.267  1.00  0.00     0.017 C 
HETATM   11  C18 UNL     1      16.100  22.587  18.488  1.00  0.00     0.016 C 
HETATM   12  C19 UNL     1      15.250  21.901  17.438  1.00  0.00    -0.019 C 
HETATM   13  C20 UNL     1      13.979  22.728  17.344  1.00  0.00     0.018 C 
ENDROOT
BRANCH  12  14
HETATM   14  C21 UNL     1      14.747  20.668  18.198  1.00  0.00     0.087 C 
HETATM   15  C22 UNL     1      15.117  20.503  19.621  1.00  0.00     0.050 C 
HETATM   16  C23 UNL     1      13.899  19.572  19.594  1.00  0.00     0.087 C 
HETATM   17  N3  UNL     1      13.436  20.405  18.492  1.00  0.00    -0.412 N 
ATOM     18  H3  UNL     1      12.530  20.675  18.108  1.00  0.00     0.154 HD
BRANCH  16  19
HETATM   19  C24 UNL     1      14.191  18.144  19.294  1.00  0.00     0.127 C 
BRANCH  19  20
HETATM   20  C25 UNL     1      12.938  17.320  19.449  1.00  0.00     0.219 C 
HETATM   21  O5  UNL     1      12.531  17.109  20.606  1.00  0.00    -0.274 OA
HETATM   22  N1  UNL     1      12.287  16.828  18.312  1.00  0.00    -0.359 N 
ATOM     23  H1  UNL     1      12.679  17.044  17.396  1.00  0.00     0.162 HD
BRANCH  22  24
HETATM   24  C26 UNL     1      11.093  16.032  18.374  1.00  0.00     0.152 C 
BRANCH  24  25
HETATM   25  C27 UNL     1      10.854  15.291  17.106  1.00  0.00     0.292 C 
BRANCH  25  26
HETATM   26  N2  UNL     1      10.556  13.885  17.322  1.00  0.00     0.094 N 
HETATM   27  C28 UNL     1      10.572  13.102  16.133  1.00  0.00     0.298 C 
HETATM   28  C29 UNL     1       9.253  12.839  15.495  1.00  0.00     0.198 C 
HETATM   29  O6  UNL     1       8.181  13.026  16.368  1.00  0.00    -0.388 OA
HETATM   30  C30 UNL     1       8.557  12.612  17.647  1.00  0.00     0.198 C 
HETATM   31  C31 UNL     1       9.470  13.672  18.216  1.00  0.00     0.298 C 
ENDBRANCH  25  26
ENDBRANCH  24  25
ENDBRANCH  22  24
ENDBRANCH  19  20
ENDBRANCH  16  19
ENDBRANCH  12  14
BRANCH   1  32
HETATM   32  C7  UNL     1      15.118  21.586  14.944  1.00  0.00     0.016 C 
HETATM   33  C8  UNL     1      15.843  21.826  13.636  1.00  0.00     0.013 C 
BRANCH  32  34
HETATM   34  C6  UNL     1      14.241  20.386  14.751  1.00  0.00     0.126 C 
BRANCH  34  35
HETATM   35  C2  UNL     1      12.778  20.657  15.036  1.00  0.00     0.011 C 
HETATM   36  C1  UNL     1      12.416  21.944  14.292  1.00  0.00     0.012 C 
BRANCH  35  37
HETATM   37  C3  UNL     1      11.851  19.629  14.420  1.00  0.00     0.017 C 
BRANCH  37  38
HETATM   38  C4  UNL     1      11.360  18.710  15.524  1.00  0.00     0.113 C 
BRANCH  38  39
HETATM   39  C5  UNL     1      10.445  19.413  16.451  1.00  0.00     0.172 C 
HETATM   40  O1  UNL     1       9.445  20.006  15.944  1.00  0.00    -0.648 OA
HETATM   41  O2  UNL     1      10.601  19.469  17.804  1.00  0.00    -0.648 OA
ENDBRANCH  38  39
ENDBRANCH  37  38
ENDBRANCH  35  37
ENDBRANCH  34  35
BRANCH  34  42
HETATM   42  O3  UNL     1      14.237  19.908  13.414  1.00  0.00    -0.395 OA
ATOM     43  H3  UNL     1      14.215  20.701  12.893  1.00  0.00     0.210 HD
ENDBRANCH  34  42
ENDBRANCH  32  34
ENDBRANCH   1  32
TORSDOF 13
ENDMDL
MODEL 3
REMARK VINA RESULT: -8.231699446      3.622      9.294
REMARK  13 active torsions:
REMARK  status: ('A' for Active; 'I' for Inactive)
REMARK    1  A    between atoms: C2_2  and  C3_3 
REMARK    2  A    between atoms: C2_2  and  C6_8 
REMARK    3  A    between atoms: C3_3  and  C4_4 
REMARK    4  A    between atoms: C4_4  and  C5_5 
REMARK    5  A    between atoms: C6_8  and  O3_9 
REMARK    6  A    between atoms: C6_8  and  C7_11 
REMARK    7  A    between atoms: C7_11  and  C9_13 
REMARK    8  A    between atoms: C19_24  and  C21_26 
REMARK    9  A    between atoms: C23_28  and  C24_29 
REMARK   10  A    between atoms: C24_29  and  C25_30 
REMARK       I    between atoms: C25_30  and  N1_32 
REMARK   11  A    between atoms: N1_32  and  C26_34 
REMARK   12  A    between atoms: C26_34  and  C27_35 
REMARK   13  A    between atoms: C27_35  and  N2_36 
ROOT
HETATM    1  C9  UNL     1      15.552  21.197  16.653  1.00  0.00     0.013 C 
HETATM    2  C10 UNL     1      14.804  20.488  15.590  1.00  0.00     0.065 C 
HETATM    3  C11 UNL     1      15.080  20.924  14.193  1.00  0.00     0.136 C 
HETATM    4  O4  UNL     1      16.115  21.049  13.588  1.00  0.00    -0.297 OA
HETATM    5  C12 UNL     1      13.756  21.210  13.585  1.00  0.00     0.056 C 
HETATM    6  C13 UNL     1      13.157  22.514  13.942  1.00  0.00     0.017 C 
HETATM    7  C14 UNL     1      13.183  22.771  15.468  1.00  0.00    -0.013 C 
HETATM    8  C15 UNL     1      12.576  21.585  16.099  1.00  0.00     0.010 C 
HETATM    9  C16 UNL     1      13.337  20.368  15.709  1.00  0.00    -0.002 C 
HETATM   10  C17 UNL     1      12.946  20.083  14.242  1.00  0.00     0.017 C 
HETATM   11  C18 UNL     1      14.465  23.290  15.804  1.00  0.00     0.016 C 
HETATM   12  C19 UNL     1      15.371  22.650  16.836  1.00  0.00    -0.019 C 
HETATM   13  C20 UNL     1      14.835  23.106  18.182  1.00  0.00     0.018 C 
ENDROOT
BRANCH  12  14
HETATM   14  C21 UNL     1      16.637  23.506  16.715  1.00  0.00     0.087 C 
HETATM   15  C22 UNL     1      17.054  23.986  15.379  1.00  0.00     0.050 C 
HETATM   16  C23 UNL     1      17.824  25.000  16.234  1.00  0.00     0.087 C 
HETATM   17  N3  UNL     1      16.788  24.765  17.232  1.00  0.00    -0.412 N 
ATOM     18  H3  UNL     1      16.362  25.304  17.986  1.00  0.00     0.154 HD
BRANCH  16  19
HETATM   19  C24 UNL     1      19.215  24.610  16.590  1.00  0.00     0.127 C 
BRANCH  19  20
HETATM   20  C25 UNL     1      20.039  25.843  16.864  1.00  0.00     0.219 C 
HETATM   21  O5  UNL     1      20.244  26.618  15.913  1.00  0.00    -0.274 OA
HETATM   22  N1  UNL     1      20.539  26.071  18.151  1.00  0.00    -0.359 N 
ATOM     23  H1  UNL     1      20.328  25.391  18.881  1.00  0.00     0.162 HD
BRANCH  22  24
HETATM   24  C26 UNL     1      21.335  27.216  18.493  1.00  0.00     0.152 C 
BRANCH  24  25
HETATM   25  C27 UNL     1      22.762  26.856  18.708  1.00  0.00     0.292 C 
BRANCH  25  26
HETATM   26  N2  UNL     1      23.045  26.457  20.076  1.00  0.00     0.094 N 
HETATM   27  C28 UNL     1      23.315  25.067  20.229  1.00  0.00     0.298 C 
HETATM   28  C29 UNL     1      22.176  24.218  20.674  1.00  0.00     0.198 C 
HETATM   29  O6  UNL     1      21.154  24.951  21.278  1.00  0.00    -0.388 OA
HETATM   30  C30 UNL     1      21.716  25.997  22.011  1.00  0.00     0.198 C 
HETATM   31  C31 UNL     1      22.168  27.049  21.026  1.00  0.00     0.298 C 
ENDBRANCH  25  26
ENDBRANCH  24  25
ENDBRANCH  22  24
ENDBRANCH  19  20
ENDBRANCH  16  19
ENDBRANCH  12  14
BRANCH   1  32
HETATM   32  C7  UNL     1      15.846  20.413  17.887  1.00  0.00     0.016 C 
HETATM   33  C8  UNL     1      17.219  20.622  18.490  1.00  0.00     0.013 C 
BRANCH  32  34
HETATM   34  C6  UNL     1      14.853  20.482  19.008  1.00  0.00     0.126 C 
BRANCH  34  35
HETATM   35  C2  UNL     1      13.992  19.242  19.129  1.00  0.00     0.011 C 
HETATM   36  C1  UNL     1      14.816  18.080  18.570  1.00  0.00     0.012 C 
BRANCH  35  37
HETATM   37  C3  UNL     1      13.742  18.830  20.565  1.00  0.00     0.017 C 
BRANCH  37  38
HETATM   38  C4  UNL     1      13.256  17.392  20.568  1.00  0.00     0.113 C 
BRANCH  38  39
HETATM   39  C5  UNL     1      11.782  17.315  20.462  1.00  0.00     0.172 C 
HETATM   40  O1  UNL     1      11.108  18.223  21.038  1.00  0.00    -0.648 OA
HETATM   41  O2  UNL     1      11.100  16.343  19.792  1.00  0.00    -0.648 OA
ENDBRANCH  38  39
ENDBRANCH  37  38
ENDBRANCH  35  37
ENDBRANCH  34  35
BRANCH  34  42
HETATM   42  O3  UNL     1      15.462  20.593  20.285  1.00  0.00    -0.395 OA
ATOM     43  H3  UNL     1      14.991  21.308  20.696  1.00  0.00     0.210 HD
ENDBRANCH  34  42
ENDBRANCH  32  34
ENDBRANCH   1  32
TORSDOF 13
ENDMDL
MODEL 4
REMARK VINA RESULT: -8.145393729      3.917      9.851
REMARK  13 active torsions:
REMARK  status: ('A' for Active; 'I' for Inactive)
REMARK    1  A    between atoms: C2_2  and  C3_3 
REMARK    2  A    between atoms: C2_2  and  C6_8 
REMARK    3  A    between atoms: C3_3  and  C4_4 
REMARK    4  A    between atoms: C4_4  and  C5_5 
REMARK    5  A    between atoms: C6_8  and  O3_9 
REMARK    6  A    between atoms: C6_8  and  C7_11 
REMARK    7  A    between atoms: C7_11  and  C9_13 
REMARK    8  A    between atoms: C19_24  and  C21_26 
REMARK    9  A    between atoms: C23_28  and  C24_29 
REMARK   10  A    between atoms: C24_29  and  C25_30 
REMARK       I    between atoms: C25_30  and  N1_32 
REMARK   11  A    between atoms: N1_32  and  C26_34 
REMARK   12  A    between atoms: C26_34  and  C27_35 
REMARK   13  A    between atoms: C27_35  and  N2_36 
ROOT
HETATM    1  C9  UNL     1      15.414  21.083  16.752  1.00  0.00     0.013 C 
HETATM    2  C10 UNL     1      14.703  20.407  15.643  1.00  0.00     0.065 C 
HETATM    3  C11 UNL     1      15.035  20.878  14.269  1.00  0.00     0.136 C 
HETATM    4  O4  UNL     1      16.092  21.013  13.708  1.00  0.00    -0.297 OA
HETATM    5  C12 UNL     1      13.737  21.188  13.620  1.00  0.00     0.056 C 
HETATM    6  C13 UNL     1      13.130  22.486  13.989  1.00  0.00     0.017 C 
HETATM    7  C14 UNL     1      13.100  22.702  15.520  1.00  0.00    -0.013 C 
HETATM    8  C15 UNL     1      12.463  21.503  16.096  1.00  0.00     0.010 C 
HETATM    9  C16 UNL     1      13.232  20.292  15.703  1.00  0.00    -0.002 C 
HETATM   10  C17 UNL     1      12.896  20.049  14.215  1.00  0.00     0.017 C 
HETATM   11  C18 UNL     1      14.370  23.204  15.919  1.00  0.00     0.016 C 
HETATM   12  C19 UNL     1      15.233  22.531  16.967  1.00  0.00    -0.019 C 
HETATM   13  C20 UNL     1      14.648  22.954  18.304  1.00  0.00     0.018 C 
ENDROOT
BRANCH  12  14
HETATM   14  C21 UNL     1      16.507  23.382  16.918  1.00  0.00     0.087 C 
HETATM   15  C22 UNL     1      16.957  23.925  15.617  1.00  0.00     0.050 C 
HETATM   16  C23 UNL     1      17.715  24.889  16.540  1.00  0.00     0.087 C 
HETATM   17  N3  UNL     1      16.655  24.613  17.501  1.00  0.00    -0.412 N 
ATOM     18  H3  UNL     1      16.215  25.116  18.272  1.00  0.00     0.154 HD
BRANCH  16  19
HETATM   19  C24 UNL     1      19.094  24.471  16.906  1.00  0.00     0.127 C 
BRANCH  19  20
HETATM   20  C25 UNL     1      19.971  25.686  17.073  1.00  0.00     0.219 C 
HETATM   21  O5  UNL     1      20.110  26.432  16.087  1.00  0.00    -0.274 OA
HETATM   22  N1  UNL     1      20.591  25.931  18.304  1.00  0.00    -0.359 N 
ATOM     23  H1  UNL     1      20.429  25.275  19.068  1.00  0.00     0.162 HD
BRANCH  22  24
HETATM   24  C26 UNL     1      21.444  27.061  18.543  1.00  0.00     0.152 C 
BRANCH  24  25
HETATM   25  C27 UNL     1      22.842  26.649  18.841  1.00  0.00     0.292 C 
BRANCH  25  26
HETATM   26  N2  UNL     1      23.821  27.330  18.012  1.00  0.00     0.094 N 
HETATM   27  C28 UNL     1      23.323  27.731  16.740  1.00  0.00     0.298 C 
HETATM   28  C29 UNL     1      23.622  26.826  15.597  1.00  0.00     0.198 C 
HETATM   29  O6  UNL     1      24.688  25.962  15.851  1.00  0.00    -0.388 OA
HETATM   30  C30 UNL     1      25.639  26.629  16.624  1.00  0.00     0.198 C 
HETATM   31  C31 UNL     1      25.102  26.711  18.033  1.00  0.00     0.298 C 
ENDBRANCH  25  26
ENDBRANCH  24  25
ENDBRANCH  22  24
ENDBRANCH  19  20
ENDBRANCH  16  19
ENDBRANCH  12  14
BRANCH   1  32
HETATM   32  C7  UNL     1      15.656  20.263  17.975  1.00  0.00     0.016 C 
HETATM   33  C8  UNL     1      16.961  20.525  18.696  1.00  0.00     0.013 C 
BRANCH  32  34
HETATM   34  C6  UNL     1      14.575  20.227  19.013  1.00  0.00     0.126 C 
BRANCH  34  35
HETATM   35  C2  UNL     1      13.946  18.859  19.181  1.00  0.00     0.011 C 
HETATM   36  C1  UNL     1      13.991  18.536  20.676  1.00  0.00     0.012 C 
BRANCH  35  37
HETATM   37  C3  UNL     1      12.464  18.843  18.868  1.00  0.00     0.017 C 
BRANCH  37  38
HETATM   38  C4  UNL     1      12.028  17.398  18.705  1.00  0.00     0.113 C 
BRANCH  38  39
HETATM   39  C5  UNL     1      10.783  17.118  19.454  1.00  0.00     0.172 C 
HETATM   40  O1  UNL     1      10.681  17.607  20.619  1.00  0.00    -0.648 OA
HETATM   41  O2  UNL     1       9.742  16.374  18.980  1.00  0.00    -0.648 OA
ENDBRANCH  38  39
ENDBRANCH  37  38
ENDBRANCH  35  37
ENDBRANCH  34  35
BRANCH  34  42
HETATM   42  O3  UNL     1      15.042  20.542  20.316  1.00  0.00    -0.395 OA
ATOM     43  H3  UNL     1      15.286  21.458  20.250  1.00  0.00     0.210 HD
ENDBRANCH  34  42
ENDBRANCH  32  34
ENDBRANCH   1  32
TORSDOF 13
ENDMDL
MODEL 5
REMARK VINA RESULT: -8.139130764      1.511      1.863
REMARK  13 active torsions:
REMARK  status: ('A' for Active; 'I' for Inactive)
REMARK    1  A    between atoms: C2_2  and  C3_3 
REMARK    2  A    between atoms: C2_2  and  C6_8 
REMARK    3  A    between atoms: C3_3  and  C4_4 
REMARK    4  A    between atoms: C4_4  and  C5_5 
REMARK    5  A    between atoms: C6_8  and  O3_9 
REMARK    6  A    between atoms: C6_8  and  C7_11 
REMARK    7  A    between atoms: C7_11  and  C9_13 
REMARK    8  A    between atoms: C19_24  and  C21_26 
REMARK    9  A    between atoms: C23_28  and  C24_29 
REMARK   10  A    between atoms: C24_29  and  C25_30 
REMARK       I    between atoms: C25_30  and  N1_32 
REMARK   11  A    between atoms: N1_32  and  C26_34 
REMARK   12  A    between atoms: C26_34  and  C27_35 
REMARK   13  A    between atoms: C27_35  and  N2_36 
ROOT
HETATM    1  C9  UNL     1      16.226  22.087  16.323  1.00  0.00     0.013 C 
HETATM    2  C10 UNL     1      17.622  22.488  16.038  1.00  0.00     0.065 C 
HETATM    3  C11 UNL     1      18.665  21.907  16.929  1.00  0.00     0.136 C 
HETATM    4  O4  UNL     1      18.899  20.767  17.241  1.00  0.00    -0.297 OA
HETATM    5  C12 UNL     1      19.463  23.055  17.427  1.00  0.00     0.056 C 
HETATM    6  C13 UNL     1      18.854  23.824  18.534  1.00  0.00     0.017 C 
HETATM    7  C14 UNL     1      17.381  24.200  18.245  1.00  0.00    -0.013 C 
HETATM    8  C15 UNL     1      17.372  24.851  16.922  1.00  0.00     0.010 C 
HETATM    9  C16 UNL     1      17.938  23.925  15.905  1.00  0.00    -0.002 C 
HETATM   10  C17 UNL     1      19.462  23.914  16.154  1.00  0.00     0.017 C 
HETATM   11  C18 UNL     1      16.567  23.086  18.596  1.00  0.00     0.016 C 
HETATM   12  C19 UNL     1      15.615  22.419  17.624  1.00  0.00    -0.019 C 
HETATM   13  C20 UNL     1      14.383  23.309  17.592  1.00  0.00     0.018 C 
ENDROOT
BRANCH  12  14
HETATM   14  C21 UNL     1      15.103  21.234  18.450  1.00  0.00     0.087 C 
HETATM   15  C22 UNL     1      15.805  20.877  19.703  1.00  0.00     0.050 C 
HETATM   16  C23 UNL     1      14.465  20.186  19.989  1.00  0.00     0.087 C 
HETATM   17  N3  UNL     1      13.895  21.186  19.094  1.00  0.00    -0.412 N 
ATOM     18  H3  UNL     1      12.992  21.648  18.992  1.00  0.00     0.154 HD
BRANCH  16  19
HETATM   19  C24 UNL     1      14.377  18.763  19.566  1.00  0.00     0.127 C 
BRANCH  19  20
HETATM   20  C25 UNL     1      12.940  18.399  19.287  1.00  0.00     0.219 C 
HETATM   21  O5  UNL     1      12.101  18.663  20.166  1.00  0.00    -0.274 OA
HETATM   22  N1  UNL     1      12.603  17.786  18.074  1.00  0.00    -0.359 N 
ATOM     23  H1  UNL     1      13.346  17.602  17.401  1.00  0.00     0.162 HD
BRANCH  22  24
HETATM   24  C26 UNL     1      11.261  17.404  17.734  1.00  0.00     0.152 C 
BRANCH  24  25
HETATM   25  C27 UNL     1      11.075  15.929  17.780  1.00  0.00     0.292 C 
BRANCH  25  26
HETATM   26  N2  UNL     1      10.324  15.418  16.646  1.00  0.00     0.094 N 
HETATM   27  C28 UNL     1       9.778  14.119  16.852  1.00  0.00     0.298 C 
HETATM   28  C29 UNL     1      10.558  12.978  16.299  1.00  0.00     0.198 C 
HETATM   29  O6  UNL     1      11.462  13.366  15.310  1.00  0.00    -0.388 OA
HETATM   30  C30 UNL     1      10.900  14.400  14.560  1.00  0.00     0.198 C 
HETATM   31  C31 UNL     1      10.963  15.655  15.397  1.00  0.00     0.298 C 
ENDBRANCH  25  26
ENDBRANCH  24  25
ENDBRANCH  22  24
ENDBRANCH  19  20
ENDBRANCH  16  19
ENDBRANCH  12  14
BRANCH   1  32
HETATM   32  C7  UNL     1      15.299  22.051  15.154  1.00  0.00     0.016 C 
HETATM   33  C8  UNL     1      15.951  21.842  13.803  1.00  0.00     0.013 C 
BRANCH  32  34
HETATM   34  C6  UNL     1      14.123  21.125  15.227  1.00  0.00     0.126 C 
BRANCH  34  35
HETATM   35  C2  UNL     1      13.248  21.162  13.991  1.00  0.00     0.011 C 
HETATM   36  C1  UNL     1      12.896  19.710  13.659  1.00  0.00     0.012 C 
BRANCH  35  37
HETATM   37  C3  UNL     1      11.896  21.799  14.238  1.00  0.00     0.017 C 
BRANCH  37  38
HETATM   38  C4  UNL     1      11.026  20.796  14.973  1.00  0.00     0.113 C 
BRANCH  38  39
HETATM   39  C5  UNL     1       9.588  21.117  14.832  1.00  0.00     0.172 C 
HETATM   40  O1  UNL     1       8.979  21.529  15.865  1.00  0.00    -0.648 OA
HETATM   41  O2  UNL     1       8.876  21.001  13.674  1.00  0.00    -0.648 OA
ENDBRANCH  38  39
ENDBRANCH  37  38
ENDBRANCH  35  37
ENDBRANCH  34  35
BRANCH  34  42
HETATM   42  O3  UNL     1      14.495  19.759  15.333  1.00  0.00    -0.395 OA
ATOM     43  H3  UNL     1      15.310  19.786  15.819  1.00  0.00     0.210 HD
ENDBRANCH  34  42
ENDBRANCH  32  34
ENDBRANCH   1  32
TORSDOF 13
ENDMDL
