MODEL 1
REMARK VINA RESULT: -10.579714135      0.000      0.000
REMARK  14 active torsions:
REMARK  status: ('A' for Active; 'I' for Inactive)
REMARK    1  A    between atoms: C2_2  and  C3_3 
REMARK    2  A    between atoms: C6_6  and  C7_7 
REMARK    3  A    between atoms: C7_7  and  N1_8 
REMARK    4  A    between atoms: N1_8  and  C8_10 
REMARK    5  A    between atoms: C11_19  and  N5_20 
REMARK    6  A    between atoms: N5_20  and  C12_22 
REMARK    7  A    between atoms: C12_22  and  C13_23 
REMARK    8  A    between atoms: C12_22  and  C21_33 
REMARK    9  A    between atoms: C14_24  and  C15_25 
REMARK   10  A    between atoms: C18_28  and  O1_29 
REMARK   11  A    between atoms: N6_37  and  C23_38 
REMARK   12  A    between atoms: C23_38  and  C24_39 
REMARK   13  A    between atoms: C24_39  and  C25_40 
REMARK   14  A    between atoms: N7_44  and  O4_45 
ROOT
HETATM    1  C8  UNL     1      17.622  24.714  16.267  1.00  0.00     0.682 A 
HETATM    2  N2  UNL     1      18.245  25.258  17.317  1.00  0.00    -0.174 N 
ATOM      3  H2  UNL     1      18.668  26.184  17.370  1.00  0.00     0.186 HD
HETATM    4  C9  UNL     1      18.198  24.320  18.296  1.00  0.00     0.153 A 
HETATM    5  N3  UNL     1      18.675  24.362  19.552  1.00  0.00    -0.336 N 
ATOM      6  H3  UNL     1      19.163  25.191  19.892  1.00  0.00     0.168 HD
HETATM    7  C10 UNL     1      18.504  23.307  20.347  1.00  0.00     0.183 A 
HETATM    8  N4  UNL     1      17.854  22.187  19.909  1.00  0.00    -0.337 N 
ATOM      9  H4  UNL     1      17.745  21.402  20.552  1.00  0.00     0.168 HD
HETATM   10  C11 UNL     1      17.354  22.080  18.669  1.00  0.00     0.135 A 
HETATM   11  C22 UNL     1      17.538  23.191  17.843  1.00  0.00     0.140 A 
HETATM   12  N6  UNL     1      17.188  23.453  16.583  1.00  0.00    -0.176 N 
ENDROOT
BRANCH  10  13
HETATM   13  N5  UNL     1      16.737  21.114  18.188  1.00  0.00    -0.357 N 
ATOM     14  H5  UNL     1      17.027  20.822  17.255  1.00  0.00     0.162 HD
BRANCH  13  15
HETATM   15  C12 UNL     1      15.630  20.329  18.800  1.00  0.00     0.207 C 
BRANCH  15  16
HETATM   16  C13 UNL     1      15.638  18.974  18.265  1.00  0.00     0.010 C 
HETATM   17  C14 UNL     1      15.091  17.819  18.907  1.00  0.00     0.010 C 
BRANCH  17  18
HETATM   18  C15 UNL     1      13.770  17.547  19.360  1.00  0.00    -0.036 A 
HETATM   19  C16 UNL     1      12.840  16.992  18.464  1.00  0.00     0.014 A 
HETATM   20  C17 UNL     1      11.548  16.709  18.834  1.00  0.00     0.037 A 
HETATM   21  C18 UNL     1      11.124  16.966  20.117  1.00  0.00     0.065 A 
HETATM   22  C19 UNL     1      12.006  17.513  21.029  1.00  0.00     0.037 A 
HETATM   23  C20 UNL     1      13.284  17.783  20.632  1.00  0.00     0.014 A 
BRANCH  21  24
HETATM   24  O1  UNL     1       9.826  16.698  20.540  1.00  0.00    -0.361 OA
ATOM     25  H1  UNL     1       9.632  16.379  21.413  1.00  0.00     0.217 HD
ENDBRANCH  21  24
ENDBRANCH  17  18
ENDBRANCH  15  16
BRANCH  15  26
HETATM   26  C21 UNL     1      14.432  21.176  18.767  1.00  0.00     0.200 C 
HETATM   27  O2  UNL     1      14.225  22.329  19.135  1.00  0.00    -0.646 OA
HETATM   28  O3  UNL     1      13.255  20.585  18.199  1.00  0.00    -0.646 OA
ENDBRANCH  15  26
ENDBRANCH  13  15
ENDBRANCH  10  13
BRANCH  12  29
HETATM   29  C23 UNL     1      16.472  22.583  15.684  1.00  0.00     0.152 C 
BRANCH  29  30
HETATM   30  C24 UNL     1      15.006  22.942  15.651  1.00  0.00     0.061 C 
BRANCH  30  31
HETATM   31  C25 UNL     1      14.152  21.909  15.094  1.00  0.00    -0.039 A 
HETATM   32  C26 UNL     1      12.782  22.027  15.134  1.00  0.00     0.010 A 
HETATM   33  C27 UNL     1      11.947  21.052  14.607  1.00  0.00     0.020 A 
HETATM   34  C28 UNL     1      12.545  19.939  14.032  1.00  0.00     0.122 A 
HETATM   35  N7  UNL     1      13.882  19.816  13.990  1.00  0.00    -0.247 N 
HETATM   36  C29 UNL     1      14.691  20.783  14.511  1.00  0.00     0.129 A 
BRANCH  35  37
HETATM   37  O4  UNL     1      14.453  18.707  13.416  1.00  0.00    -0.284 OA
ATOM     38  H4  UNL     1      14.505  17.893  13.901  1.00  0.00     0.245 HD
ENDBRANCH  35  37
ENDBRANCH  30  31
ENDBRANCH  29  30
ENDBRANCH  12  29
BRANCH   1  39
HETATM   39  N1  UNL     1      17.449  25.278  15.128  1.00  0.00    -0.222 N 
ATOM     40  H1  UNL     1      16.578  25.783  14.969  1.00  0.00     0.178 HD
BRANCH  39  41
HETATM   41  C7  UNL     1      18.409  25.238  14.070  1.00  0.00     0.176 C 
BRANCH  41  42
HETATM   42  C6  UNL     1      19.724  25.782  14.433  1.00  0.00    -0.040 A 
HETATM   43  C5  UNL     1      19.916  27.138  14.546  1.00  0.00     0.009 A 
HETATM   44  C4  UNL     1      21.163  27.667  14.891  1.00  0.00     0.012 A 
HETATM   45  C3  UNL     1      22.222  26.851  15.125  1.00  0.00    -0.037 A 
HETATM   46  C31 UNL     1      22.031  25.477  15.011  1.00  0.00     0.012 A 
HETATM   47  C30 UNL     1      20.806  24.971  14.672  1.00  0.00     0.009 A 
BRANCH  45  48
HETATM   48  C2  UNL     1      23.535  27.359  15.486  1.00  0.00     0.001 C 
HETATM   49  C1  UNL     1      24.518  26.588  15.868  1.00  0.00     0.012 C 
ENDBRANCH  45  48
ENDBRANCH  41  42
ENDBRANCH  39  41
ENDBRANCH   1  39
TORSDOF 14
ENDMDL
MODEL 2
REMARK VINA RESULT: -10.370993709      2.907     10.664
REMARK  14 active torsions:
REMARK  status: ('A' for Active; 'I' for Inactive)
REMARK    1  A    between atoms: C2_2  and  C3_3 
REMARK    2  A    between atoms: C6_6  and  C7_7 
REMARK    3  A    between atoms: C7_7  and  N1_8 
REMARK    4  A    between atoms: N1_8  and  C8_10 
REMARK    5  A    between atoms: C11_19  and  N5_20 
REMARK    6  A    between atoms: N5_20  and  C12_22 
REMARK    7  A    between atoms: C12_22  and  C13_23 
REMARK    8  A    between atoms: C12_22  and  C21_33 
REMARK    9  A    between atoms: C14_24  and  C15_25 
REMARK   10  A    between atoms: C18_28  and  O1_29 
REMARK   11  A    between atoms: N6_37  and  C23_38 
REMARK   12  A    between atoms: C23_38  and  C24_39 
REMARK   13  A    between atoms: C24_39  and  C25_40 
REMARK   14  A    between atoms: N7_44  and  O4_45 
ROOT
HETATM    1  C8  UNL     1      13.769  20.281  17.331  1.00  0.00     0.682 A 
HETATM    2  N2  UNL     1      13.375  19.826  16.138  1.00  0.00    -0.174 N 
ATOM      3  H2  UNL     1      12.597  19.195  15.945  1.00  0.00     0.186 HD
HETATM    4  C9  UNL     1      14.225  20.380  15.237  1.00  0.00     0.153 A 
HETATM    5  N3  UNL     1      14.266  20.251  13.900  1.00  0.00    -0.336 N 
ATOM      6  H3  UNL     1      13.588  19.661  13.417  1.00  0.00     0.168 HD
HETATM    7  C10 UNL     1      15.202  20.904  13.213  1.00  0.00     0.183 A 
HETATM    8  N4  UNL     1      16.119  21.698  13.843  1.00  0.00    -0.337 N 
ATOM      9  H4  UNL     1      16.819  22.179  13.278  1.00  0.00     0.168 HD
HETATM   10  C11 UNL     1      16.135  21.870  15.173  1.00  0.00     0.135 A 
HETATM   11  C22 UNL     1      15.149  21.182  15.885  1.00  0.00     0.140 A 
HETATM   12  N6  UNL     1      14.851  21.108  17.182  1.00  0.00    -0.176 N 
ENDROOT
BRANCH  10  13
HETATM   13  N5  UNL     1      16.914  22.580  15.831  1.00  0.00    -0.357 N 
ATOM     14  H5  UNL     1      17.384  22.121  16.611  1.00  0.00     0.162 HD
BRANCH  13  15
HETATM   15  C12 UNL     1      17.250  24.016  15.624  1.00  0.00     0.207 C 
BRANCH  15  16
HETATM   16  C13 UNL     1      17.725  24.215  14.261  1.00  0.00     0.010 C 
HETATM   17  C14 UNL     1      18.432  25.362  13.782  1.00  0.00     0.010 C 
BRANCH  17  18
HETATM   18  C15 UNL     1      19.659  25.942  14.209  1.00  0.00    -0.036 A 
HETATM   19  C16 UNL     1      20.767  25.109  14.437  1.00  0.00     0.014 A 
HETATM   20  C17 UNL     1      21.979  25.602  14.855  1.00  0.00     0.037 A 
HETATM   21  C18 UNL     1      22.141  26.952  15.063  1.00  0.00     0.065 A 
HETATM   22  C19 UNL     1      21.076  27.807  14.850  1.00  0.00     0.037 A 
HETATM   23  C20 UNL     1      19.885  27.286  14.436  1.00  0.00     0.014 A 
BRANCH  21  24
HETATM   24  O1  UNL     1      23.347  27.500  15.486  1.00  0.00    -0.361 OA
ATOM     25  H1  UNL     1      23.656  28.346  15.182  1.00  0.00     0.217 HD
ENDBRANCH  21  24
ENDBRANCH  17  18
ENDBRANCH  15  16
BRANCH  15  26
HETATM   26  C21 UNL     1      18.024  24.449  16.793  1.00  0.00     0.200 C 
HETATM   27  O2  UNL     1      17.865  25.365  17.595  1.00  0.00    -0.646 OA
HETATM   28  O3  UNL     1      19.196  23.681  17.096  1.00  0.00    -0.646 OA
ENDBRANCH  15  26
ENDBRANCH  13  15
ENDBRANCH  10  13
BRANCH  12  29
HETATM   29  C23 UNL     1      15.527  21.777  18.266  1.00  0.00     0.152 C 
BRANCH  29  30
HETATM   30  C24 UNL     1      16.677  20.941  18.773  1.00  0.00     0.061 C 
BRANCH  30  31
HETATM   31  C25 UNL     1      17.699  21.698  19.474  1.00  0.00    -0.039 A 
HETATM   32  C26 UNL     1      18.963  21.183  19.649  1.00  0.00     0.010 A 
HETATM   33  C27 UNL     1      19.955  21.889  20.315  1.00  0.00     0.020 A 
HETATM   34  C28 UNL     1      19.628  23.145  20.806  1.00  0.00     0.122 A 
HETATM   35  N7  UNL     1      18.396  23.653  20.640  1.00  0.00    -0.247 N 
HETATM   36  C29 UNL     1      17.430  22.949  19.982  1.00  0.00     0.129 A 
BRANCH  35  37
HETATM   37  O4  UNL     1      18.093  24.899  21.133  1.00  0.00    -0.284 OA
ATOM     38  H4  UNL     1      17.694  24.987  21.991  1.00  0.00     0.245 HD
ENDBRANCH  35  37
ENDBRANCH  30  31
ENDBRANCH  29  30
ENDBRANCH  12  29
BRANCH   1  39
HETATM   39  N1  UNL     1      13.224  19.992  18.456  1.00  0.00    -0.222 N 
ATOM     40  H1  UNL     1      12.556  20.654  18.850  1.00  0.00     0.178 HD
BRANCH  39  41
HETATM   41  C7  UNL     1      13.501  18.796  19.187  1.00  0.00     0.176 C 
BRANCH  41  42
HETATM   42  C6  UNL     1      12.408  17.815  19.167  1.00  0.00    -0.040 A 
HETATM   43  C5  UNL     1      11.541  17.708  20.228  1.00  0.00     0.009 A 
HETATM   44  C4  UNL     1      10.497  16.778  20.220  1.00  0.00     0.012 A 
HETATM   45  C3  UNL     1      10.311  15.953  19.159  1.00  0.00    -0.037 A 
HETATM   46  C31 UNL     1      11.188  16.059  18.082  1.00  0.00     0.012 A 
HETATM   47  C30 UNL     1      12.206  16.972  18.102  1.00  0.00     0.009 A 
BRANCH  45  48
HETATM   48  C2  UNL     1       9.240  14.973  19.109  1.00  0.00     0.001 C 
HETATM   49  C1  UNL     1       9.314  13.868  18.417  1.00  0.00     0.012 C 
ENDBRANCH  45  48
ENDBRANCH  41  42
ENDBRANCH  39  41
ENDBRANCH   1  39
TORSDOF 14
ENDMDL
MODEL 3
REMARK VINA RESULT: -10.269271190      2.818     10.464
REMARK  14 active torsions:
REMARK  status: ('A' for Active; 'I' for Inactive)
REMARK    1  A    between atoms: C2_2  and  C3_3 
REMARK    2  A    between atoms: C6_6  and  C7_7 
REMARK    3  A    between atoms: C7_7  and  N1_8 
REMARK    4  A    between atoms: N1_8  and  C8_10 
REMARK    5  A    between atoms: C11_19  and  N5_20 
REMARK    6  A    between atoms: N5_20  and  C12_22 
REMARK    7  A    between atoms: C12_22  and  C13_23 
REMARK    8  A    between atoms: C12_22  and  C21_33 
REMARK    9  A    between atoms: C14_24  and  C15_25 
REMARK   10  A    between atoms: C18_28  and  O1_29 
REMARK   11  A    between atoms: N6_37  and  C23_38 
REMARK   12  A    between atoms: C23_38  and  C24_39 
REMARK   13  A    between atoms: C24_39  and  C25_40 
REMARK   14  A    between atoms: N7_44  and  O4_45 
ROOT
HETATM    1  C8  UNL     1      14.414  19.558  17.690  1.00  0.00     0.682 A 
HETATM    2  N2  UNL     1      13.506  19.520  16.711  1.00  0.00    -0.174 N 
ATOM      3  H2  UNL     1      12.912  18.733  16.451  1.00  0.00     0.186 HD
HETATM    4  C9  UNL     1      13.538  20.748  16.135  1.00  0.00     0.153 A 
HETATM    5  N3  UNL     1      12.821  21.237  15.108  1.00  0.00    -0.336 N 
ATOM      6  H3  UNL     1      12.130  20.653  14.637  1.00  0.00     0.168 HD
HETATM    7  C10 UNL     1      13.026  22.492  14.714  1.00  0.00     0.183 A 
HETATM    8  N4  UNL     1      13.948  23.289  15.332  1.00  0.00    -0.337 N 
ATOM      9  H4  UNL     1      14.072  24.244  14.997  1.00  0.00     0.168 HD
HETATM   10  C11 UNL     1      14.697  22.864  16.361  1.00  0.00     0.135 A 
HETATM   11  C22 UNL     1      14.475  21.546  16.768  1.00  0.00     0.140 A 
HETATM   12  N6  UNL     1      15.009  20.791  17.729  1.00  0.00    -0.176 N 
ENDROOT
BRANCH  10  13
HETATM   13  N5  UNL     1      15.545  23.515  16.994  1.00  0.00    -0.357 N 
ATOM     14  H5  UNL     1      15.491  23.447  18.010  1.00  0.00     0.162 HD
BRANCH  13  15
HETATM   15  C12 UNL     1      16.630  24.382  16.457  1.00  0.00     0.207 C 
BRANCH  15  16
HETATM   16  C13 UNL     1      17.331  23.681  15.389  1.00  0.00     0.010 C 
HETATM   17  C14 UNL     1      18.128  24.293  14.371  1.00  0.00     0.010 C 
BRANCH  17  18
HETATM   18  C15 UNL     1      19.276  25.129  14.467  1.00  0.00    -0.036 A 
HETATM   19  C16 UNL     1      19.138  26.510  14.247  1.00  0.00     0.014 A 
HETATM   20  C17 UNL     1      20.204  27.372  14.319  1.00  0.00     0.037 A 
HETATM   21  C18 UNL     1      21.460  26.896  14.616  1.00  0.00     0.065 A 
HETATM   22  C19 UNL     1      21.640  25.544  14.839  1.00  0.00     0.037 A 
HETATM   23  C20 UNL     1      20.561  24.712  14.760  1.00  0.00     0.014 A 
BRANCH  21  24
HETATM   24  O1  UNL     1      22.571  27.727  14.700  1.00  0.00    -0.361 OA
ATOM     25  H1  UNL     1      22.797  28.195  15.495  1.00  0.00     0.217 HD
ENDBRANCH  21  24
ENDBRANCH  17  18
ENDBRANCH  15  16
BRANCH  15  26
HETATM   26  C21 UNL     1      17.333  24.956  17.610  1.00  0.00     0.200 C 
HETATM   27  O2  UNL     1      18.392  25.569  17.710  1.00  0.00    -0.646 OA
HETATM   28  O3  UNL     1      16.695  24.795  18.884  1.00  0.00    -0.646 OA
ENDBRANCH  15  26
ENDBRANCH  13  15
ENDBRANCH  10  13
BRANCH  12  29
HETATM   29  C23 UNL     1      16.031  21.179  18.669  1.00  0.00     0.152 C 
BRANCH  29  30
HETATM   30  C24 UNL     1      17.404  20.906  18.105  1.00  0.00     0.061 C 
BRANCH  30  31
HETATM   31  C25 UNL     1      18.478  21.608  18.785  1.00  0.00    -0.039 A 
HETATM   32  C26 UNL     1      18.749  21.368  20.113  1.00  0.00     0.010 A 
HETATM   33  C27 UNL     1      19.770  22.028  20.782  1.00  0.00     0.020 A 
HETATM   34  C28 UNL     1      20.519  22.947  20.061  1.00  0.00     0.122 A 
HETATM   35  N7  UNL     1      20.261  23.186  18.765  1.00  0.00    -0.247 N 
HETATM   36  C29 UNL     1      19.254  22.531  18.119  1.00  0.00     0.129 A 
BRANCH  35  37
HETATM   37  O4  UNL     1      21.014  24.100  18.070  1.00  0.00    -0.284 OA
ATOM     38  H4  UNL     1      20.718  24.418  17.225  1.00  0.00     0.245 HD
ENDBRANCH  35  37
ENDBRANCH  30  31
ENDBRANCH  29  30
ENDBRANCH  12  29
BRANCH   1  39
HETATM   39  N1  UNL     1      14.697  18.589  18.482  1.00  0.00    -0.222 N 
ATOM     40  H1  UNL     1      15.461  17.965  18.224  1.00  0.00     0.178 HD
BRANCH  39  41
HETATM   41  C7  UNL     1      14.002  18.336  19.705  1.00  0.00     0.176 C 
BRANCH  41  42
HETATM   42  C6  UNL     1      12.760  17.570  19.541  1.00  0.00    -0.040 A 
HETATM   43  C5  UNL     1      11.766  17.634  20.486  1.00  0.00     0.009 A 
HETATM   44  C4  UNL     1      10.578  16.910  20.341  1.00  0.00     0.012 A 
HETATM   45  C3  UNL     1      10.377  16.120  19.256  1.00  0.00    -0.037 A 
HETATM   46  C31 UNL     1      11.383  16.052  18.296  1.00  0.00     0.012 A 
HETATM   47  C30 UNL     1      12.540  16.765  18.450  1.00  0.00     0.009 A 
BRANCH  45  48
HETATM   48  C2  UNL     1       9.159  15.350  19.065  1.00  0.00     0.001 C 
HETATM   49  C1  UNL     1       9.155  14.112  18.651  1.00  0.00     0.012 C 
ENDBRANCH  45  48
ENDBRANCH  41  42
ENDBRANCH  39  41
ENDBRANCH   1  39
TORSDOF 14
ENDMDL
MODEL 4
REMARK VINA RESULT: -10.028078852      2.120      5.149
REMARK  14 active torsions:
REMARK  status: ('A' for Active; 'I' for Inactive)
REMARK    1  A    between atoms: C2_2  and  C3_3 
REMARK    2  A    between atoms: C6_6  and  C7_7 
REMARK    3  A    between atoms: C7_7  and  N1_8 
REMARK    4  A    between atoms: N1_8  and  C8_10 
REMARK    5  A    between atoms: C11_19  and  N5_20 
REMARK    6  A    between atoms: N5_20  and  C12_22 
REMARK    7  A    between atoms: C12_22  and  C13_23 
REMARK    8  A    between atoms: C12_22  and  C21_33 
REMARK    9  A    between atoms: C14_24  and  C15_25 
REMARK   10  A    between atoms: C18_28  and  O1_29 
REMARK   11  A    between atoms: N6_37  and  C23_38 
REMARK   12  A    between atoms: C23_38  and  C24_39 
REMARK   13  A    between atoms: C24_39  and  C25_40 
REMARK   14  A    between atoms: N7_44  and  O4_45 
ROOT
HETATM    1  C8  UNL     1      16.378  22.114  15.532  1.00  0.00     0.682 A 
HETATM    2  N2  UNL     1      16.079  21.754  14.281  1.00  0.00    -0.174 N 
ATOM      3  H2  UNL     1      16.568  22.024  13.428  1.00  0.00     0.186 HD
HETATM    4  C9  UNL     1      14.988  20.953  14.382  1.00  0.00     0.153 A 
HETATM    5  N3  UNL     1      14.289  20.325  13.421  1.00  0.00    -0.336 N 
ATOM      6  H3  UNL     1      14.558  20.419  12.441  1.00  0.00     0.168 HD
HETATM    7  C10 UNL     1      13.242  19.578  13.764  1.00  0.00     0.183 A 
HETATM    8  N4  UNL     1      12.866  19.440  15.070  1.00  0.00    -0.337 N 
ATOM      9  H4  UNL     1      12.057  18.858  15.288  1.00  0.00     0.168 HD
HETATM   10  C11 UNL     1      13.518  20.040  16.078  1.00  0.00     0.135 A 
HETATM   11  C22 UNL     1      14.616  20.821  15.709  1.00  0.00     0.140 A 
HETATM   12  N6  UNL     1      15.489  21.547  16.407  1.00  0.00    -0.176 N 
ENDROOT
BRANCH  10  13
HETATM   13  N5  UNL     1      13.263  19.962  17.291  1.00  0.00    -0.357 N 
ATOM     14  H5  UNL     1      13.422  20.810  17.834  1.00  0.00     0.162 HD
BRANCH  13  15
HETATM   15  C12 UNL     1      12.753  18.789  18.053  1.00  0.00     0.207 C 
BRANCH  15  16
HETATM   16  C13 UNL     1      11.307  18.896  18.203  1.00  0.00     0.010 C 
HETATM   17  C14 UNL     1      10.341  18.005  17.639  1.00  0.00     0.010 C 
BRANCH  17  18
HETATM   18  C15 UNL     1      10.173  16.601  17.790  1.00  0.00    -0.036 A 
HETATM   19  C16 UNL     1      10.654  15.741  16.788  1.00  0.00     0.014 A 
HETATM   20  C17 UNL     1      10.520  14.377  16.868  1.00  0.00     0.037 A 
HETATM   21  C18 UNL     1       9.899  13.806  17.955  1.00  0.00     0.065 A 
HETATM   22  C19 UNL     1       9.411  14.615  18.963  1.00  0.00     0.037 A 
HETATM   23  C20 UNL     1       9.559  15.967  18.854  1.00  0.00     0.014 A 
BRANCH  21  24
HETATM   24  O1  UNL     1       9.739  12.430  18.083  1.00  0.00    -0.361 OA
ATOM     25  H1  UNL     1       9.406  11.889  17.377  1.00  0.00     0.217 HD
ENDBRANCH  21  24
ENDBRANCH  17  18
ENDBRANCH  15  16
BRANCH  15  26
HETATM   26  C21 UNL     1      13.646  18.599  19.201  1.00  0.00     0.200 C 
HETATM   27  O2  UNL     1      13.954  19.330  20.138  1.00  0.00    -0.646 OA
HETATM   28  O3  UNL     1      14.305  17.328  19.286  1.00  0.00    -0.646 OA
ENDBRANCH  15  26
ENDBRANCH  13  15
ENDBRANCH  10  13
BRANCH  12  29
HETATM   29  C23 UNL     1      15.522  21.721  17.838  1.00  0.00     0.152 C 
BRANCH  29  30
HETATM   30  C24 UNL     1      16.621  20.887  18.451  1.00  0.00     0.061 C 
BRANCH  30  31
HETATM   31  C25 UNL     1      17.582  21.647  19.229  1.00  0.00    -0.039 A 
HETATM   32  C26 UNL     1      18.816  21.120  19.536  1.00  0.00     0.010 A 
HETATM   33  C27 UNL     1      19.750  21.829  20.278  1.00  0.00     0.020 A 
HETATM   34  C28 UNL     1      19.397  23.101  20.705  1.00  0.00     0.122 A 
HETATM   35  N7  UNL     1      18.195  23.622  20.409  1.00  0.00    -0.247 N 
HETATM   36  C29 UNL     1      17.286  22.915  19.679  1.00  0.00     0.129 A 
BRANCH  35  37
HETATM   37  O4  UNL     1      17.866  24.883  20.842  1.00  0.00    -0.284 OA
ATOM     38  H4  UNL     1      16.983  25.212  20.725  1.00  0.00     0.245 HD
ENDBRANCH  35  37
ENDBRANCH  30  31
ENDBRANCH  29  30
ENDBRANCH  12  29
BRANCH   1  39
HETATM   39  N1  UNL     1      17.351  22.876  15.876  1.00  0.00    -0.222 N 
ATOM     40  H1  UNL     1      18.247  22.442  16.097  1.00  0.00     0.178 HD
BRANCH  39  41
HETATM   41  C7  UNL     1      17.250  24.299  15.968  1.00  0.00     0.176 C 
BRANCH  41  42
HETATM   42  C6  UNL     1      18.497  25.009  15.660  1.00  0.00    -0.040 A 
HETATM   43  C5  UNL     1      18.860  25.258  14.359  1.00  0.00     0.009 A 
HETATM   44  C4  UNL     1      20.046  25.933  14.052  1.00  0.00     0.012 A 
HETATM   45  C3  UNL     1      20.873  26.364  15.038  1.00  0.00    -0.037 A 
HETATM   46  C31 UNL     1      20.508  26.113  16.358  1.00  0.00     0.012 A 
HETATM   47  C30 UNL     1      19.346  25.451  16.645  1.00  0.00     0.009 A 
BRANCH  45  48
HETATM   48  C2  UNL     1      22.113  27.069  14.765  1.00  0.00     0.001 C 
HETATM   49  C1  UNL     1      23.177  26.958  15.514  1.00  0.00     0.012 C 
ENDBRANCH  45  48
ENDBRANCH  41  42
ENDBRANCH  39  41
ENDBRANCH   1  39
TORSDOF 14
ENDMDL
MODEL 5
REMARK VINA RESULT: -9.985717746      2.137      5.310
REMARK  14 active torsions:
REMARK  status: ('A' for Active; 'I' for Inactive)
REMARK    1  A    between atoms: C2_2  and  C3_3 
REMARK    2  A    between atoms: C6_6  and  C7_7 
REMARK    3  A    between atoms: C7_7  and  N1_8 
REMARK    4  A    between atoms: N1_8  and  C8_10 
REMARK    5  A    between atoms: C11_19  and  N5_20 
REMARK    6  A    between atoms: N5_20  and  C12_22 
REMARK    7  A    between atoms: C12_22  and  C13_23 
REMARK    8  A    between atoms: C12_22  and  C21_33 
REMARK    9  A    between atoms: C14_24  and  C15_25 
REMARK   10  A    between atoms: C18_28  and  O1_29 
REMARK   11  A    between atoms: N6_37  and  C23_38 
REMARK   12  A    between atoms: C23_38  and  C24_39 
REMARK   13  A    between atoms: C24_39  and  C25_40 
REMARK   14  A    between atoms: N7_44  and  O4_45 
ROOT
HETATM    1  C8  UNL     1      15.907  21.669  15.327  1.00  0.00     0.682 A 
HETATM    2  N2  UNL     1      15.446  21.297  14.129  1.00  0.00    -0.174 N 
ATOM      3  H2  UNL     1      15.843  21.523  13.218  1.00  0.00     0.186 HD
HETATM    4  C9  UNL     1      14.339  20.553  14.380  1.00  0.00     0.153 A 
HETATM    5  N3  UNL     1      13.504  19.938  13.525  1.00  0.00    -0.336 N 
ATOM      6  H3  UNL     1      13.659  19.997  12.518  1.00  0.00     0.168 HD
HETATM    7  C10 UNL     1      12.471  19.251  14.009  1.00  0.00     0.183 A 
HETATM    8  N4  UNL     1      12.246  19.161  15.353  1.00  0.00    -0.337 N 
ATOM      9  H4  UNL     1      11.442  18.625  15.680  1.00  0.00     0.168 HD
HETATM   10  C11 UNL     1      13.040  19.750  16.261  1.00  0.00     0.135 A 
HETATM   11  C22 UNL     1      14.121  20.468  15.744  1.00  0.00     0.140 A 
HETATM   12  N6  UNL     1      15.103  21.167  16.315  1.00  0.00    -0.176 N 
ENDROOT
BRANCH  10  13
HETATM   13  N5  UNL     1      12.926  19.713  17.497  1.00  0.00    -0.357 N 
ATOM     14  H5  UNL     1      13.007  20.608  17.979  1.00  0.00     0.162 HD
BRANCH  13  15
HETATM   15  C12 UNL     1      12.686  18.527  18.365  1.00  0.00     0.207 C 
BRANCH  15  16
HETATM   16  C13 UNL     1      11.295  18.512  18.798  1.00  0.00     0.010 C 
HETATM   17  C14 UNL     1      10.250  17.722  18.225  1.00  0.00     0.010 C 
BRANCH  17  18
HETATM   18  C15 UNL     1      10.133  16.313  18.066  1.00  0.00    -0.036 A 
HETATM   19  C16 UNL     1       9.361  15.582  18.985  1.00  0.00     0.014 A 
HETATM   20  C17 UNL     1       9.210  14.220  18.893  1.00  0.00     0.037 A 
HETATM   21  C18 UNL     1       9.822  13.523  17.878  1.00  0.00     0.065 A 
HETATM   22  C19 UNL     1      10.591  14.203  16.952  1.00  0.00     0.037 A 
HETATM   23  C20 UNL     1      10.722  15.557  17.070  1.00  0.00     0.014 A 
BRANCH  21  24
HETATM   24  O1  UNL     1       9.699  12.145  17.741  1.00  0.00    -0.361 OA
ATOM     25  H1  UNL     1      10.058  11.537  18.377  1.00  0.00     0.217 HD
ENDBRANCH  21  24
ENDBRANCH  17  18
ENDBRANCH  15  16
BRANCH  15  26
HETATM   26  C21 UNL     1      13.802  18.457  19.316  1.00  0.00     0.200 C 
HETATM   27  O2  UNL     1      14.003  19.004  20.396  1.00  0.00    -0.646 OA
HETATM   28  O3  UNL     1      14.886  17.590  18.955  1.00  0.00    -0.646 OA
ENDBRANCH  15  26
ENDBRANCH  13  15
ENDBRANCH  10  13
BRANCH  12  29
HETATM   29  C23 UNL     1      15.313  21.371  17.726  1.00  0.00     0.152 C 
BRANCH  29  30
HETATM   30  C24 UNL     1      16.572  20.676  18.184  1.00  0.00     0.061 C 
BRANCH  30  31
HETATM   31  C25 UNL     1      17.475  21.519  18.947  1.00  0.00    -0.039 A 
HETATM   32  C26 UNL     1      18.721  21.067  19.316  1.00  0.00     0.010 A 
HETATM   33  C27 UNL     1      19.599  21.857  20.044  1.00  0.00     0.020 A 
HETATM   34  C28 UNL     1      19.177  23.131  20.393  1.00  0.00     0.122 A 
HETATM   35  N7  UNL     1      17.961  23.579  20.038  1.00  0.00    -0.247 N 
HETATM   36  C29 UNL     1      17.107  22.793  19.321  1.00  0.00     0.129 A 
BRANCH  35  37
HETATM   37  O4  UNL     1      17.563  24.844  20.393  1.00  0.00    -0.284 OA
ATOM     38  H4  UNL     1      18.019  25.311  21.084  1.00  0.00     0.245 HD
ENDBRANCH  35  37
ENDBRANCH  30  31
ENDBRANCH  29  30
ENDBRANCH  12  29
BRANCH   1  39
HETATM   39  N1  UNL     1      16.948  22.390  15.533  1.00  0.00    -0.222 N 
ATOM     40  H1  UNL     1      17.844  21.918  15.654  1.00  0.00     0.178 HD
BRANCH  39  41
HETATM   41  C7  UNL     1      16.923  23.818  15.603  1.00  0.00     0.176 C 
BRANCH  41  42
HETATM   42  C6  UNL     1      18.227  24.452  15.373  1.00  0.00    -0.040 A 
HETATM   43  C5  UNL     1      19.245  24.315  16.285  1.00  0.00     0.009 A 
HETATM   44  C4  UNL     1      20.491  24.914  16.077  1.00  0.00     0.012 A 
HETATM   45  C3  UNL     1      20.729  25.650  14.962  1.00  0.00    -0.037 A 
HETATM   46  C31 UNL     1      19.699  25.792  14.036  1.00  0.00     0.012 A 
HETATM   47  C30 UNL     1      18.484  25.201  14.251  1.00  0.00     0.009 A 
BRANCH  45  48
HETATM   48  C2  UNL     1      22.008  26.290  14.707  1.00  0.00     0.001 C 
HETATM   49  C1  UNL     1      22.882  26.539  15.645  1.00  0.00     0.012 C 
ENDBRANCH  45  48
ENDBRANCH  41  42
ENDBRANCH  39  41
ENDBRANCH   1  39
TORSDOF 14
ENDMDL
