MODEL 1
REMARK VINA RESULT: -10.897444035      0.000      0.000
REMARK  13 active torsions:
REMARK  status: ('A' for Active; 'I' for Inactive)
REMARK    1  A    between atoms: N5_13  and  C5_14 
REMARK    2  A    between atoms: C5_14  and  C6_15 
REMARK    3  A    between atoms: C6_15  and  C7_16 
REMARK    4  A    between atoms: C7_16  and  N6_17 
REMARK    5  A    between atoms: C7_16  and  C8_21 
REMARK       I    between atoms: C8_21  and  N7_23 
REMARK    6  A    between atoms: N7_23  and  C9_25 
REMARK    7  A    between atoms: C9_25  and  C10_26 
REMARK    8  A    between atoms: C10_26  and  N8_27 
REMARK    9  A    between atoms: N9_30  and  C13_31 
REMARK   10  A    between atoms: C15_37  and  C16_38 
REMARK   11  A    between atoms: N14_51  and  C22_52 
REMARK   12  A    between atoms: C22_52  and  C23_53 
REMARK   13  A    between atoms: C23_53  and  O4_54 
ROOT
HETATM    1  N8  UNL     1       8.883   6.291  24.543  1.00  0.00    -0.299 N 
HETATM    2  C11 UNL     1       9.002   7.746  24.449  1.00  0.00     0.157 C 
HETATM    3  C12 UNL     1       8.364   8.481  25.556  1.00  0.00     0.196 C 
HETATM    4  N9  UNL     1       8.295   7.827  26.838  1.00  0.00    -0.076 N 
HETATM    5  O5  UNL     1       8.444   6.487  26.933  1.00  0.00    -0.163 OA
HETATM    6  C24 UNL     1       8.728   5.696  25.854  1.00  0.00     0.389 C 
HETATM    7  O6  UNL     1       8.865   4.450  25.948  1.00  0.00    -0.236 OA
ENDROOT
BRANCH   1   8
HETATM    8  C10 UNL     1       9.017   5.485  23.396  1.00  0.00     0.113 C 
BRANCH   8   9
HETATM    9  C9  UNL     1       7.917   4.744  22.801  1.00  0.00     0.108 C 
BRANCH   9  10
HETATM   10  N7  UNL     1       7.413   3.528  23.286  1.00  0.00    -0.334 N 
HETATM   11  C8  UNL     1       6.095   3.099  23.511  1.00  0.00     0.252 C 
HETATM   12  O2  UNL     1       5.115   3.845  23.278  1.00  0.00    -0.271 OA
ATOM     13  H7  UNL     1       8.127   2.836  23.516  1.00  0.00     0.168 HD
BRANCH  11  14
HETATM   14  C7  UNL     1       5.821   1.755  24.036  1.00  0.00     0.276 C 
BRANCH  14  15
HETATM   15  C6  UNL     1       7.003   0.858  24.036  1.00  0.00     0.064 C 
BRANCH  15  16
HETATM   16  C5  UNL     1       6.730  -0.565  24.401  1.00  0.00     0.153 C 
BRANCH  16  17
HETATM   17  N5  UNL     1       6.707  -0.642  25.863  1.00  0.00    -0.270 N 
HETATM   18  C3  UNL     1       7.722  -0.404  26.685  1.00  0.00     0.155 A 
HETATM   19  C2  UNL     1       9.054  -0.040  26.546  1.00  0.00     0.291 A 
HETATM   20  C4  UNL     1       7.277  -0.578  27.978  1.00  0.00     0.153 A 
HETATM   21  N2  UNL     1       9.832   0.125  27.614  1.00  0.00    -0.260 N 
HETATM   22  O1  UNL     1       9.504   0.129  25.397  1.00  0.00    -0.264 OA
HETATM   23  N1  UNL     1       9.384  -0.047  28.832  1.00  0.00    -0.257 N 
ATOM     24  H2  UNL     1      10.807   0.394  27.479  1.00  0.00     0.190 HD
HETATM   25  C1  UNL     1      10.299   0.153  29.944  1.00  0.00     0.181 C 
HETATM   26  C25 UNL     1       8.122  -0.395  29.036  1.00  0.00     0.292 A 
HETATM   27  O7  UNL     1       7.692  -0.560  30.209  1.00  0.00    -0.264 OA
HETATM   28  N3  UNL     1       5.979  -0.924  27.869  1.00  0.00    -0.279 N 
HETATM   29  N4  UNL     1       5.657  -0.956  26.610  1.00  0.00    -0.239 N 
ATOM     30  H3  UNL     1       5.351  -1.125  28.647  1.00  0.00     0.189 HD
ATOM     31  H4  UNL     1       4.732  -1.190  26.250  1.00  0.00     0.208 HD
ENDBRANCH  16  17
ENDBRANCH  15  16
ENDBRANCH  14  15
BRANCH  14  32
HETATM   32  N6  UNL     1       4.724   1.140  23.277  1.00  0.00    -0.066 N 
ATOM     33  H63 UNL     1       5.067   0.509  22.553  1.00  0.00     0.275 HD
ATOM     34  H62 UNL     1       4.207   0.460  23.835  1.00  0.00     0.275 HD
ATOM     35  H61 UNL     1       4.116   1.864  22.896  1.00  0.00     0.275 HD
ENDBRANCH  14  32
ENDBRANCH  11  14
ENDBRANCH   9  10
ENDBRANCH   8   9
ENDBRANCH   1   8
BRANCH   4  36
HETATM   36  C13 UNL     1       8.030   8.651  27.990  1.00  0.00     0.709 A 
HETATM   37  N10 UNL     1       7.037   9.582  28.009  1.00  0.00    -0.172 N 
HETATM   38  C14 UNL     1       6.986  10.197  29.187  1.00  0.00     0.153 A 
ATOM     39  H10 UNL     1       6.414   9.780  27.226  1.00  0.00     0.186 HD
HETATM   40  N11 UNL     1       6.205  11.168  29.710  1.00  0.00    -0.338 N 
HETATM   41  C21 UNL     1       8.004   9.617  29.940  1.00  0.00     0.146 A 
HETATM   42  C15 UNL     1       6.395  11.594  30.966  1.00  0.00     0.065 A 
ATOM     43  H11 UNL     1       5.464  11.581  29.143  1.00  0.00     0.167 HD
HETATM   44  C19 UNL     1       7.386  11.048  31.736  1.00  0.00     0.089 A 
HETATM   45  C20 UNL     1       8.183  10.066  31.223  1.00  0.00     0.205 A 
HETATM   46  O3  UNL     1       9.073   9.597  31.958  1.00  0.00    -0.286 OA
HETATM   47  N14 UNL     1       8.640   8.664  29.184  1.00  0.00    -0.172 N 
BRANCH  42  48
HETATM   48  C16 UNL     1       5.496  12.661  31.509  1.00  0.00     0.068 A 
HETATM   49  C17 UNL     1       5.829  13.281  32.691  1.00  0.00     0.085 A 
HETATM   50  S1  UNL     1       4.538  14.377  32.903  1.00  0.00    -0.064 SA
HETATM   51  C18 UNL     1       3.657  13.998  31.503  1.00  0.00     0.142 A 
HETATM   52  N12 UNL     1       2.520  14.502  31.060  1.00  0.00    -0.380 N 
HETATM   53  N13 UNL     1       4.392  13.043  30.927  1.00  0.00    -0.335 N 
ATOM     54 2H12 UNL     1       1.960  15.232  31.500  1.00  0.00     0.158 HD
ATOM     55 1H12 UNL     1       1.991  14.274  30.218  1.00  0.00     0.158 HD
ATOM     56  H13 UNL     1       4.095  12.619  30.048  1.00  0.00     0.168 HD
ENDBRANCH  42  48
BRANCH  47  57
HETATM   57  C22 UNL     1       9.748   7.892  29.634  1.00  0.00     0.174 C 
BRANCH  57  58
HETATM   58  C23 UNL     1       9.410   6.596  30.305  1.00  0.00     0.185 C 
BRANCH  58  59
HETATM   59  O4  UNL     1       9.470   6.605  31.685  1.00  0.00    -0.399 OA
ATOM     60  H4  UNL     1       8.771   7.077  32.123  1.00  0.00     0.209 HD
ENDBRANCH  58  59
ENDBRANCH  57  58
ENDBRANCH  47  57
ENDBRANCH   4  36
TORSDOF 13
ENDMDL
MODEL 2
REMARK VINA RESULT: -10.885841211      2.137      2.598
REMARK  13 active torsions:
REMARK  status: ('A' for Active; 'I' for Inactive)
REMARK    1  A    between atoms: N5_13  and  C5_14 
REMARK    2  A    between atoms: C5_14  and  C6_15 
REMARK    3  A    between atoms: C6_15  and  C7_16 
REMARK    4  A    between atoms: C7_16  and  N6_17 
REMARK    5  A    between atoms: C7_16  and  C8_21 
REMARK       I    between atoms: C8_21  and  N7_23 
REMARK    6  A    between atoms: N7_23  and  C9_25 
REMARK    7  A    between atoms: C9_25  and  C10_26 
REMARK    8  A    between atoms: C10_26  and  N8_27 
REMARK    9  A    between atoms: N9_30  and  C13_31 
REMARK   10  A    between atoms: C15_37  and  C16_38 
REMARK   11  A    between atoms: N14_51  and  C22_52 
REMARK   12  A    between atoms: C22_52  and  C23_53 
REMARK   13  A    between atoms: C23_53  and  O4_54 
ROOT
HETATM    1  N8  UNL     1       9.149   6.629  24.796  1.00  0.00    -0.299 N 
HETATM    2  C11 UNL     1       8.477   7.928  24.796  1.00  0.00     0.157 C 
HETATM    3  C12 UNL     1       8.111   8.422  26.136  1.00  0.00     0.196 C 
HETATM    4  N9  UNL     1       8.938   8.018  27.245  1.00  0.00    -0.076 N 
HETATM    5  O5  UNL     1       9.755   6.947  27.136  1.00  0.00    -0.163 OA
HETATM    6  C24 UNL     1       9.895   6.238  25.975  1.00  0.00     0.389 C 
HETATM    7  O6  UNL     1      10.656   5.242  25.879  1.00  0.00    -0.236 OA
ENDROOT
BRANCH   1   8
HETATM    8  C10 UNL     1       9.155   5.824  23.640  1.00  0.00     0.113 C 
BRANCH   8   9
HETATM    9  C9  UNL     1       7.979   5.132  23.137  1.00  0.00     0.108 C 
BRANCH   9  10
HETATM   10  N7  UNL     1       7.625   3.813  23.461  1.00  0.00    -0.334 N 
HETATM   11  C8  UNL     1       6.371   3.185  23.528  1.00  0.00     0.252 C 
HETATM   12  O2  UNL     1       5.312   3.808  23.280  1.00  0.00    -0.271 OA
ATOM     13  H7  UNL     1       8.414   3.207  23.688  1.00  0.00     0.168 HD
BRANCH  11  14
HETATM   14  C7  UNL     1       6.259   1.768  23.900  1.00  0.00     0.276 C 
BRANCH  14  15
HETATM   15  C6  UNL     1       7.457   0.961  23.557  1.00  0.00     0.064 C 
BRANCH  15  16
HETATM   16  C5  UNL     1       8.272   0.494  24.719  1.00  0.00     0.153 C 
BRANCH  16  17
HETATM   17  N5  UNL     1       7.558  -0.631  25.327  1.00  0.00    -0.270 N 
HETATM   18  C3  UNL     1       7.322  -0.812  26.620  1.00  0.00     0.155 A 
HETATM   19  C2  UNL     1       7.609  -0.127  27.793  1.00  0.00     0.291 A 
HETATM   20  C4  UNL     1       6.616  -1.987  26.767  1.00  0.00     0.153 A 
HETATM   21  N2  UNL     1       7.212  -0.597  28.974  1.00  0.00    -0.260 N 
HETATM   22  O1  UNL     1       8.246   0.940  27.714  1.00  0.00    -0.264 OA
HETATM   23  N1  UNL     1       6.542  -1.716  29.085  1.00  0.00    -0.257 N 
ATOM     24  H2  UNL     1       7.437  -0.070  29.818  1.00  0.00     0.190 HD
HETATM   25  C1  UNL     1       6.146  -2.162  30.411  1.00  0.00     0.181 C 
HETATM   26  C25 UNL     1       6.235  -2.421  28.006  1.00  0.00     0.292 A 
HETATM   27  O7  UNL     1       5.589  -3.498  28.114  1.00  0.00    -0.264 OA
HETATM   28  N3  UNL     1       6.457  -2.470  25.519  1.00  0.00    -0.279 N 
HETATM   29  N4  UNL     1       7.021  -1.654  24.678  1.00  0.00    -0.239 N 
ATOM     30  H3  UNL     1       5.973  -3.333  25.274  1.00  0.00     0.189 HD
ATOM     31  H4  UNL     1       7.045  -1.784  23.667  1.00  0.00     0.208 HD
ENDBRANCH  16  17
ENDBRANCH  15  16
ENDBRANCH  14  15
BRANCH  14  32
HETATM   32  N6  UNL     1       5.065   1.184  23.277  1.00  0.00    -0.066 N 
ATOM     33  H63 UNL     1       5.222   0.222  22.976  1.00  0.00     0.275 HD
ATOM     34  H62 UNL     1       4.325   1.008  23.956  1.00  0.00     0.275 HD
ATOM     35  H61 UNL     1       4.748   1.777  22.509  1.00  0.00     0.275 HD
ENDBRANCH  14  32
ENDBRANCH  11  14
ENDBRANCH   9  10
ENDBRANCH   8   9
ENDBRANCH   1   8
BRANCH   4  36
HETATM   36  C13 UNL     1       8.827   8.775  28.466  1.00  0.00     0.709 A 
HETATM   37  N10 UNL     1       8.953  10.130  28.499  1.00  0.00    -0.172 N 
HETATM   38  C14 UNL     1       8.795  10.591  29.736  1.00  0.00     0.153 A 
ATOM     39  H10 UNL     1       9.142  10.714  27.684  1.00  0.00     0.186 HD
HETATM   40  N11 UNL     1       8.820  11.822  30.293  1.00  0.00    -0.338 N 
HETATM   41  C21 UNL     1       8.559   9.460  30.514  1.00  0.00     0.146 A 
HETATM   42  C15 UNL     1       8.617  11.979  31.609  1.00  0.00     0.065 A 
ATOM     43  H11 UNL     1       8.994  12.638  29.708  1.00  0.00     0.167 HD
HETATM   44  C19 UNL     1       8.383  10.891  32.405  1.00  0.00     0.089 A 
HETATM   45  C20 UNL     1       8.355   9.641  31.857  1.00  0.00     0.205 A 
HETATM   46  O3  UNL     1       8.138   8.679  32.618  1.00  0.00    -0.286 OA
HETATM   47  N14 UNL     1       8.583   8.345  29.712  1.00  0.00    -0.172 N 
BRANCH  42  48
HETATM   48  C16 UNL     1       8.638  13.363  32.181  1.00  0.00     0.068 A 
HETATM   49  C17 UNL     1       7.448  14.008  32.418  1.00  0.00     0.085 A 
HETATM   50  S1  UNL     1       7.966  15.512  33.037  1.00  0.00    -0.064 SA
HETATM   51  C18 UNL     1       9.640  15.248  32.963  1.00  0.00     0.142 A 
HETATM   52  N12 UNL     1      10.636  16.045  33.305  1.00  0.00    -0.380 N 
HETATM   53  N13 UNL     1       9.734  14.012  32.466  1.00  0.00    -0.335 N 
ATOM     54 2H12 UNL     1      10.564  16.988  33.685  1.00  0.00     0.158 HD
ATOM     55 1H12 UNL     1      11.643  15.885  33.261  1.00  0.00     0.158 HD
ATOM     56  H13 UNL     1      10.647  13.582  32.311  1.00  0.00     0.168 HD
ENDBRANCH  42  48
BRANCH  47  57
HETATM   57  C22 UNL     1       8.404   7.015  30.184  1.00  0.00     0.174 C 
BRANCH  57  58
HETATM   58  C23 UNL     1       9.655   6.280  30.553  1.00  0.00     0.185 C 
BRANCH  58  59
HETATM   59  O4  UNL     1      10.418   6.861  31.547  1.00  0.00    -0.399 OA
ATOM     60  H4  UNL     1      10.818   6.259  32.163  1.00  0.00     0.209 HD
ENDBRANCH  58  59
ENDBRANCH  57  58
ENDBRANCH  47  57
ENDBRANCH   4  36
TORSDOF 13
ENDMDL
MODEL 3
REMARK VINA RESULT: -10.806005808      2.844      4.988
REMARK  13 active torsions:
REMARK  status: ('A' for Active; 'I' for Inactive)
REMARK    1  A    between atoms: N5_13  and  C5_14 
REMARK    2  A    between atoms: C5_14  and  C6_15 
REMARK    3  A    between atoms: C6_15  and  C7_16 
REMARK    4  A    between atoms: C7_16  and  N6_17 
REMARK    5  A    between atoms: C7_16  and  C8_21 
REMARK       I    between atoms: C8_21  and  N7_23 
REMARK    6  A    between atoms: N7_23  and  C9_25 
REMARK    7  A    between atoms: C9_25  and  C10_26 
REMARK    8  A    between atoms: C10_26  and  N8_27 
REMARK    9  A    between atoms: N9_30  and  C13_31 
REMARK   10  A    between atoms: C15_37  and  C16_38 
REMARK   11  A    between atoms: N14_51  and  C22_52 
REMARK   12  A    between atoms: C22_52  and  C23_53 
REMARK   13  A    between atoms: C23_53  and  O4_54 
ROOT
HETATM    1  N8  UNL     1      10.038   3.510  29.321  1.00  0.00    -0.299 N 
HETATM    2  C11 UNL     1      10.409   4.091  28.031  1.00  0.00     0.157 C 
HETATM    3  C12 UNL     1       9.710   5.347  27.707  1.00  0.00     0.196 C 
HETATM    4  N9  UNL     1       9.302   6.186  28.806  1.00  0.00    -0.076 N 
HETATM    5  O5  UNL     1       9.210   5.681  30.057  1.00  0.00    -0.163 OA
HETATM    6  C24 UNL     1       9.552   4.392  30.361  1.00  0.00     0.389 C 
HETATM    7  O6  UNL     1       9.464   3.927  31.525  1.00  0.00    -0.236 OA
ENDROOT
BRANCH   1   8
HETATM    8  C10 UNL     1      10.245   2.139  29.576  1.00  0.00     0.113 C 
BRANCH   8   9
HETATM    9  C9  UNL     1       9.165   1.189  29.789  1.00  0.00     0.108 C 
BRANCH   9  10
HETATM   10  N7  UNL     1       8.858   0.120  28.934  1.00  0.00    -0.334 N 
HETATM   11  C8  UNL     1       7.640  -0.525  28.665  1.00  0.00     0.252 C 
HETATM   12  O2  UNL     1       6.576  -0.175  29.227  1.00  0.00    -0.271 OA
ATOM     13  H7  UNL     1       9.656  -0.253  28.420  1.00  0.00     0.168 HD
BRANCH  11  14
HETATM   14  C7  UNL     1       7.575  -1.642  27.713  1.00  0.00     0.276 C 
BRANCH  14  15
HETATM   15  C6  UNL     1       6.734  -1.367  26.522  1.00  0.00     0.064 C 
BRANCH  15  16
HETATM   16  C5  UNL     1       7.480  -1.039  25.270  1.00  0.00     0.153 C 
BRANCH  16  17
HETATM   17  N5  UNL     1       6.790   0.083  24.632  1.00  0.00    -0.270 N 
HETATM   18  C3  UNL     1       7.075   1.372  24.774  1.00  0.00     0.155 A 
HETATM   19  C2  UNL     1       8.005   2.115  25.486  1.00  0.00     0.291 A 
HETATM   20  C4  UNL     1       6.195   2.094  23.997  1.00  0.00     0.153 A 
HETATM   21  N2  UNL     1       8.025   3.445  25.405  1.00  0.00    -0.260 N 
HETATM   22  O1  UNL     1       8.823   1.509  26.204  1.00  0.00    -0.264 OA
HETATM   23  N1  UNL     1       7.177   4.106  24.659  1.00  0.00    -0.257 N 
ATOM     24  H2  UNL     1       8.722   3.963  25.940  1.00  0.00     0.190 HD
HETATM   25  C1  UNL     1       7.264   5.557  24.626  1.00  0.00     0.181 C 
HETATM   26  C25 UNL     1       6.262   3.459  23.953  1.00  0.00     0.292 A 
HETATM   27  O7  UNL     1       5.446   4.096  23.235  1.00  0.00    -0.264 OA
HETATM   28  N3  UNL     1       5.399   1.179  23.408  1.00  0.00    -0.279 N 
HETATM   29  N4  UNL     1       5.765  -0.007  23.795  1.00  0.00    -0.239 N 
ATOM     30  H3  UNL     1       4.635   1.384  22.765  1.00  0.00     0.189 HD
ATOM     31  H4  UNL     1       5.328  -0.879  23.497  1.00  0.00     0.208 HD
ENDBRANCH  16  17
ENDBRANCH  15  16
ENDBRANCH  14  15
BRANCH  14  32
HETATM   32  N6  UNL     1       7.097  -2.850  28.397  1.00  0.00    -0.066 N 
ATOM     33  H63 UNL     1       6.209  -3.178  28.018  1.00  0.00     0.275 HD
ATOM     34  H62 UNL     1       7.665  -3.667  28.173  1.00  0.00     0.275 HD
ATOM     35  H61 UNL     1       7.045  -2.684  29.402  1.00  0.00     0.275 HD
ENDBRANCH  14  32
ENDBRANCH  11  14
ENDBRANCH   9  10
ENDBRANCH   8   9
ENDBRANCH   1   8
BRANCH   4  36
HETATM   36  C13 UNL     1       8.970   7.556  28.508  1.00  0.00     0.709 A 
HETATM   37  N10 UNL     1       7.906   7.897  27.732  1.00  0.00    -0.172 N 
HETATM   38  C14 UNL     1       7.804   9.218  27.620  1.00  0.00     0.153 A 
ATOM     39  H10 UNL     1       7.270   7.229  27.294  1.00  0.00     0.186 HD
HETATM   40  N11 UNL     1       6.947  10.047  26.983  1.00  0.00    -0.338 N 
HETATM   41  C21 UNL     1       8.864   9.725  28.367  1.00  0.00     0.146 A 
HETATM   42  C15 UNL     1       7.101  11.376  27.058  1.00  0.00     0.065 A 
ATOM     43  H11 UNL     1       6.177   9.657  26.440  1.00  0.00     0.167 HD
HETATM   44  C19 UNL     1       8.131  11.911  27.783  1.00  0.00     0.089 A 
HETATM   45  C20 UNL     1       9.005  11.087  28.432  1.00  0.00     0.205 A 
HETATM   46  O3  UNL     1       9.929  11.616  29.080  1.00  0.00    -0.286 OA
HETATM   47  N14 UNL     1       9.576   8.683  28.909  1.00  0.00    -0.172 N 
BRANCH  42  48
HETATM   48  C16 UNL     1       6.119  12.257  26.349  1.00  0.00     0.068 A 
HETATM   49  C17 UNL     1       4.793  12.208  26.709  1.00  0.00     0.085 A 
HETATM   50  S1  UNL     1       4.086  13.341  25.647  1.00  0.00    -0.064 SA
HETATM   51  C18 UNL     1       5.488  13.811  24.814  1.00  0.00     0.142 A 
HETATM   52  N12 UNL     1       5.635  14.684  23.835  1.00  0.00    -0.380 N 
HETATM   53  N13 UNL     1       6.445  13.077  25.387  1.00  0.00    -0.335 N 
ATOM     54 2H12 UNL     1       4.904  15.244  23.398  1.00  0.00     0.158 HD
ATOM     55 1H12 UNL     1       6.478  14.967  23.334  1.00  0.00     0.158 HD
ATOM     56  H13 UNL     1       7.415  13.156  25.079  1.00  0.00     0.168 HD
ENDBRANCH  42  48
BRANCH  47  57
HETATM   57  C22 UNL     1      10.741   8.839  29.711  1.00  0.00     0.174 C 
BRANCH  57  58
HETATM   58  C23 UNL     1      10.571   8.554  31.171  1.00  0.00     0.185 C 
BRANCH  58  59
HETATM   59  O4  UNL     1      11.161   7.390  31.624  1.00  0.00    -0.399 OA
ATOM     60  H4  UNL     1      11.986   7.499  32.083  1.00  0.00     0.209 HD
ENDBRANCH  58  59
ENDBRANCH  57  58
ENDBRANCH  47  57
ENDBRANCH   4  36
TORSDOF 13
ENDMDL
MODEL 4
REMARK VINA RESULT: -10.794282857      1.793      2.055
REMARK  13 active torsions:
REMARK  status: ('A' for Active; 'I' for Inactive)
REMARK    1  A    between atoms: N5_13  and  C5_14 
REMARK    2  A    between atoms: C5_14  and  C6_15 
REMARK    3  A    between atoms: C6_15  and  C7_16 
REMARK    4  A    between atoms: C7_16  and  N6_17 
REMARK    5  A    between atoms: C7_16  and  C8_21 
REMARK       I    between atoms: C8_21  and  N7_23 
REMARK    6  A    between atoms: N7_23  and  C9_25 
REMARK    7  A    between atoms: C9_25  and  C10_26 
REMARK    8  A    between atoms: C10_26  and  N8_27 
REMARK    9  A    between atoms: N9_30  and  C13_31 
REMARK   10  A    between atoms: C15_37  and  C16_38 
REMARK   11  A    between atoms: N14_51  and  C22_52 
REMARK   12  A    between atoms: C22_52  and  C23_53 
REMARK   13  A    between atoms: C23_53  and  O4_54 
ROOT
HETATM    1  N8  UNL     1       9.126   6.609  24.785  1.00  0.00    -0.299 N 
HETATM    2  C11 UNL     1       8.374   7.863  24.768  1.00  0.00     0.157 C 
HETATM    3  C12 UNL     1       7.956   8.338  26.100  1.00  0.00     0.196 C 
HETATM    4  N9  UNL     1       8.788   7.990  27.223  1.00  0.00    -0.076 N 
HETATM    5  O5  UNL     1       9.673   6.972  27.132  1.00  0.00    -0.163 OA
HETATM    6  C24 UNL     1       9.875   6.269  25.976  1.00  0.00     0.389 C 
HETATM    7  O6  UNL     1      10.699   5.323  25.896  1.00  0.00    -0.236 OA
ENDROOT
BRANCH   1   8
HETATM    8  C10 UNL     1       9.200   5.802  23.632  1.00  0.00     0.113 C 
BRANCH   8   9
HETATM    9  C9  UNL     1       8.058   5.100  23.067  1.00  0.00     0.108 C 
BRANCH   9  10
HETATM   10  N7  UNL     1       7.671   3.795  23.408  1.00  0.00    -0.334 N 
HETATM   11  C8  UNL     1       6.404   3.191  23.456  1.00  0.00     0.252 C 
HETATM   12  O2  UNL     1       5.364   3.829  23.169  1.00  0.00    -0.271 OA
ATOM     13  H7  UNL     1       8.443   3.179  23.665  1.00  0.00     0.168 HD
BRANCH  11  14
HETATM   14  C7  UNL     1       6.256   1.784  23.852  1.00  0.00     0.276 C 
BRANCH  14  15
HETATM   15  C6  UNL     1       7.431   0.941  23.520  1.00  0.00     0.064 C 
BRANCH  15  16
HETATM   16  C5  UNL     1       8.247   0.488  24.687  1.00  0.00     0.153 C 
BRANCH  16  17
HETATM   17  N5  UNL     1       7.539  -0.635  25.303  1.00  0.00    -0.270 N 
HETATM   18  C3  UNL     1       7.310  -0.812  26.599  1.00  0.00     0.155 A 
HETATM   19  C2  UNL     1       7.602  -0.121  27.767  1.00  0.00     0.291 A 
HETATM   20  C4  UNL     1       6.607  -1.987  26.754  1.00  0.00     0.153 A 
HETATM   21  N2  UNL     1       7.212  -0.587  28.952  1.00  0.00    -0.260 N 
HETATM   22  O1  UNL     1       8.237   0.947  27.680  1.00  0.00    -0.264 OA
HETATM   23  N1  UNL     1       6.545  -1.707  29.071  1.00  0.00    -0.257 N 
ATOM     24  H2  UNL     1       7.441  -0.056  29.792  1.00  0.00     0.190 HD
HETATM   25  C1  UNL     1       6.157  -2.147  30.401  1.00  0.00     0.181 C 
HETATM   26  C25 UNL     1       6.233  -2.417  27.996  1.00  0.00     0.292 A 
HETATM   27  O7  UNL     1       5.591  -3.494  28.112  1.00  0.00    -0.264 OA
HETATM   28  N3  UNL     1       6.442  -2.476  25.509  1.00  0.00    -0.279 N 
HETATM   29  N4  UNL     1       7.000  -1.663  24.662  1.00  0.00    -0.239 N 
ATOM     30  H3  UNL     1       5.959  -3.341  25.271  1.00  0.00     0.189 HD
ATOM     31  H4  UNL     1       7.020  -1.796  23.651  1.00  0.00     0.208 HD
ENDBRANCH  16  17
ENDBRANCH  15  16
ENDBRANCH  14  15
BRANCH  14  32
HETATM   32  N6  UNL     1       5.046   1.222  23.240  1.00  0.00    -0.066 N 
ATOM     33  H63 UNL     1       4.831   1.659  22.345  1.00  0.00     0.275 HD
ATOM     34  H62 UNL     1       5.192   0.268  22.909  1.00  0.00     0.275 HD
ATOM     35  H61 UNL     1       4.264   1.284  23.893  1.00  0.00     0.275 HD
ENDBRANCH  14  32
ENDBRANCH  11  14
ENDBRANCH   9  10
ENDBRANCH   8   9
ENDBRANCH   1   8
BRANCH   4  36
HETATM   36  C13 UNL     1       8.611   8.743  28.439  1.00  0.00     0.709 A 
HETATM   37  N10 UNL     1       8.498  10.099  28.449  1.00  0.00    -0.172 N 
HETATM   38  C14 UNL     1       8.328  10.552  29.687  1.00  0.00     0.153 A 
ATOM     39  H10 UNL     1       8.538  10.689  27.617  1.00  0.00     0.186 HD
HETATM   40  N11 UNL     1       8.165  11.781  30.227  1.00  0.00    -0.338 N 
HETATM   41  C21 UNL     1       8.336   9.415  30.491  1.00  0.00     0.146 A 
HETATM   42  C15 UNL     1       8.008  11.929  31.549  1.00  0.00     0.065 A 
ATOM     43  H11 UNL     1       8.162  12.602  29.622  1.00  0.00     0.167 HD
HETATM   44  C19 UNL     1       8.011  10.835  32.371  1.00  0.00     0.089 A 
HETATM   45  C20 UNL     1       8.174   9.587  31.841  1.00  0.00     0.205 A 
HETATM   46  O3  UNL     1       8.171   8.619  32.625  1.00  0.00    -0.286 OA
HETATM   47  N14 UNL     1       8.513   8.305  29.702  1.00  0.00    -0.172 N 
BRANCH  42  48
HETATM   48  C16 UNL     1       7.815  13.307  32.102  1.00  0.00     0.068 A 
HETATM   49  C17 UNL     1       8.712  13.791  33.025  1.00  0.00     0.085 A 
HETATM   50  S1  UNL     1       8.088  15.344  33.360  1.00  0.00    -0.064 SA
HETATM   51  C18 UNL     1       6.743  15.299  32.326  1.00  0.00     0.142 A 
HETATM   52  N12 UNL     1       5.818  16.216  32.105  1.00  0.00    -0.380 N 
HETATM   53  N13 UNL     1       6.827  14.091  31.764  1.00  0.00    -0.335 N 
ATOM     54 2H12 UNL     1       5.754  17.139  32.535  1.00  0.00     0.158 HD
ATOM     55 1H12 UNL     1       5.009  16.189  31.483  1.00  0.00     0.158 HD
ATOM     56  H13 UNL     1       6.132  13.786  31.082  1.00  0.00     0.168 HD
ENDBRANCH  42  48
BRANCH  47  57
HETATM   57  C22 UNL     1       8.596   6.974  30.200  1.00  0.00     0.174 C 
BRANCH  57  58
HETATM   58  C23 UNL     1       9.974   6.480  30.514  1.00  0.00     0.185 C 
BRANCH  58  59
HETATM   59  O4  UNL     1      10.574   7.046  31.622  1.00  0.00    -0.399 OA
ATOM     60  H4  UNL     1      11.249   6.522  32.036  1.00  0.00     0.209 HD
ENDBRANCH  58  59
ENDBRANCH  57  58
ENDBRANCH  47  57
ENDBRANCH   4  36
TORSDOF 13
ENDMDL
MODEL 5
REMARK VINA RESULT: -10.792385774      1.197      1.501
REMARK  13 active torsions:
REMARK  status: ('A' for Active; 'I' for Inactive)
REMARK    1  A    between atoms: N5_13  and  C5_14 
REMARK    2  A    between atoms: C5_14  and  C6_15 
REMARK    3  A    between atoms: C6_15  and  C7_16 
REMARK    4  A    between atoms: C7_16  and  N6_17 
REMARK    5  A    between atoms: C7_16  and  C8_21 
REMARK       I    between atoms: C8_21  and  N7_23 
REMARK    6  A    between atoms: N7_23  and  C9_25 
REMARK    7  A    between atoms: C9_25  and  C10_26 
REMARK    8  A    between atoms: C10_26  and  N8_27 
REMARK    9  A    between atoms: N9_30  and  C13_31 
REMARK   10  A    between atoms: C15_37  and  C16_38 
REMARK   11  A    between atoms: N14_51  and  C22_52 
REMARK   12  A    between atoms: C22_52  and  C23_53 
REMARK   13  A    between atoms: C23_53  and  O4_54 
ROOT
HETATM    1  N8  UNL     1       8.977   6.500  24.729  1.00  0.00    -0.299 N 
HETATM    2  C11 UNL     1       9.044   7.955  24.598  1.00  0.00     0.157 C 
HETATM    3  C12 UNL     1       8.332   8.694  25.656  1.00  0.00     0.196 C 
HETATM    4  N9  UNL     1       8.234   8.072  26.952  1.00  0.00    -0.076 N 
HETATM    5  O5  UNL     1       8.430   6.742  27.093  1.00  0.00    -0.163 OA
HETATM    6  C24 UNL     1       8.790   5.934  26.049  1.00  0.00     0.389 C 
HETATM    7  O6  UNL     1       8.971   4.698  26.184  1.00  0.00    -0.236 OA
ENDROOT
BRANCH   1   8
HETATM    8  C10 UNL     1       9.192   5.668  23.612  1.00  0.00     0.113 C 
BRANCH   8   9
HETATM    9  C9  UNL     1       8.129   4.946  22.932  1.00  0.00     0.108 C 
BRANCH   9  10
HETATM   10  N7  UNL     1       7.661   3.675  23.298  1.00  0.00    -0.334 N 
HETATM   11  C8  UNL     1       6.355   3.174  23.428  1.00  0.00     0.252 C 
HETATM   12  O2  UNL     1       5.353   3.895  23.209  1.00  0.00    -0.271 OA
ATOM     13  H7  UNL     1       8.395   2.998  23.506  1.00  0.00     0.168 HD
BRANCH  11  14
HETATM   14  C7  UNL     1       6.121   1.782  23.834  1.00  0.00     0.276 C 
BRANCH  14  15
HETATM   15  C6  UNL     1       7.212   0.853  23.449  1.00  0.00     0.064 C 
BRANCH  15  16
HETATM   16  C5  UNL     1       8.106   0.415  24.564  1.00  0.00     0.153 C 
BRANCH  16  17
HETATM   17  N5  UNL     1       7.436  -0.693  25.249  1.00  0.00    -0.270 N 
HETATM   18  C3  UNL     1       7.229  -0.807  26.555  1.00  0.00     0.155 A 
HETATM   19  C2  UNL     1       7.519  -0.048  27.681  1.00  0.00     0.291 A 
HETATM   20  C4  UNL     1       6.559  -1.990  26.782  1.00  0.00     0.153 A 
HETATM   21  N2  UNL     1       7.158  -0.462  28.895  1.00  0.00    -0.260 N 
HETATM   22  O1  UNL     1       8.124   1.029  27.529  1.00  0.00    -0.264 OA
HETATM   23  N1  UNL     1       6.521  -1.590  29.081  1.00  0.00    -0.257 N 
ATOM     24  H2  UNL     1       7.384   0.119  29.702  1.00  0.00     0.190 HD
HETATM   25  C1  UNL     1       6.164  -1.970  30.439  1.00  0.00     0.181 C 
HETATM   26  C25 UNL     1       6.214  -2.364  28.050  1.00  0.00     0.292 A 
HETATM   27  O7  UNL     1       5.601  -3.449  28.232  1.00  0.00    -0.264 OA
HETATM   28  N3  UNL     1       6.390  -2.547  25.566  1.00  0.00    -0.279 N 
HETATM   29  N4  UNL     1       6.915  -1.766  24.670  1.00  0.00    -0.239 N 
ATOM     30  H3  UNL     1       5.926  -3.436  25.380  1.00  0.00     0.189 HD
ATOM     31  H4  UNL     1       6.924  -1.951  23.667  1.00  0.00     0.208 HD
ENDBRANCH  16  17
ENDBRANCH  15  16
ENDBRANCH  14  15
BRANCH  14  32
HETATM   32  N6  UNL     1       4.844   1.313  23.282  1.00  0.00    -0.066 N 
ATOM     33  H63 UNL     1       4.566   1.843  22.457  1.00  0.00     0.275 HD
ATOM     34  H62 UNL     1       4.930   0.394  22.847  1.00  0.00     0.275 HD
ATOM     35  H61 UNL     1       4.125   1.328  24.006  1.00  0.00     0.275 HD
ENDBRANCH  14  32
ENDBRANCH  11  14
ENDBRANCH   9  10
ENDBRANCH   8   9
ENDBRANCH   1   8
BRANCH   4  36
HETATM   36  C13 UNL     1       7.887   8.916  28.069  1.00  0.00     0.709 A 
HETATM   37  N10 UNL     1       6.854   9.801  28.023  1.00  0.00    -0.172 N 
HETATM   38  C14 UNL     1       6.731  10.446  29.178  1.00  0.00     0.153 A 
ATOM     39  H10 UNL     1       6.255   9.948  27.211  1.00  0.00     0.186 HD
HETATM   40  N11 UNL     1       5.888  11.396  29.642  1.00  0.00    -0.338 N 
HETATM   41  C21 UNL     1       7.744   9.935  29.986  1.00  0.00     0.146 A 
HETATM   42  C15 UNL     1       6.011  11.865  30.891  1.00  0.00     0.065 A 
ATOM     43  H11 UNL     1       5.153  11.758  29.036  1.00  0.00     0.167 HD
HETATM   44  C19 UNL     1       6.994  11.387  31.715  1.00  0.00     0.089 A 
HETATM   45  C20 UNL     1       7.853  10.427  31.261  1.00  0.00     0.205 A 
HETATM   46  O3  UNL     1       8.733  10.020  32.043  1.00  0.00    -0.286 OA
HETATM   47  N14 UNL     1       8.450   8.989  29.284  1.00  0.00    -0.172 N 
BRANCH  42  48
HETATM   48  C16 UNL     1       5.045  12.906  31.368  1.00  0.00     0.068 A 
HETATM   49  C17 UNL     1       5.269  13.524  32.576  1.00  0.00     0.085 A 
HETATM   50  S1  UNL     1       3.938  14.587  32.692  1.00  0.00    -0.064 SA
HETATM   51  C18 UNL     1       3.179  14.197  31.225  1.00  0.00     0.142 A 
HETATM   52  N12 UNL     1       2.069  14.676  30.696  1.00  0.00    -0.380 N 
HETATM   53  N13 UNL     1       3.981  13.264  30.703  1.00  0.00    -0.335 N 
ATOM     54 2H12 UNL     1       1.457  15.388  31.094  1.00  0.00     0.158 HD
ATOM     55 1H12 UNL     1       1.613  14.442  29.813  1.00  0.00     0.158 HD
ATOM     56  H13 UNL     1       3.765  12.840  29.801  1.00  0.00     0.168 HD
ENDBRANCH  42  48
BRANCH  47  57
HETATM   57  C22 UNL     1       9.572   8.281  29.798  1.00  0.00     0.174 C 
BRANCH  57  58
HETATM   58  C23 UNL     1       9.274   6.956  30.428  1.00  0.00     0.185 C 
BRANCH  58  59
HETATM   59  O4  UNL     1       9.379   6.913  31.805  1.00  0.00    -0.399 OA
ATOM     60  H4  UNL     1       9.198   6.070  32.204  1.00  0.00     0.209 HD
ENDBRANCH  58  59
ENDBRANCH  57  58
ENDBRANCH  47  57
ENDBRANCH   4  36
TORSDOF 13
ENDMDL
