MODEL 1
REMARK VINA RESULT: -7.526148665      0.000      0.000
REMARK  19 active torsions:
REMARK  status: ('A' for Active; 'I' for Inactive)
REMARK    1  A    between atoms: C2_2  and  C4_4 
REMARK    2  A    between atoms: C6_6  and  O1_7 
REMARK    3  A    between atoms: C8_10  and  O2_11 
REMARK    4  A    between atoms: O2_11  and  C9_12 
REMARK    5  A    between atoms: C13_17  and  O4_18 
REMARK    6  A    between atoms: C13_17  and  C14_20 
REMARK    7  A    between atoms: C15_24  and  C16_25 
REMARK    8  A    between atoms: C16_25  and  O9_27 
REMARK    9  A    between atoms: C18_29  and  O10_30 
REMARK   10  A    between atoms: C20_35  and  O13_36 
REMARK   11  A    between atoms: O13_36  and  C21_37 
REMARK   12  A    between atoms: C21_37  and  C22_39 
REMARK   13  A    between atoms: C22_39  and  C23_40 
REMARK   14  A    between atoms: C22_39  and  N1_49 
REMARK   15  A    between atoms: C23_40  and  O15_41 
REMARK   16  A    between atoms: C23_40  and  C24_43 
REMARK   17  A    between atoms: C24_43  and  O16_44 
REMARK   18  A    between atoms: C24_43  and  C25_46 
REMARK   19  A    between atoms: C25_46  and  O17_47 
ROOT
HETATM    1  C4  UNL     1       9.344   7.001  29.244  1.00  0.00     0.075 C 
HETATM    2  C5  UNL     1       8.072   7.738  28.843  1.00  0.00     0.061 C 
HETATM    3  C6  UNL     1       8.181   9.116  28.388  1.00  0.00     0.155 C 
HETATM    4  C7  UNL     1       8.387  10.278  29.233  1.00  0.00     0.033 C 
HETATM    5  C8  UNL     1       7.562  11.479  28.940  1.00  0.00     0.095 C 
HETATM    6  C11 UNL     1       7.864  12.568  29.633  1.00  0.00     0.023 C 
HETATM    7  C12 UNL     1       7.121  13.862  29.446  1.00  0.00     0.053 C 
HETATM    8  C13 UNL     1       8.926  12.570  30.643  1.00  0.00     0.283 C 
HETATM    9  O7  UNL     1       9.361  11.372  31.047  1.00  0.00    -0.310 OA
HETATM   10  C15 UNL     1       8.624  10.216  30.683  1.00  0.00     0.239 C 
HETATM   11  C18 UNL     1       9.592   9.111  31.114  1.00  0.00     0.243 C 
HETATM   12  O11 UNL     1       8.840   7.908  31.377  1.00  0.00    -0.276 OA
HETATM   13  C19 UNL     1       9.249   6.737  30.662  1.00  0.00     0.275 C 
HETATM   14  O12 UNL     1       9.457   5.720  31.279  1.00  0.00    -0.264 OA
HETATM   15  C20 UNL     1      10.738   8.884  30.219  1.00  0.00     0.200 C 
HETATM   16  C26 UNL     1      10.571   7.905  29.108  1.00  0.00     0.062 C 
ENDROOT
BRANCH  15  17
HETATM   17  O13 UNL     1      11.889   8.486  30.988  1.00  0.00    -0.308 OA
BRANCH  17  18
HETATM   18  C21 UNL     1      13.117   9.062  30.902  1.00  0.00     0.291 C 
HETATM   19  O14 UNL     1      13.753   9.021  29.824  1.00  0.00    -0.263 OA
BRANCH  18  20
HETATM   20  C22 UNL     1      13.652   9.732  32.148  1.00  0.00     0.286 C 
BRANCH  20  21
HETATM   21  C23 UNL     1      12.750  10.859  32.495  1.00  0.00     0.187 C 
BRANCH  21  22
HETATM   22  O15 UNL     1      12.628  11.832  31.528  1.00  0.00    -0.390 OA
ATOM     23  H15 UNL     1      12.265  12.658  31.828  1.00  0.00     0.210 HD
ENDBRANCH  21  22
BRANCH  21  24
HETATM   24  C24 UNL     1      12.970  11.438  33.873  1.00  0.00     0.173 C 
BRANCH  24  25
HETATM   25  O16 UNL     1      13.966  12.410  33.892  1.00  0.00    -0.391 OA
ATOM     26  H16 UNL     1      14.072  12.807  34.749  1.00  0.00     0.210 HD
ENDBRANCH  24  25
BRANCH  24  27
HETATM   27  C25 UNL     1      11.730  12.006  34.510  1.00  0.00     0.198 C 
BRANCH  27  28
HETATM   28  O17 UNL     1      10.764  12.069  33.477  1.00  0.00    -0.398 OA
ATOM     29  H17 UNL     1      11.234  12.358  32.704  1.00  0.00     0.209 HD
ENDBRANCH  27  28
ENDBRANCH  24  27
ENDBRANCH  21  24
ENDBRANCH  20  21
BRANCH  20  30
HETATM   30  N1  UNL     1      15.038  10.025  32.024  1.00  0.00    -0.138 N 
HETATM   31  O18 UNL     1      15.449  11.187  31.725  1.00  0.00    -0.536 OA
HETATM   32  O19 UNL     1      16.012   9.084  32.236  1.00  0.00    -0.536 OA
ENDBRANCH  20  30
ENDBRANCH  18  20
ENDBRANCH  17  18
ENDBRANCH  15  17
BRANCH  11  33
HETATM   33  O10 UNL     1      10.080   9.440  32.384  1.00  0.00    -0.360 OA
ATOM     34  H10 UNL     1      11.004   9.223  32.406  1.00  0.00     0.213 HD
ENDBRANCH  11  33
BRANCH  10  35
HETATM   35  C16 UNL     1       7.500  10.104  31.594  1.00  0.00     0.304 C 
HETATM   36  O8  UNL     1       6.452   9.484  31.216  1.00  0.00    -0.261 OA
BRANCH  35  37
HETATM   37  O9  UNL     1       7.377  10.592  32.884  1.00  0.00    -0.324 OA
HETATM   38  C17 UNL     1       7.353   9.782  34.031  1.00  0.00     0.213 C 
ENDBRANCH  35  37
ENDBRANCH  10  35
BRANCH   1  39
HETATM   39  C2  UNL     1       9.600   5.843  28.405  1.00  0.00    -0.075 C 
HETATM   40  C1  UNL     1      10.225   4.756  28.755  1.00  0.00     0.015 C 
HETATM   41  C3  UNL     1       9.064   5.890  26.979  1.00  0.00     0.044 C 
ENDBRANCH   1  39
BRANCH   3  42
HETATM   42  O1  UNL     1       7.020   9.350  27.571  1.00  0.00    -0.391 OA
ATOM     43  H1  UNL     1       6.282   9.360  28.168  1.00  0.00     0.210 HD
ENDBRANCH   3  42
BRANCH   5  44
HETATM   44  O2  UNL     1       6.532  11.631  28.061  1.00  0.00    -0.278 OA
BRANCH  44  45
HETATM   45  C9  UNL     1       6.590  12.104  26.761  1.00  0.00     0.260 C 
HETATM   46  C10 UNL     1       5.609  13.078  26.211  1.00  0.00     0.126 C 
HETATM   47  O3  UNL     1       7.492  11.702  26.025  1.00  0.00    -0.265 OA
ENDBRANCH  44  45
ENDBRANCH   5  44
BRANCH   8  48
HETATM   48  O4  UNL     1       8.507  13.293  31.800  1.00  0.00    -0.353 OA
ATOM     49  H4  UNL     1       7.601  13.089  32.003  1.00  0.00     0.214 HD
ENDBRANCH   8  48
BRANCH   8  50
HETATM   50  C14 UNL     1      10.063  13.390  30.129  1.00  0.00     0.244 C 
HETATM   51  O5  UNL     1      10.843  13.996  30.891  1.00  0.00    -0.644 OA
HETATM   52  O6  UNL     1      10.319  13.526  28.743  1.00  0.00    -0.644 OA
ENDBRANCH   8  50
TORSDOF 19
ENDMDL
MODEL 2
REMARK VINA RESULT: -7.331635411      1.211      2.145
REMARK  19 active torsions:
REMARK  status: ('A' for Active; 'I' for Inactive)
REMARK    1  A    between atoms: C2_2  and  C4_4 
REMARK    2  A    between atoms: C6_6  and  O1_7 
REMARK    3  A    between atoms: C8_10  and  O2_11 
REMARK    4  A    between atoms: O2_11  and  C9_12 
REMARK    5  A    between atoms: C13_17  and  O4_18 
REMARK    6  A    between atoms: C13_17  and  C14_20 
REMARK    7  A    between atoms: C15_24  and  C16_25 
REMARK    8  A    between atoms: C16_25  and  O9_27 
REMARK    9  A    between atoms: C18_29  and  O10_30 
REMARK   10  A    between atoms: C20_35  and  O13_36 
REMARK   11  A    between atoms: O13_36  and  C21_37 
REMARK   12  A    between atoms: C21_37  and  C22_39 
REMARK   13  A    between atoms: C22_39  and  C23_40 
REMARK   14  A    between atoms: C22_39  and  N1_49 
REMARK   15  A    between atoms: C23_40  and  O15_41 
REMARK   16  A    between atoms: C23_40  and  C24_43 
REMARK   17  A    between atoms: C24_43  and  O16_44 
REMARK   18  A    between atoms: C24_43  and  C25_46 
REMARK   19  A    between atoms: C25_46  and  O17_47 
ROOT
HETATM    1  C4  UNL     1       9.490   7.171  29.248  1.00  0.00     0.075 C 
HETATM    2  C5  UNL     1       8.462   7.942  28.427  1.00  0.00     0.061 C 
HETATM    3  C6  UNL     1       8.763   9.314  28.049  1.00  0.00     0.155 C 
HETATM    4  C7  UNL     1       8.688  10.473  28.920  1.00  0.00     0.033 C 
HETATM    5  C8  UNL     1       8.052  11.696  28.362  1.00  0.00     0.095 C 
HETATM    6  C11 UNL     1       8.119  12.779  29.123  1.00  0.00     0.023 C 
HETATM    7  C12 UNL     1       7.526  14.092  28.694  1.00  0.00     0.053 C 
HETATM    8  C13 UNL     1       8.754  12.754  30.444  1.00  0.00     0.283 C 
HETATM    9  O7  UNL     1       8.985  11.547  30.968  1.00  0.00    -0.310 OA
HETATM   10  C15 UNL     1       8.394  10.410  30.359  1.00  0.00     0.239 C 
HETATM   11  C18 UNL     1       9.116   9.280  31.097  1.00  0.00     0.243 C 
HETATM   12  O11 UNL     1       8.287   8.099  31.070  1.00  0.00    -0.276 OA
HETATM   13  C19 UNL     1       8.891   6.915  30.538  1.00  0.00     0.275 C 
HETATM   14  O12 UNL     1       8.840   5.895  31.182  1.00  0.00    -0.264 OA
HETATM   15  C20 UNL     1      10.498   9.019  30.665  1.00  0.00     0.200 C 
HETATM   16  C26 UNL     1      10.709   8.041  29.561  1.00  0.00     0.062 C 
ENDROOT
BRANCH  15  17
HETATM   17  O13 UNL     1      11.291   8.591  31.789  1.00  0.00    -0.308 OA
BRANCH  17  18
HETATM   18  C21 UNL     1      12.127   9.395  32.499  1.00  0.00     0.291 C 
HETATM   19  O14 UNL     1      11.715   9.971  33.531  1.00  0.00    -0.263 OA
BRANCH  18  20
HETATM   20  C22 UNL     1      13.540   9.546  31.980  1.00  0.00     0.286 C 
BRANCH  20  21
HETATM   21  C23 UNL     1      14.329  10.296  32.988  1.00  0.00     0.187 C 
BRANCH  21  22
HETATM   22  O15 UNL     1      14.116  11.657  33.007  1.00  0.00    -0.390 OA
ATOM     23  H15 UNL     1      14.716  12.169  32.477  1.00  0.00     0.210 HD
ENDBRANCH  21  22
BRANCH  21  24
HETATM   24  C24 UNL     1      15.797   9.942  33.028  1.00  0.00     0.173 C 
BRANCH  24  25
HETATM   25  O16 UNL     1      16.146   8.999  32.068  1.00  0.00    -0.391 OA
ATOM     26  H16 UNL     1      16.918   9.249  31.573  1.00  0.00     0.210 HD
ENDBRANCH  24  25
BRANCH  24  27
HETATM   27  C25 UNL     1      16.722  11.122  32.905  1.00  0.00     0.198 C 
BRANCH  27  28
HETATM   28  O17 UNL     1      16.638  11.534  31.552  1.00  0.00    -0.398 OA
ATOM     29  H17 UNL     1      17.309  12.196  31.444  1.00  0.00     0.209 HD
ENDBRANCH  27  28
ENDBRANCH  24  27
ENDBRANCH  21  24
ENDBRANCH  20  21
BRANCH  20  30
HETATM   30  N1  UNL     1      13.551  10.042  30.647  1.00  0.00    -0.138 N 
HETATM   31  O18 UNL     1      14.134   9.418  29.709  1.00  0.00    -0.536 OA
HETATM   32  O19 UNL     1      12.923  11.207  30.289  1.00  0.00    -0.536 OA
ENDBRANCH  20  30
ENDBRANCH  18  20
ENDBRANCH  17  18
ENDBRANCH  15  17
BRANCH  11  33
HETATM   33  O10 UNL     1       9.131   9.600  32.461  1.00  0.00    -0.360 OA
ATOM     34  H10 UNL     1       8.230   9.687  32.748  1.00  0.00     0.213 HD
ENDBRANCH  11  33
BRANCH  10  35
HETATM   35  C16 UNL     1       7.018  10.332  30.813  1.00  0.00     0.304 C 
HETATM   36  O8  UNL     1       6.729  10.717  31.994  1.00  0.00    -0.261 OA
BRANCH  35  37
HETATM   37  O9  UNL     1       5.902   9.880  30.127  1.00  0.00    -0.324 OA
HETATM   38  C17 UNL     1       5.338   8.606  30.301  1.00  0.00     0.213 C 
ENDBRANCH  35  37
ENDBRANCH  10  35
BRANCH   1  39
HETATM   39  C2  UNL     1       9.994   6.004  28.545  1.00  0.00    -0.075 C 
HETATM   40  C1  UNL     1      10.700   5.037  29.058  1.00  0.00     0.015 C 
HETATM   41  C3  UNL     1       9.647   5.881  27.067  1.00  0.00     0.044 C 
ENDBRANCH   1  39
BRANCH   3  42
HETATM   42  O1  UNL     1       7.973   9.578  26.875  1.00  0.00    -0.391 OA
ATOM     43  H1  UNL     1       7.184  10.006  27.185  1.00  0.00     0.210 HD
ENDBRANCH   3  42
BRANCH   5  44
HETATM   44  O2  UNL     1       7.405  11.873  27.176  1.00  0.00    -0.278 OA
BRANCH  44  45
HETATM   45  C9  UNL     1       6.081  11.599  26.884  1.00  0.00     0.260 C 
HETATM   46  C10 UNL     1       4.962  11.944  27.803  1.00  0.00     0.126 C 
HETATM   47  O3  UNL     1       5.812  11.044  25.817  1.00  0.00    -0.265 OA
ENDBRANCH  44  45
ENDBRANCH   5  44
BRANCH   8  48
HETATM   48  O4  UNL     1       7.972  13.492  31.382  1.00  0.00    -0.353 OA
ATOM     49  H4  UNL     1       8.383  13.475  32.239  1.00  0.00     0.214 HD
ENDBRANCH   8  48
BRANCH   8  50
HETATM   50  C14 UNL     1      10.021  13.541  30.372  1.00  0.00     0.244 C 
HETATM   51  O5  UNL     1      10.446  14.206  31.338  1.00  0.00    -0.644 OA
HETATM   52  O6  UNL     1      10.812  13.577  29.198  1.00  0.00    -0.644 OA
ENDBRANCH   8  50
TORSDOF 19
ENDMDL
MODEL 3
REMARK VINA RESULT: -7.297088651      1.115      1.643
REMARK  19 active torsions:
REMARK  status: ('A' for Active; 'I' for Inactive)
REMARK    1  A    between atoms: C2_2  and  C4_4 
REMARK    2  A    between atoms: C6_6  and  O1_7 
REMARK    3  A    between atoms: C8_10  and  O2_11 
REMARK    4  A    between atoms: O2_11  and  C9_12 
REMARK    5  A    between atoms: C13_17  and  O4_18 
REMARK    6  A    between atoms: C13_17  and  C14_20 
REMARK    7  A    between atoms: C15_24  and  C16_25 
REMARK    8  A    between atoms: C16_25  and  O9_27 
REMARK    9  A    between atoms: C18_29  and  O10_30 
REMARK   10  A    between atoms: C20_35  and  O13_36 
REMARK   11  A    between atoms: O13_36  and  C21_37 
REMARK   12  A    between atoms: C21_37  and  C22_39 
REMARK   13  A    between atoms: C22_39  and  C23_40 
REMARK   14  A    between atoms: C22_39  and  N1_49 
REMARK   15  A    between atoms: C23_40  and  O15_41 
REMARK   16  A    between atoms: C23_40  and  C24_43 
REMARK   17  A    between atoms: C24_43  and  O16_44 
REMARK   18  A    between atoms: C24_43  and  C25_46 
REMARK   19  A    between atoms: C25_46  and  O17_47 
ROOT
HETATM    1  C4  UNL     1       9.327   6.863  29.058  1.00  0.00     0.075 C 
HETATM    2  C5  UNL     1       8.028   7.456  28.524  1.00  0.00     0.061 C 
HETATM    3  C6  UNL     1       8.040   8.823  28.029  1.00  0.00     0.155 C 
HETATM    4  C7  UNL     1       8.056  10.024  28.845  1.00  0.00     0.033 C 
HETATM    5  C8  UNL     1       7.145  11.127  28.439  1.00  0.00     0.095 C 
HETATM    6  C11 UNL     1       7.276  12.260  29.112  1.00  0.00     0.023 C 
HETATM    7  C12 UNL     1       6.428  13.466  28.815  1.00  0.00     0.053 C 
HETATM    8  C13 UNL     1       8.241  12.398  30.208  1.00  0.00     0.283 C 
HETATM    9  O7  UNL     1       8.754  11.264  30.691  1.00  0.00    -0.310 OA
HETATM   10  C15 UNL     1       8.170  10.029  30.310  1.00  0.00     0.239 C 
HETATM   11  C18 UNL     1       9.201   9.040  30.862  1.00  0.00     0.243 C 
HETATM   12  O11 UNL     1       8.551   7.775  31.106  1.00  0.00    -0.276 OA
HETATM   13  C19 UNL     1       9.134   6.631  30.472  1.00  0.00     0.275 C 
HETATM   14  O12 UNL     1       9.387   5.659  31.142  1.00  0.00    -0.264 OA
HETATM   15  C20 UNL     1      10.438   8.905  30.076  1.00  0.00     0.200 C 
HETATM   16  C26 UNL     1      10.466   7.883  28.992  1.00  0.00     0.062 C 
ENDROOT
BRANCH  15  17
HETATM   17  O13 UNL     1      11.550   8.648  30.953  1.00  0.00    -0.308 OA
BRANCH  17  18
HETATM   18  C21 UNL     1      12.807   9.136  30.776  1.00  0.00     0.291 C 
HETATM   19  O14 UNL     1      13.592   8.568  29.983  1.00  0.00    -0.263 OA
BRANCH  18  20
HETATM   20  C22 UNL     1      13.187  10.365  31.572  1.00  0.00     0.286 C 
BRANCH  20  21
HETATM   21  C23 UNL     1      13.339   9.971  32.994  1.00  0.00     0.187 C 
BRANCH  21  22
HETATM   22  O15 UNL     1      12.160   9.810  33.688  1.00  0.00    -0.390 OA
ATOM     23  H15 UNL     1      11.649  10.603  33.808  1.00  0.00     0.210 HD
ENDBRANCH  21  22
BRANCH  21  24
HETATM   24  C24 UNL     1      14.357  10.778  33.765  1.00  0.00     0.173 C 
BRANCH  24  25
HETATM   25  O16 UNL     1      15.032  11.692  32.963  1.00  0.00    -0.391 OA
ATOM     26  H16 UNL     1      14.524  11.961  32.207  1.00  0.00     0.210 HD
ENDBRANCH  24  25
BRANCH  24  27
HETATM   27  C25 UNL     1      13.796  11.504  34.958  1.00  0.00     0.198 C 
BRANCH  27  28
HETATM   28  O17 UNL     1      13.099  12.619  34.434  1.00  0.00    -0.398 OA
ATOM     29  H17 UNL     1      12.579  12.957  35.153  1.00  0.00     0.209 HD
ENDBRANCH  27  28
ENDBRANCH  24  27
ENDBRANCH  21  24
ENDBRANCH  20  21
BRANCH  20  30
HETATM   30  N1  UNL     1      12.316  11.454  31.289  1.00  0.00    -0.138 N 
HETATM   31  O18 UNL     1      12.278  11.996  30.143  1.00  0.00    -0.536 OA
HETATM   32  O19 UNL     1      11.456  11.971  32.223  1.00  0.00    -0.536 OA
ENDBRANCH  20  30
ENDBRANCH  18  20
ENDBRANCH  17  18
ENDBRANCH  15  17
BRANCH  11  33
HETATM   33  O10 UNL     1       9.540   9.454  32.156  1.00  0.00    -0.360 OA
ATOM     34  H10 UNL     1       8.742   9.723  32.594  1.00  0.00     0.213 HD
ENDBRANCH  11  33
BRANCH  10  35
HETATM   35  C16 UNL     1       6.987   9.829  31.127  1.00  0.00     0.304 C 
HETATM   36  O8  UNL     1       7.075   9.962  32.393  1.00  0.00    -0.261 OA
BRANCH  35  37
HETATM   37  O9  UNL     1       5.703   9.498  30.729  1.00  0.00    -0.324 OA
HETATM   38  C17 UNL     1       5.311   8.207  30.337  1.00  0.00     0.213 C 
ENDBRANCH  35  37
ENDBRANCH  10  35
BRANCH   1  39
HETATM   39  C2  UNL     1       9.768   5.714  28.287  1.00  0.00    -0.075 C 
HETATM   40  C1  UNL     1      10.343   4.643  28.754  1.00  0.00     0.015 C 
HETATM   41  C3  UNL     1       9.512   5.748  26.785  1.00  0.00     0.044 C 
ENDBRANCH   1  39
BRANCH   3  42
HETATM   42  O1  UNL     1       6.937   8.915  27.109  1.00  0.00    -0.391 OA
ATOM     43  H1  UNL     1       6.902   9.825  26.838  1.00  0.00     0.210 HD
ENDBRANCH   3  42
BRANCH   5  44
HETATM   44  O2  UNL     1       6.186  11.148  27.471  1.00  0.00    -0.278 OA
BRANCH  44  45
HETATM   45  C9  UNL     1       6.299  11.624  26.176  1.00  0.00     0.260 C 
HETATM   46  C10 UNL     1       5.266  12.486  25.538  1.00  0.00     0.126 C 
HETATM   47  O3  UNL     1       7.297  11.323  25.519  1.00  0.00    -0.265 OA
ENDBRANCH  44  45
ENDBRANCH   5  44
BRANCH   8  48
HETATM   48  O4  UNL     1       7.652  13.108  31.297  1.00  0.00    -0.353 OA
ATOM     49  H4  UNL     1       8.100  13.936  31.430  1.00  0.00     0.214 HD
ENDBRANCH   8  48
BRANCH   8  50
HETATM   50  C14 UNL     1       9.331  13.315  29.761  1.00  0.00     0.244 C 
HETATM   51  O5  UNL     1       9.891  14.111  30.541  1.00  0.00    -0.644 OA
HETATM   52  O6  UNL     1       9.792  13.331  28.422  1.00  0.00    -0.644 OA
ENDBRANCH   8  50
TORSDOF 19
ENDMDL
MODEL 4
REMARK VINA RESULT: -7.258510353      1.039      1.754
REMARK  19 active torsions:
REMARK  status: ('A' for Active; 'I' for Inactive)
REMARK    1  A    between atoms: C2_2  and  C4_4 
REMARK    2  A    between atoms: C6_6  and  O1_7 
REMARK    3  A    between atoms: C8_10  and  O2_11 
REMARK    4  A    between atoms: O2_11  and  C9_12 
REMARK    5  A    between atoms: C13_17  and  O4_18 
REMARK    6  A    between atoms: C13_17  and  C14_20 
REMARK    7  A    between atoms: C15_24  and  C16_25 
REMARK    8  A    between atoms: C16_25  and  O9_27 
REMARK    9  A    between atoms: C18_29  and  O10_30 
REMARK   10  A    between atoms: C20_35  and  O13_36 
REMARK   11  A    between atoms: O13_36  and  C21_37 
REMARK   12  A    between atoms: C21_37  and  C22_39 
REMARK   13  A    between atoms: C22_39  and  C23_40 
REMARK   14  A    between atoms: C22_39  and  N1_49 
REMARK   15  A    between atoms: C23_40  and  O15_41 
REMARK   16  A    between atoms: C23_40  and  C24_43 
REMARK   17  A    between atoms: C24_43  and  O16_44 
REMARK   18  A    between atoms: C24_43  and  C25_46 
REMARK   19  A    between atoms: C25_46  and  O17_47 
ROOT
HETATM    1  C4  UNL     1       9.355   7.077  29.295  1.00  0.00     0.075 C 
HETATM    2  C5  UNL     1       8.025   7.740  28.955  1.00  0.00     0.061 C 
HETATM    3  C6  UNL     1       8.031   9.127  28.519  1.00  0.00     0.155 C 
HETATM    4  C7  UNL     1       8.198  10.288  29.376  1.00  0.00     0.033 C 
HETATM    5  C8  UNL     1       7.289  11.440  29.134  1.00  0.00     0.095 C 
HETATM    6  C11 UNL     1       7.549  12.535  29.833  1.00  0.00     0.023 C 
HETATM    7  C12 UNL     1       6.721  13.783  29.696  1.00  0.00     0.053 C 
HETATM    8  C13 UNL     1       8.648  12.588  30.802  1.00  0.00     0.283 C 
HETATM    9  O7  UNL     1       9.171  11.415  31.169  1.00  0.00    -0.310 OA
HETATM   10  C15 UNL     1       8.494  10.220  30.814  1.00  0.00     0.239 C 
HETATM   11  C18 UNL     1       9.544   9.172  31.189  1.00  0.00     0.243 C 
HETATM   12  O11 UNL     1       8.879   7.920  31.461  1.00  0.00    -0.276 OA
HETATM   13  C19 UNL     1       9.331   6.787  30.711  1.00  0.00     0.275 C 
HETATM   14  O12 UNL     1       9.627   5.777  31.302  1.00  0.00    -0.264 OA
HETATM   15  C20 UNL     1      10.667   9.030  30.248  1.00  0.00     0.200 C 
HETATM   16  C26 UNL     1      10.518   8.058  29.128  1.00  0.00     0.062 C 
ENDROOT
BRANCH  15  17
HETATM   17  O13 UNL     1      11.869   8.693  30.966  1.00  0.00    -0.308 OA
BRANCH  17  18
HETATM   18  C21 UNL     1      13.128   9.012  30.563  1.00  0.00     0.291 C 
HETATM   19  O14 UNL     1      13.734   8.269  29.758  1.00  0.00    -0.263 OA
BRANCH  18  20
HETATM   20  C22 UNL     1      13.733  10.277  31.132  1.00  0.00     0.286 C 
BRANCH  20  21
HETATM   21  C23 UNL     1      14.472   9.925  32.369  1.00  0.00     0.187 C 
BRANCH  21  22
HETATM   22  O15 UNL     1      13.702   9.409  33.388  1.00  0.00    -0.390 OA
ATOM     23  H15 UNL     1      14.183   8.959  34.072  1.00  0.00     0.210 HD
ENDBRANCH  21  22
BRANCH  21  24
HETATM   24  C24 UNL     1      15.431  10.987  32.852  1.00  0.00     0.173 C 
BRANCH  24  25
HETATM   25  O16 UNL     1      14.800  11.978  33.598  1.00  0.00    -0.391 OA
ATOM     26  H16 UNL     1      15.403  12.453  34.159  1.00  0.00     0.210 HD
ENDBRANCH  24  25
BRANCH  24  27
HETATM   27  C25 UNL     1      16.596  10.456  33.643  1.00  0.00     0.198 C 
BRANCH  27  28
HETATM   28  O17 UNL     1      16.881   9.183  33.095  1.00  0.00    -0.398 OA
ATOM     29  H17 UNL     1      16.190   9.013  32.466  1.00  0.00     0.209 HD
ENDBRANCH  27  28
ENDBRANCH  24  27
ENDBRANCH  21  24
ENDBRANCH  20  21
BRANCH  20  30
HETATM   30  N1  UNL     1      12.765  11.315  31.228  1.00  0.00    -0.138 N 
HETATM   31  O18 UNL     1      12.410  11.989  30.214  1.00  0.00    -0.536 OA
HETATM   32  O19 UNL     1      12.145  11.639  32.407  1.00  0.00    -0.536 OA
ENDBRANCH  20  30
ENDBRANCH  18  20
ENDBRANCH  17  18
ENDBRANCH  15  17
BRANCH  11  33
HETATM   33  O10 UNL     1      10.060   9.513  32.446  1.00  0.00    -0.360 OA
ATOM     34  H10 UNL     1       9.426  10.074  32.877  1.00  0.00     0.213 HD
ENDBRANCH  11  33
BRANCH  10  35
HETATM   35  C16 UNL     1       7.416  10.025  31.765  1.00  0.00     0.304 C 
HETATM   36  O8  UNL     1       6.382   9.368  31.408  1.00  0.00    -0.261 OA
BRANCH  35  37
HETATM   37  O9  UNL     1       7.324  10.465  33.075  1.00  0.00    -0.324 OA
HETATM   38  C17 UNL     1       7.335   9.613  34.192  1.00  0.00     0.213 C 
ENDBRANCH  35  37
ENDBRANCH  10  35
BRANCH   1  39
HETATM   39  C2  UNL     1       9.649   5.950  28.427  1.00  0.00    -0.075 C 
HETATM   40  C1  UNL     1      10.289   4.865  28.758  1.00  0.00     0.015 C 
HETATM   41  C3  UNL     1       9.139   6.028  26.994  1.00  0.00     0.044 C 
ENDBRANCH   1  39
BRANCH   3  42
HETATM   42  O1  UNL     1       6.826   9.300  27.751  1.00  0.00    -0.391 OA
ATOM     43  H1  UNL     1       6.263   9.856  28.276  1.00  0.00     0.210 HD
ENDBRANCH   3  42
BRANCH   5  44
HETATM   44  O2  UNL     1       6.218  11.539  28.297  1.00  0.00    -0.278 OA
BRANCH  44  45
HETATM   45  C9  UNL     1       6.189  12.062  27.016  1.00  0.00     0.260 C 
HETATM   46  C10 UNL     1       5.025  12.816  26.476  1.00  0.00     0.126 C 
HETATM   47  O3  UNL     1       7.169  11.898  26.288  1.00  0.00    -0.265 OA
ENDBRANCH  44  45
ENDBRANCH   5  44
BRANCH   8  48
HETATM   48  O4  UNL     1       8.230  13.267  31.986  1.00  0.00    -0.353 OA
ATOM     49  H4  UNL     1       7.675  12.701  32.510  1.00  0.00     0.214 HD
ENDBRANCH   8  48
BRANCH   8  50
HETATM   50  C14 UNL     1       9.711  13.486  30.260  1.00  0.00     0.244 C 
HETATM   51  O5  UNL     1      10.433  14.183  30.999  1.00  0.00    -0.644 OA
HETATM   52  O6  UNL     1       9.958  13.595  28.869  1.00  0.00    -0.644 OA
ENDBRANCH   8  50
TORSDOF 19
ENDMDL
MODEL 5
REMARK VINA RESULT: -7.034936838      1.302      2.359
REMARK  19 active torsions:
REMARK  status: ('A' for Active; 'I' for Inactive)
REMARK    1  A    between atoms: C2_2  and  C4_4 
REMARK    2  A    between atoms: C6_6  and  O1_7 
REMARK    3  A    between atoms: C8_10  and  O2_11 
REMARK    4  A    between atoms: O2_11  and  C9_12 
REMARK    5  A    between atoms: C13_17  and  O4_18 
REMARK    6  A    between atoms: C13_17  and  C14_20 
REMARK    7  A    between atoms: C15_24  and  C16_25 
REMARK    8  A    between atoms: C16_25  and  O9_27 
REMARK    9  A    between atoms: C18_29  and  O10_30 
REMARK   10  A    between atoms: C20_35  and  O13_36 
REMARK   11  A    between atoms: O13_36  and  C21_37 
REMARK   12  A    between atoms: C21_37  and  C22_39 
REMARK   13  A    between atoms: C22_39  and  C23_40 
REMARK   14  A    between atoms: C22_39  and  N1_49 
REMARK   15  A    between atoms: C23_40  and  O15_41 
REMARK   16  A    between atoms: C23_40  and  C24_43 
REMARK   17  A    between atoms: C24_43  and  O16_44 
REMARK   18  A    between atoms: C24_43  and  C25_46 
REMARK   19  A    between atoms: C25_46  and  O17_47 
ROOT
HETATM    1  C4  UNL     1       9.200   7.098  28.900  1.00  0.00     0.075 C 
HETATM    2  C5  UNL     1       8.176   7.963  28.174  1.00  0.00     0.061 C 
HETATM    3  C6  UNL     1       8.527   9.340  27.861  1.00  0.00     0.155 C 
HETATM    4  C7  UNL     1       8.548  10.447  28.800  1.00  0.00     0.033 C 
HETATM    5  C8  UNL     1       7.949  11.729  28.343  1.00  0.00     0.095 C 
HETATM    6  C11 UNL     1       8.102  12.760  29.161  1.00  0.00     0.023 C 
HETATM    7  C12 UNL     1       7.556  14.123  28.836  1.00  0.00     0.053 C 
HETATM    8  C13 UNL     1       8.794  12.628  30.447  1.00  0.00     0.283 C 
HETATM    9  O7  UNL     1       8.988  11.382  30.890  1.00  0.00    -0.310 OA
HETATM   10  C15 UNL     1       8.315  10.312  30.245  1.00  0.00     0.239 C 
HETATM   11  C18 UNL     1       9.013   9.108  30.883  1.00  0.00     0.243 C 
HETATM   12  O11 UNL     1       8.127   7.971  30.827  1.00  0.00    -0.276 OA
HETATM   13  C19 UNL     1       8.647   6.793  30.200  1.00  0.00     0.275 C 
HETATM   14  O12 UNL     1       8.575   5.740  30.786  1.00  0.00    -0.264 OA
HETATM   15  C20 UNL     1      10.361   8.809  30.372  1.00  0.00     0.200 C 
HETATM   16  C26 UNL     1      10.474   7.890  29.204  1.00  0.00     0.062 C 
ENDROOT
BRANCH  15  17
HETATM   17  O13 UNL     1      11.180   8.279  31.431  1.00  0.00    -0.308 OA
BRANCH  17  18
HETATM   18  C21 UNL     1      12.199   8.949  32.032  1.00  0.00     0.291 C 
HETATM   19  O14 UNL     1      12.628   8.567  33.145  1.00  0.00    -0.263 OA
BRANCH  18  20
HETATM   20  C22 UNL     1      12.762  10.147  31.300  1.00  0.00     0.286 C 
BRANCH  20  21
HETATM   21  C23 UNL     1      13.940   9.702  30.514  1.00  0.00     0.187 C 
BRANCH  21  22
HETATM   22  O15 UNL     1      13.865   8.419  30.020  1.00  0.00    -0.390 OA
ATOM     23  H15 UNL     1      14.461   8.224  29.306  1.00  0.00     0.210 HD
ENDBRANCH  21  22
BRANCH  21  24
HETATM   24  C24 UNL     1      15.273   9.994  31.160  1.00  0.00     0.173 C 
BRANCH  24  25
HETATM   25  O16 UNL     1      15.661   9.005  32.058  1.00  0.00    -0.391 OA
ATOM     26  H16 UNL     1      15.242   9.097  32.906  1.00  0.00     0.210 HD
ENDBRANCH  24  25
BRANCH  24  27
HETATM   27  C25 UNL     1      16.395  10.227  30.185  1.00  0.00     0.198 C 
BRANCH  27  28
HETATM   28  O17 UNL     1      15.773  10.579  28.963  1.00  0.00    -0.398 OA
ATOM     29  H17 UNL     1      15.245  11.344  29.156  1.00  0.00     0.209 HD
ENDBRANCH  27  28
ENDBRANCH  24  27
ENDBRANCH  21  24
ENDBRANCH  20  21
BRANCH  20  30
HETATM   30  N1  UNL     1      12.947  11.250  32.178  1.00  0.00    -0.138 N 
HETATM   31  O18 UNL     1      11.969  11.947  32.586  1.00  0.00    -0.536 OA
HETATM   32  O19 UNL     1      14.180  11.618  32.650  1.00  0.00    -0.536 OA
ENDBRANCH  20  30
ENDBRANCH  18  20
ENDBRANCH  17  18
ENDBRANCH  15  17
BRANCH  11  33
HETATM   33  O10 UNL     1       9.104   9.346  32.260  1.00  0.00    -0.360 OA
ATOM     34  H10 UNL     1       9.686   8.692  32.629  1.00  0.00     0.213 HD
ENDBRANCH  11  33
BRANCH  10  35
HETATM   35  C16 UNL     1       6.959  10.272  30.758  1.00  0.00     0.304 C 
HETATM   36  O8  UNL     1       6.739  10.620  31.966  1.00  0.00    -0.261 OA
BRANCH  35  37
HETATM   37  O9  UNL     1       5.796   9.893  30.108  1.00  0.00    -0.324 OA
HETATM   38  C17 UNL     1       5.206   8.625  30.231  1.00  0.00     0.213 C 
ENDBRANCH  35  37
ENDBRANCH  10  35
BRANCH   1  39
HETATM   39  C2  UNL     1       9.615   5.952  28.109  1.00  0.00    -0.075 C 
HETATM   40  C1  UNL     1      10.367   4.967  28.509  1.00  0.00     0.015 C 
HETATM   41  C3  UNL     1       9.104   5.878  26.676  1.00  0.00     0.044 C 
ENDBRANCH   1  39
BRANCH   3  42
HETATM   42  O1  UNL     1       7.700   9.709  26.743  1.00  0.00    -0.391 OA
ATOM     43  H1  UNL     1       7.616  10.654  26.785  1.00  0.00     0.210 HD
ENDBRANCH   3  42
BRANCH   5  44
HETATM   44  O2  UNL     1       7.259  12.007  27.201  1.00  0.00    -0.278 OA
BRANCH  44  45
HETATM   45  C9  UNL     1       5.909  11.821  26.960  1.00  0.00     0.260 C 
HETATM   46  C10 UNL     1       4.854  12.193  27.942  1.00  0.00     0.126 C 
HETATM   47  O3  UNL     1       5.561  11.326  25.887  1.00  0.00    -0.265 OA
ENDBRANCH  44  45
ENDBRANCH   5  44
BRANCH   8  48
HETATM   48  O4  UNL     1       8.091  13.345  31.462  1.00  0.00    -0.353 OA
ATOM     49  H4  UNL     1       7.336  13.785  31.089  1.00  0.00     0.214 HD
ENDBRANCH   8  48
BRANCH   8  50
HETATM   50  C14 UNL     1      10.093  13.358  30.360  1.00  0.00     0.244 C 
HETATM   51  O5  UNL     1      10.925  13.129  29.460  1.00  0.00    -0.644 OA
HETATM   52  O6  UNL     1      10.453  14.355  31.299  1.00  0.00    -0.644 OA
ENDBRANCH   8  50
TORSDOF 19
ENDMDL
