MODEL 1
REMARK VINA RESULT: -9.377706183      0.000      0.000
REMARK  18 active torsions:
REMARK  status: ('A' for Active; 'I' for Inactive)
REMARK    1  A    between atoms: O1_2  and  C2_3 
REMARK    2  A    between atoms: C2_3  and  C3_5 
REMARK    3  A    between atoms: C4_7  and  C5_8 
REMARK    4  A    between atoms: C5_8  and  C6_9 
REMARK    5  A    between atoms: C5_8  and  C10_17 
REMARK    6  A    between atoms: C6_9  and  C7_10 
REMARK    7  A    between atoms: C7_10  and  C8_11 
REMARK    8  A    between atoms: C8_11  and  N1_12 
REMARK       I    between atoms: N1_12  and  C9_14 
REMARK    9  A    between atoms: C10_17  and  O5_19 
REMARK   10  A    between atoms: O5_19  and  C11_20 
REMARK   11  A    between atoms: N4_26  and  C14_27 
REMARK   12  A    between atoms: C14_27  and  O7_28 
REMARK   13  A    between atoms: C14_27  and  C15_30 
REMARK   14  A    between atoms: C15_30  and  C17_32 
REMARK   15  A    between atoms: C15_30  and  N5_35 
REMARK   16  A    between atoms: C17_32  and  O8_33 
REMARK       I    between atoms: N5_35  and  C18_37 
REMARK   17  A    between atoms: C21_43  and  C22_44 
REMARK   18  A    between atoms: C24_48  and  O12_49 
ROOT
HETATM    1  C11 UNL     1       7.919   6.804  26.345  1.00  0.00     0.176 C 
HETATM    2  C12 UNL     1       7.085   7.347  25.200  1.00  0.00     0.134 C 
HETATM    3  S2  UNL     1       5.948   5.969  24.780  1.00  0.00    -0.022 SA
HETATM    4  N3  UNL     1       6.888   4.470  25.060  1.00  0.00    -0.169 N 
HETATM    5  C13 UNL     1       6.507   3.207  24.822  1.00  0.00     0.364 A 
HETATM    6  O6  UNL     1       5.380   2.880  24.357  1.00  0.00    -0.243 OA
HETATM    7  N4  UNL     1       7.552   2.383  25.178  1.00  0.00    -0.192 N 
HETATM    8  C20 UNL     1       8.517   3.197  25.613  1.00  0.00     0.355 A 
HETATM    9  O10 UNL     1       9.655   2.894  26.038  1.00  0.00    -0.244 OA
HETATM   10  N6  UNL     1       8.098   4.513  25.539  1.00  0.00    -0.209 N 
HETATM   11  C21 UNL     1       8.837   5.710  25.913  1.00  0.00     0.233 C 
ENDROOT
BRANCH   1  12
HETATM   12  O5  UNL     1       8.536   7.815  27.089  1.00  0.00    -0.312 OA
BRANCH  12  13
HETATM   13  C10 UNL     1       7.877   8.683  27.929  1.00  0.00     0.268 C 
HETATM   14  O4  UNL     1       7.153   8.195  28.812  1.00  0.00    -0.264 OA
BRANCH  13  15
HETATM   15  C5  UNL     1       8.044  10.189  27.763  1.00  0.00     0.125 C 
BRANCH  15  16
HETATM   16  C4  UNL     1       9.230  10.482  28.700  1.00  0.00    -0.000 A 
HETATM   17  S1  UNL     1       9.803   9.592  30.030  1.00  0.00    -0.085 SA
HETATM   18  C3  UNL     1      11.108  10.587  30.487  1.00  0.00     0.113 A 
HETATM   19  C24 UNL     1      11.054  11.603  29.569  1.00  0.00     0.089 A 
HETATM   20  C23 UNL     1      10.085  11.549  28.647  1.00  0.00     0.053 A 
BRANCH  18  21
HETATM   21  C2  UNL     1      12.042  10.391  31.593  1.00  0.00     0.302 C 
HETATM   22  O2  UNL     1      11.848   9.462  32.410  1.00  0.00    -0.259 OA
BRANCH  21  23
HETATM   23  O1  UNL     1      13.148  11.201  31.775  1.00  0.00    -0.322 OA
HETATM   24  C1  UNL     1      14.211  10.847  32.658  1.00  0.00     0.213 C 
ENDBRANCH  21  23
ENDBRANCH  18  21
BRANCH  19  25
HETATM   25  O12 UNL     1      12.016  12.650  29.638  1.00  0.00    -0.359 OA
ATOM     26  H12 UNL     1      11.761  13.488  30.006  1.00  0.00     0.217 HD
ENDBRANCH  19  25
ENDBRANCH  15  16
BRANCH  15  27
HETATM   27  C6  UNL     1       6.839  10.808  28.384  1.00  0.00     0.021 C 
BRANCH  27  28
HETATM   28  C7  UNL     1       6.150  11.919  27.713  1.00  0.00     0.021 C 
BRANCH  28  29
HETATM   29  C8  UNL     1       5.842  11.801  26.267  1.00  0.00     0.124 C 
BRANCH  29  30
HETATM   30  N1  UNL     1       6.215  12.912  25.478  1.00  0.00    -0.345 N 
HETATM   31  C9  UNL     1       5.304  13.778  24.803  1.00  0.00     0.328 C 
HETATM   32  N2  UNL     1       5.767  14.878  24.025  1.00  0.00    -0.040 NA
HETATM   33  O3  UNL     1       4.066  13.608  24.867  1.00  0.00    -0.251 OA
ATOM     34  H1  UNL     1       7.211  13.110  25.384  1.00  0.00     0.163 HD
ENDBRANCH  29  30
ENDBRANCH  28  29
ENDBRANCH  27  28
ENDBRANCH  15  27
ENDBRANCH  13  15
ENDBRANCH  12  13
ENDBRANCH   1  12
BRANCH  11  35
HETATM   35  C22 UNL     1       9.740   6.055  24.825  1.00  0.00     0.258 C 
HETATM   36  N7  UNL     1       9.391   5.728  23.497  1.00  0.00    -0.060 NA
HETATM   37  O11 UNL     1      10.819   6.635  25.036  1.00  0.00    -0.274 OA
ENDBRANCH  11  35
BRANCH   7  38
HETATM   38  C14 UNL     1       7.480   0.995  25.028  1.00  0.00     0.161 C 
BRANCH  38  39
HETATM   39  O7  UNL     1       7.454   0.585  23.790  1.00  0.00    -0.347 OA
ATOM     40  H7  UNL     1       7.187  -0.320  23.680  1.00  0.00     0.219 HD
ENDBRANCH  38  39
BRANCH  38  41
HETATM   41  C15 UNL     1       7.427  -0.072  26.018  1.00  0.00     0.116 C 
HETATM   42  C16 UNL     1       6.946  -1.383  25.380  1.00  0.00     0.050 C 
BRANCH  41  43
HETATM   43  C17 UNL     1       8.734  -0.294  26.723  1.00  0.00     0.203 C 
BRANCH  43  44
HETATM   44  O8  UNL     1       9.008  -1.674  26.627  1.00  0.00    -0.398 OA
ATOM     45  H8  UNL     1       8.464  -2.100  27.279  1.00  0.00     0.209 HD
ENDBRANCH  43  44
ENDBRANCH  41  43
BRANCH  41  46
HETATM   46  N5  UNL     1       6.485   0.274  27.107  1.00  0.00    -0.343 N 
HETATM   47  C18 UNL     1       6.165  -0.503  28.209  1.00  0.00     0.214 C 
HETATM   48  C19 UNL     1       5.160   0.087  29.190  1.00  0.00     0.117 C 
HETATM   49  O9  UNL     1       6.608  -1.635  28.491  1.00  0.00    -0.274 OA
ATOM     50  H5  UNL     1       6.022   1.180  27.038  1.00  0.00     0.163 HD
ENDBRANCH  41  46
ENDBRANCH  38  41
ENDBRANCH   7  38
TORSDOF 18
ENDMDL
MODEL 2
REMARK VINA RESULT: -9.304457025      2.777     10.191
REMARK  18 active torsions:
REMARK  status: ('A' for Active; 'I' for Inactive)
REMARK    1  A    between atoms: O1_2  and  C2_3 
REMARK    2  A    between atoms: C2_3  and  C3_5 
REMARK    3  A    between atoms: C4_7  and  C5_8 
REMARK    4  A    between atoms: C5_8  and  C6_9 
REMARK    5  A    between atoms: C5_8  and  C10_17 
REMARK    6  A    between atoms: C6_9  and  C7_10 
REMARK    7  A    between atoms: C7_10  and  C8_11 
REMARK    8  A    between atoms: C8_11  and  N1_12 
REMARK       I    between atoms: N1_12  and  C9_14 
REMARK    9  A    between atoms: C10_17  and  O5_19 
REMARK   10  A    between atoms: O5_19  and  C11_20 
REMARK   11  A    between atoms: N4_26  and  C14_27 
REMARK   12  A    between atoms: C14_27  and  O7_28 
REMARK   13  A    between atoms: C14_27  and  C15_30 
REMARK   14  A    between atoms: C15_30  and  C17_32 
REMARK   15  A    between atoms: C15_30  and  N5_35 
REMARK   16  A    between atoms: C17_32  and  O8_33 
REMARK       I    between atoms: N5_35  and  C18_37 
REMARK   17  A    between atoms: C21_43  and  C22_44 
REMARK   18  A    between atoms: C24_48  and  O12_49 
ROOT
HETATM    1  C11 UNL     1       8.707   5.227  26.242  1.00  0.00     0.176 C 
HETATM    2  C12 UNL     1       9.989   5.133  27.048  1.00  0.00     0.134 C 
HETATM    3  S2  UNL     1       9.699   6.236  28.485  1.00  0.00    -0.022 SA
HETATM    4  N3  UNL     1       8.694   7.581  27.861  1.00  0.00    -0.169 N 
HETATM    5  C13 UNL     1       8.285   8.674  28.521  1.00  0.00     0.364 A 
HETATM    6  O6  UNL     1       8.553   8.916  29.731  1.00  0.00    -0.243 OA
HETATM    7  N4  UNL     1       7.546   9.438  27.645  1.00  0.00    -0.192 N 
HETATM    8  C20 UNL     1       7.548   8.763  26.493  1.00  0.00     0.355 A 
HETATM    9  O10 UNL     1       7.004   9.074  25.410  1.00  0.00    -0.244 OA
HETATM   10  N6  UNL     1       8.272   7.591  26.630  1.00  0.00    -0.209 N 
HETATM   11  C21 UNL     1       8.522   6.572  25.622  1.00  0.00     0.233 C 
ENDROOT
BRANCH   1  12
HETATM   12  O5  UNL     1       8.547   4.156  25.358  1.00  0.00    -0.312 OA
BRANCH  12  13
HETATM   13  C10 UNL     1       8.622   2.829  25.713  1.00  0.00     0.268 C 
HETATM   14  O4  UNL     1       9.640   2.446  26.311  1.00  0.00    -0.264 OA
BRANCH  13  15
HETATM   15  C5  UNL     1       7.479   1.878  25.375  1.00  0.00     0.125 C 
BRANCH  15  16
HETATM   16  C4  UNL     1       7.636   0.794  26.457  1.00  0.00    -0.000 A 
HETATM   17  S1  UNL     1       6.462   0.102  27.472  1.00  0.00    -0.085 SA
HETATM   18  C3  UNL     1       7.451  -0.981  28.340  1.00  0.00     0.113 A 
HETATM   19  C24 UNL     1       8.691  -0.763  27.800  1.00  0.00     0.089 A 
HETATM   20  C23 UNL     1       8.787   0.153  26.828  1.00  0.00     0.053 A 
BRANCH  18  21
HETATM   21  C2  UNL     1       7.055  -1.904  29.401  1.00  0.00     0.302 C 
HETATM   22  O2  UNL     1       7.141  -1.545  30.598  1.00  0.00    -0.259 OA
BRANCH  21  23
HETATM   23  O1  UNL     1       6.583  -3.176  29.132  1.00  0.00    -0.322 OA
HETATM   24  C1  UNL     1       6.412  -3.656  27.800  1.00  0.00     0.213 C 
ENDBRANCH  21  23
ENDBRANCH  18  21
BRANCH  19  25
HETATM   25  O12 UNL     1       9.800  -1.510  28.289  1.00  0.00    -0.359 OA
ATOM     26  H12 UNL     1      10.252  -1.208  29.068  1.00  0.00     0.217 HD
ENDBRANCH  19  25
ENDBRANCH  15  16
BRANCH  15  27
HETATM   27  C6  UNL     1       7.841   1.246  24.074  1.00  0.00     0.021 C 
BRANCH  27  28
HETATM   28  C7  UNL     1       6.962   1.401  22.907  1.00  0.00     0.021 C 
BRANCH  28  29
HETATM   29  C8  UNL     1       5.602   1.960  23.104  1.00  0.00     0.124 C 
BRANCH  29  30
HETATM   30  N1  UNL     1       5.533   3.369  23.169  1.00  0.00    -0.345 N 
HETATM   31  C9  UNL     1       4.945   4.110  24.236  1.00  0.00     0.328 C 
HETATM   32  N2  UNL     1       4.917   5.535  24.221  1.00  0.00    -0.040 NA
HETATM   33  O3  UNL     1       4.432   3.543  25.226  1.00  0.00    -0.251 OA
ATOM     34  H1  UNL     1       5.935   3.897  22.394  1.00  0.00     0.163 HD
ENDBRANCH  29  30
ENDBRANCH  28  29
ENDBRANCH  27  28
ENDBRANCH  15  27
ENDBRANCH  13  15
ENDBRANCH  12  13
ENDBRANCH   1  12
BRANCH  11  35
HETATM   35  C22 UNL     1       9.618   7.017  24.774  1.00  0.00     0.258 C 
HETATM   36  N7  UNL     1       9.339   7.748  23.599  1.00  0.00    -0.060 NA
HETATM   37  O11 UNL     1      10.802   6.768  25.058  1.00  0.00    -0.274 OA
ENDBRANCH  11  35
BRANCH   7  38
HETATM   38  C14 UNL     1       6.991  10.664  28.024  1.00  0.00     0.161 C 
BRANCH  38  39
HETATM   39  O7  UNL     1       5.788  10.583  28.520  1.00  0.00    -0.347 OA
ATOM     40  H7  UNL     1       5.758  10.488  29.465  1.00  0.00     0.219 HD
ENDBRANCH  38  39
BRANCH  38  41
HETATM   41  C15 UNL     1       7.528  12.016  27.959  1.00  0.00     0.116 C 
HETATM   42  C16 UNL     1       6.946  12.887  29.082  1.00  0.00     0.050 C 
BRANCH  41  43
HETATM   43  C17 UNL     1       9.028  12.064  27.998  1.00  0.00     0.203 C 
BRANCH  43  44
HETATM   44  O8  UNL     1       9.471  11.638  26.728  1.00  0.00    -0.398 OA
ATOM     45  H8  UNL     1      10.421  11.652  26.759  1.00  0.00     0.209 HD
ENDBRANCH  43  44
ENDBRANCH  41  43
BRANCH  41  46
HETATM   46  N5  UNL     1       7.180  12.653  26.668  1.00  0.00    -0.343 N 
HETATM   47  C18 UNL     1       5.909  12.930  26.192  1.00  0.00     0.214 C 
HETATM   48  C19 UNL     1       5.822  13.594  24.824  1.00  0.00     0.117 C 
HETATM   49  O9  UNL     1       4.821  12.696  26.759  1.00  0.00    -0.274 OA
ATOM     50  H5  UNL     1       7.960  12.915  26.064  1.00  0.00     0.163 HD
ENDBRANCH  41  46
ENDBRANCH  38  41
ENDBRANCH   7  38
TORSDOF 18
ENDMDL
MODEL 3
REMARK VINA RESULT: -9.286207631      0.943      1.267
REMARK  18 active torsions:
REMARK  status: ('A' for Active; 'I' for Inactive)
REMARK    1  A    between atoms: O1_2  and  C2_3 
REMARK    2  A    between atoms: C2_3  and  C3_5 
REMARK    3  A    between atoms: C4_7  and  C5_8 
REMARK    4  A    between atoms: C5_8  and  C6_9 
REMARK    5  A    between atoms: C5_8  and  C10_17 
REMARK    6  A    between atoms: C6_9  and  C7_10 
REMARK    7  A    between atoms: C7_10  and  C8_11 
REMARK    8  A    between atoms: C8_11  and  N1_12 
REMARK       I    between atoms: N1_12  and  C9_14 
REMARK    9  A    between atoms: C10_17  and  O5_19 
REMARK   10  A    between atoms: O5_19  and  C11_20 
REMARK   11  A    between atoms: N4_26  and  C14_27 
REMARK   12  A    between atoms: C14_27  and  O7_28 
REMARK   13  A    between atoms: C14_27  and  C15_30 
REMARK   14  A    between atoms: C15_30  and  C17_32 
REMARK   15  A    between atoms: C15_30  and  N5_35 
REMARK   16  A    between atoms: C17_32  and  O8_33 
REMARK       I    between atoms: N5_35  and  C18_37 
REMARK   17  A    between atoms: C21_43  and  C22_44 
REMARK   18  A    between atoms: C24_48  and  O12_49 
ROOT
HETATM    1  C11 UNL     1       7.974   6.793  26.269  1.00  0.00     0.176 C 
HETATM    2  C12 UNL     1       7.059   7.349  25.193  1.00  0.00     0.134 C 
HETATM    3  S2  UNL     1       5.871   5.988  24.866  1.00  0.00    -0.022 SA
HETATM    4  N3  UNL     1       6.808   4.475  25.072  1.00  0.00    -0.169 N 
HETATM    5  C13 UNL     1       6.390   3.218  24.867  1.00  0.00     0.364 A 
HETATM    6  O6  UNL     1       5.225   2.908  24.493  1.00  0.00    -0.243 OA
HETATM    7  N4  UNL     1       7.448   2.378  25.139  1.00  0.00    -0.192 N 
HETATM    8  C20 UNL     1       8.456   3.177  25.495  1.00  0.00     0.355 A 
HETATM    9  O10 UNL     1       9.620   2.857  25.828  1.00  0.00    -0.244 OA
HETATM   10  N6  UNL     1       8.052   4.500  25.453  1.00  0.00    -0.209 N 
HETATM   11  C21 UNL     1       8.837   5.685  25.766  1.00  0.00     0.233 C 
ENDROOT
BRANCH   1  12
HETATM   12  O5  UNL     1       8.663   7.794  26.960  1.00  0.00    -0.312 OA
BRANCH  12  13
HETATM   13  C10 UNL     1       8.113   8.592  27.937  1.00  0.00     0.268 C 
HETATM   14  O4  UNL     1       7.192   8.118  28.620  1.00  0.00    -0.264 OA
BRANCH  13  15
HETATM   15  C5  UNL     1       8.635  10.007  28.156  1.00  0.00     0.125 C 
BRANCH  15  16
HETATM   16  C4  UNL     1       9.613   9.808  29.328  1.00  0.00    -0.000 A 
HETATM   17  S1  UNL     1      10.512  10.961  30.194  1.00  0.00    -0.085 SA
HETATM   18  C3  UNL     1      11.308   9.926  31.289  1.00  0.00     0.113 A 
HETATM   19  C24 UNL     1      10.837   8.688  30.937  1.00  0.00     0.089 A 
HETATM   20  C23 UNL     1       9.963   8.627  29.925  1.00  0.00     0.053 A 
BRANCH  18  21
HETATM   21  C2  UNL     1      12.259  10.288  32.337  1.00  0.00     0.302 C 
HETATM   22  O2  UNL     1      12.127   9.807  33.486  1.00  0.00    -0.259 OA
BRANCH  21  23
HETATM   23  O1  UNL     1      13.315  11.151  32.107  1.00  0.00    -0.322 OA
HETATM   24  C1  UNL     1      14.583  10.985  32.739  1.00  0.00     0.213 C 
ENDBRANCH  21  23
ENDBRANCH  18  21
BRANCH  19  25
HETATM   25  O12 UNL     1      11.292   7.545  31.653  1.00  0.00    -0.359 OA
ATOM     26  H12 UNL     1      11.182   6.684  31.267  1.00  0.00     0.217 HD
ENDBRANCH  19  25
ENDBRANCH  15  16
BRANCH  15  27
HETATM   27  C6  UNL     1       7.484  10.794  28.682  1.00  0.00     0.021 C 
BRANCH  27  28
HETATM   28  C7  UNL     1       6.926  11.904  27.897  1.00  0.00     0.021 C 
BRANCH  28  29
HETATM   29  C8  UNL     1       6.494  11.646  26.501  1.00  0.00     0.124 C 
BRANCH  29  30
HETATM   30  N1  UNL     1       6.650  12.732  25.611  1.00  0.00    -0.345 N 
HETATM   31  C9  UNL     1       5.581  13.514  25.082  1.00  0.00     0.328 C 
HETATM   32  N2  UNL     1       5.827  14.595  24.187  1.00  0.00    -0.040 NA
HETATM   33  O3  UNL     1       4.388  13.285  25.381  1.00  0.00    -0.251 OA
ATOM     34  H1  UNL     1       7.598  12.975  25.326  1.00  0.00     0.163 HD
ENDBRANCH  29  30
ENDBRANCH  28  29
ENDBRANCH  27  28
ENDBRANCH  15  27
ENDBRANCH  13  15
ENDBRANCH  12  13
ENDBRANCH   1  12
BRANCH  11  35
HETATM   35  C22 UNL     1       9.656   6.017  24.609  1.00  0.00     0.258 C 
HETATM   36  N7  UNL     1      10.815   6.805  24.777  1.00  0.00    -0.060 NA
HETATM   37  O11 UNL     1       9.359   5.623  23.468  1.00  0.00    -0.274 OA
ENDBRANCH  11  35
BRANCH   7  38
HETATM   38  C14 UNL     1       7.342   0.991  24.997  1.00  0.00     0.161 C 
BRANCH  38  39
HETATM   39  O7  UNL     1       7.218   0.582  23.765  1.00  0.00    -0.347 OA
ATOM     40  H7  UNL     1       8.037   0.509  23.289  1.00  0.00     0.219 HD
ENDBRANCH  38  39
BRANCH  38  41
HETATM   41  C15 UNL     1       7.347  -0.075  25.989  1.00  0.00     0.116 C 
HETATM   42  C16 UNL     1       6.875  -1.398  25.369  1.00  0.00     0.050 C 
BRANCH  41  43
HETATM   43  C17 UNL     1       8.681  -0.265  26.651  1.00  0.00     0.203 C 
BRANCH  43  44
HETATM   44  O8  UNL     1       8.991  -1.636  26.534  1.00  0.00    -0.398 OA
ATOM     45  H8  UNL     1       9.869  -1.742  26.881  1.00  0.00     0.209 HD
ENDBRANCH  43  44
ENDBRANCH  41  43
BRANCH  41  46
HETATM   46  N5  UNL     1       6.433   0.252  27.108  1.00  0.00    -0.343 N 
HETATM   47  C18 UNL     1       6.198  -0.512  28.240  1.00  0.00     0.214 C 
HETATM   48  C19 UNL     1       5.205   0.052  29.248  1.00  0.00     0.117 C 
HETATM   49  O9  UNL     1       6.709  -1.614  28.530  1.00  0.00    -0.274 OA
ATOM     50  H5  UNL     1       5.923   1.132  27.038  1.00  0.00     0.163 HD
ENDBRANCH  41  46
ENDBRANCH  38  41
ENDBRANCH   7  38
TORSDOF 18
ENDMDL
MODEL 4
REMARK VINA RESULT: -9.246152228      2.970      5.599
REMARK  18 active torsions:
REMARK  status: ('A' for Active; 'I' for Inactive)
REMARK    1  A    between atoms: O1_2  and  C2_3 
REMARK    2  A    between atoms: C2_3  and  C3_5 
REMARK    3  A    between atoms: C4_7  and  C5_8 
REMARK    4  A    between atoms: C5_8  and  C6_9 
REMARK    5  A    between atoms: C5_8  and  C10_17 
REMARK    6  A    between atoms: C6_9  and  C7_10 
REMARK    7  A    between atoms: C7_10  and  C8_11 
REMARK    8  A    between atoms: C8_11  and  N1_12 
REMARK       I    between atoms: N1_12  and  C9_14 
REMARK    9  A    between atoms: C10_17  and  O5_19 
REMARK   10  A    between atoms: O5_19  and  C11_20 
REMARK   11  A    between atoms: N4_26  and  C14_27 
REMARK   12  A    between atoms: C14_27  and  O7_28 
REMARK   13  A    between atoms: C14_27  and  C15_30 
REMARK   14  A    between atoms: C15_30  and  C17_32 
REMARK   15  A    between atoms: C15_30  and  N5_35 
REMARK   16  A    between atoms: C17_32  and  O8_33 
REMARK       I    between atoms: N5_35  and  C18_37 
REMARK   17  A    between atoms: C21_43  and  C22_44 
REMARK   18  A    between atoms: C24_48  and  O12_49 
ROOT
HETATM    1  C11 UNL     1       7.759   6.729  25.996  1.00  0.00     0.176 C 
HETATM    2  C12 UNL     1       6.802   6.818  24.823  1.00  0.00     0.134 C 
HETATM    3  S2  UNL     1       5.988   5.173  24.781  1.00  0.00    -0.022 SA
HETATM    4  N3  UNL     1       7.241   4.006  25.306  1.00  0.00    -0.169 N 
HETATM    5  C13 UNL     1       7.143   2.670  25.366  1.00  0.00     0.364 A 
HETATM    6  O6  UNL     1       6.107   2.018  25.059  1.00  0.00    -0.243 OA
HETATM    7  N4  UNL     1       8.351   2.184  25.815  1.00  0.00    -0.192 N 
HETATM    8  C20 UNL     1       9.122   3.258  26.001  1.00  0.00     0.355 A 
HETATM    9  O10 UNL     1      10.307   3.303  26.401  1.00  0.00    -0.244 OA
HETATM   10  N6  UNL     1       8.421   4.407  25.681  1.00  0.00    -0.209 N 
HETATM   11  C21 UNL     1       8.886   5.785  25.742  1.00  0.00     0.233 C 
ENDROOT
BRANCH   1  12
HETATM   12  O5  UNL     1       8.153   7.986  26.466  1.00  0.00    -0.312 OA
BRANCH  12  13
HETATM   13  C10 UNL     1       7.444   9.150  26.279  1.00  0.00     0.268 C 
HETATM   14  O4  UNL     1       7.058   9.414  25.129  1.00  0.00    -0.264 OA
BRANCH  13  15
HETATM   15  C5  UNL     1       7.152  10.069  27.459  1.00  0.00     0.125 C 
BRANCH  15  16
HETATM   16  C4  UNL     1       6.367  11.211  26.786  1.00  0.00    -0.000 A 
HETATM   17  S1  UNL     1       4.714  11.594  26.889  1.00  0.00    -0.085 SA
HETATM   18  C3  UNL     1       4.683  12.959  25.871  1.00  0.00     0.113 A 
HETATM   19  C24 UNL     1       5.990  13.076  25.475  1.00  0.00     0.089 A 
HETATM   20  C23 UNL     1       6.859  12.174  25.947  1.00  0.00     0.053 A 
BRANCH  18  21
HETATM   21  C2  UNL     1       3.533  13.788  25.516  1.00  0.00     0.302 C 
HETATM   22  O2  UNL     1       3.424  14.225  24.347  1.00  0.00    -0.259 OA
BRANCH  21  23
HETATM   23  O1  UNL     1       2.548  14.112  26.431  1.00  0.00    -0.322 OA
HETATM   24  C1  UNL     1       1.723  15.266  26.281  1.00  0.00     0.213 C 
ENDBRANCH  21  23
ENDBRANCH  18  21
BRANCH  19  25
HETATM   25  O12 UNL     1       6.355  14.134  24.596  1.00  0.00    -0.359 OA
ATOM     26  H12 UNL     1       7.271  14.261  24.382  1.00  0.00     0.217 HD
ENDBRANCH  19  25
ENDBRANCH  15  16
BRANCH  15  27
HETATM   27  C6  UNL     1       8.466  10.635  27.876  1.00  0.00     0.021 C 
BRANCH  27  28
HETATM   28  C7  UNL     1       9.118  10.163  29.104  1.00  0.00     0.021 C 
BRANCH  28  29
HETATM   29  C8  UNL     1       8.582   8.957  29.782  1.00  0.00     0.124 C 
BRANCH  29  30
HETATM   30  N1  UNL     1       9.212   7.741  29.436  1.00  0.00    -0.345 N 
HETATM   31  C9  UNL     1       9.610   6.735  30.366  1.00  0.00     0.328 C 
HETATM   32  N2  UNL     1      10.243   5.534  29.931  1.00  0.00    -0.040 NA
HETATM   33  O3  UNL     1       9.420   6.863  31.596  1.00  0.00    -0.251 OA
ATOM     34  H1  UNL     1       9.396   7.570  28.448  1.00  0.00     0.163 HD
ENDBRANCH  29  30
ENDBRANCH  28  29
ENDBRANCH  27  28
ENDBRANCH  15  27
ENDBRANCH  13  15
ENDBRANCH  12  13
ENDBRANCH   1  12
BRANCH  11  35
HETATM   35  C22 UNL     1       9.667   6.064  24.547  1.00  0.00     0.258 C 
HETATM   36  N7  UNL     1      10.744   6.975  24.614  1.00  0.00    -0.060 NA
HETATM   37  O11 UNL     1       9.410   5.519  23.460  1.00  0.00    -0.274 OA
ENDBRANCH  11  35
BRANCH   7  38
HETATM   38  C14 UNL     1       8.583   0.813  25.966  1.00  0.00     0.161 C 
BRANCH  38  39
HETATM   39  O7  UNL     1       8.721   0.161  24.845  1.00  0.00    -0.347 OA
ATOM     40  H7  UNL     1       9.592  -0.186  24.696  1.00  0.00     0.219 HD
ENDBRANCH  38  39
BRANCH  38  41
HETATM   41  C15 UNL     1       8.698  -0.011  27.161  1.00  0.00     0.116 C 
HETATM   42  C16 UNL     1       8.727  -1.501  26.794  1.00  0.00     0.050 C 
BRANCH  41  43
HETATM   43  C17 UNL     1       9.889   0.333  28.009  1.00  0.00     0.203 C 
BRANCH  43  44
HETATM   44  O8  UNL     1      10.387  -0.889  28.507  1.00  0.00    -0.398 OA
ATOM     45  H8  UNL     1      11.161  -0.674  29.014  1.00  0.00     0.209 HD
ENDBRANCH  43  44
ENDBRANCH  41  43
BRANCH  41  46
HETATM   46  N5  UNL     1       7.541   0.211  28.059  1.00  0.00    -0.343 N 
HETATM   47  C18 UNL     1       6.234  -0.199  27.849  1.00  0.00     0.214 C 
HETATM   48  C19 UNL     1       5.226   0.157  28.934  1.00  0.00     0.117 C 
HETATM   49  O9  UNL     1       5.787  -0.829  26.869  1.00  0.00    -0.274 OA
ATOM     50  H5  UNL     1       7.725   0.720  28.924  1.00  0.00     0.163 HD
ENDBRANCH  41  46
ENDBRANCH  38  41
ENDBRANCH   7  38
TORSDOF 18
ENDMDL
MODEL 5
REMARK VINA RESULT: -9.236324795      1.087      1.275
REMARK  18 active torsions:
REMARK  status: ('A' for Active; 'I' for Inactive)
REMARK    1  A    between atoms: O1_2  and  C2_3 
REMARK    2  A    between atoms: C2_3  and  C3_5 
REMARK    3  A    between atoms: C4_7  and  C5_8 
REMARK    4  A    between atoms: C5_8  and  C6_9 
REMARK    5  A    between atoms: C5_8  and  C10_17 
REMARK    6  A    between atoms: C6_9  and  C7_10 
REMARK    7  A    between atoms: C7_10  and  C8_11 
REMARK    8  A    between atoms: C8_11  and  N1_12 
REMARK       I    between atoms: N1_12  and  C9_14 
REMARK    9  A    between atoms: C10_17  and  O5_19 
REMARK   10  A    between atoms: O5_19  and  C11_20 
REMARK   11  A    between atoms: N4_26  and  C14_27 
REMARK   12  A    between atoms: C14_27  and  O7_28 
REMARK   13  A    between atoms: C14_27  and  C15_30 
REMARK   14  A    between atoms: C15_30  and  C17_32 
REMARK   15  A    between atoms: C15_30  and  N5_35 
REMARK   16  A    between atoms: C17_32  and  O8_33 
REMARK       I    between atoms: N5_35  and  C18_37 
REMARK   17  A    between atoms: C21_43  and  C22_44 
REMARK   18  A    between atoms: C24_48  and  O12_49 
ROOT
HETATM    1  C11 UNL     1       7.949   6.786  26.319  1.00  0.00     0.176 C 
HETATM    2  C12 UNL     1       7.109   7.332  25.179  1.00  0.00     0.134 C 
HETATM    3  S2  UNL     1       5.959   5.961  24.772  1.00  0.00    -0.022 SA
HETATM    4  N3  UNL     1       6.890   4.456  25.049  1.00  0.00    -0.169 N 
HETATM    5  C13 UNL     1       6.497   3.195  24.818  1.00  0.00     0.364 A 
HETATM    6  O6  UNL     1       5.364   2.875  24.362  1.00  0.00    -0.243 OA
HETATM    7  N4  UNL     1       7.539   2.364  25.167  1.00  0.00    -0.192 N 
HETATM    8  C20 UNL     1       8.513   3.172  25.592  1.00  0.00     0.355 A 
HETATM    9  O10 UNL     1       9.652   2.862  26.009  1.00  0.00    -0.244 OA
HETATM   10  N6  UNL     1       8.103   4.492  25.518  1.00  0.00    -0.209 N 
HETATM   11  C21 UNL     1       8.854   5.684  25.883  1.00  0.00     0.233 C 
ENDROOT
BRANCH   1  12
HETATM   12  O5  UNL     1       8.579   7.794  27.055  1.00  0.00    -0.312 OA
BRANCH  12  13
HETATM   13  C10 UNL     1       8.151   8.255  28.279  1.00  0.00     0.268 C 
HETATM   14  O4  UNL     1       7.982   7.423  29.184  1.00  0.00    -0.264 OA
BRANCH  13  15
HETATM   15  C5  UNL     1       7.899   9.743  28.493  1.00  0.00     0.125 C 
BRANCH  15  16
HETATM   16  C4  UNL     1       9.237  10.209  29.095  1.00  0.00    -0.000 A 
HETATM   17  S1  UNL     1      10.269   9.410  30.184  1.00  0.00    -0.085 SA
HETATM   18  C3  UNL     1      11.490  10.590  30.325  1.00  0.00     0.113 A 
HETATM   19  C24 UNL     1      11.045  11.591  29.502  1.00  0.00     0.089 A 
HETATM   20  C23 UNL     1       9.882  11.394  28.867  1.00  0.00     0.053 A 
BRANCH  18  21
HETATM   21  C2  UNL     1      12.705  10.533  31.134  1.00  0.00     0.302 C 
HETATM   22  O2  UNL     1      12.994  11.493  31.885  1.00  0.00    -0.259 OA
BRANCH  21  23
HETATM   23  O1  UNL     1      13.559   9.445  31.104  1.00  0.00    -0.322 OA
HETATM   24  C1  UNL     1      14.452   9.212  30.017  1.00  0.00     0.213 C 
ENDBRANCH  21  23
ENDBRANCH  18  21
BRANCH  19  25
HETATM   25  O12 UNL     1      11.827  12.771  29.361  1.00  0.00    -0.359 OA
ATOM     26  H12 UNL     1      11.962  13.135  28.494  1.00  0.00     0.217 HD
ENDBRANCH  19  25
ENDBRANCH  15  16
BRANCH  15  27
HETATM   27  C6  UNL     1       6.881   9.837  29.578  1.00  0.00     0.021 C 
BRANCH  27  28
HETATM   28  C7  UNL     1       5.880  10.912  29.562  1.00  0.00     0.021 C 
BRANCH  28  29
HETATM   29  C8  UNL     1       6.114  12.095  28.698  1.00  0.00     0.124 C 
BRANCH  29  30
HETATM   30  N1  UNL     1       5.094  12.368  27.760  1.00  0.00    -0.345 N 
HETATM   31  C9  UNL     1       5.054  11.862  26.427  1.00  0.00     0.328 C 
HETATM   32  N2  UNL     1       3.985  12.189  25.543  1.00  0.00    -0.040 NA
HETATM   33  O3  UNL     1       5.950  11.112  25.981  1.00  0.00    -0.251 OA
ATOM     34  H1  UNL     1       4.329  12.973  28.058  1.00  0.00     0.163 HD
ENDBRANCH  29  30
ENDBRANCH  28  29
ENDBRANCH  27  28
ENDBRANCH  15  27
ENDBRANCH  13  15
ENDBRANCH  12  13
ENDBRANCH   1  12
BRANCH  11  35
HETATM   35  C22 UNL     1       9.751   6.019  24.786  1.00  0.00     0.258 C 
HETATM   36  N7  UNL     1       9.411   5.648  23.467  1.00  0.00    -0.060 NA
HETATM   37  O11 UNL     1      10.817   6.628  24.982  1.00  0.00    -0.274 OA
ENDBRANCH  11  35
BRANCH   7  38
HETATM   38  C14 UNL     1       7.455   0.977  25.022  1.00  0.00     0.161 C 
BRANCH  38  39
HETATM   39  O7  UNL     1       7.397   0.565  23.786  1.00  0.00    -0.347 OA
ATOM     40  H7  UNL     1       8.187   0.720  23.282  1.00  0.00     0.219 HD
ENDBRANCH  38  39
BRANCH  38  41
HETATM   41  C15 UNL     1       7.420  -0.089  26.015  1.00  0.00     0.116 C 
HETATM   42  C16 UNL     1       6.935  -1.403  25.386  1.00  0.00     0.050 C 
BRANCH  41  43
HETATM   43  C17 UNL     1       8.737  -0.303  26.703  1.00  0.00     0.203 C 
BRANCH  43  44
HETATM   44  O8  UNL     1       9.001  -1.687  26.633  1.00  0.00    -0.398 OA
ATOM     45  H8  UNL     1       9.266  -1.952  27.505  1.00  0.00     0.209 HD
ENDBRANCH  43  44
ENDBRANCH  41  43
BRANCH  41  46
HETATM   46  N5  UNL     1       6.491   0.256  27.115  1.00  0.00    -0.343 N 
HETATM   47  C18 UNL     1       6.178  -0.526  28.215  1.00  0.00     0.214 C 
HETATM   48  C19 UNL     1       5.186   0.064  29.210  1.00  0.00     0.117 C 
HETATM   49  O9  UNL     1       6.616  -1.663  28.486  1.00  0.00    -0.274 OA
ATOM     50  H5  UNL     1       6.032   1.166  27.057  1.00  0.00     0.163 HD
ENDBRANCH  41  46
ENDBRANCH  38  41
ENDBRANCH   7  38
TORSDOF 18
ENDMDL
