MODEL 1
REMARK VINA RESULT: -10.353750921      0.000      0.000
REMARK  14 active torsions:
REMARK  status: ('A' for Active; 'I' for Inactive)
REMARK    1  A    between atoms: O1_2  and  C2_3 
REMARK    2  A    between atoms: C2_3  and  C3_5 
REMARK    3  A    between atoms: C3_5  and  N1_6 
REMARK    4  A    between atoms: C3_5  and  C8_14 
REMARK    5  A    between atoms: N1_6  and  O3_7 
REMARK    6  A    between atoms: O3_7  and  C4_8 
REMARK    7  A    between atoms: C4_8  and  C7_11 
REMARK       I    between atoms: C8_14  and  N2_16 
REMARK    8  A    between atoms: N2_16  and  C9_18 
REMARK    9  A    between atoms: C12_22  and  C13_23 
REMARK   10  A    between atoms: C13_23  and  S2_24 
REMARK   11  A    between atoms: S2_24  and  C14_25 
REMARK   12  A    between atoms: C15_28  and  N4_29 
REMARK   13  A    between atoms: N6_34  and  C16_35 
REMARK   14  A    between atoms: C19_45  and  C20_46 
ROOT
HETATM    1  C9  UNL     1       9.983   4.778  26.587  1.00  0.00     0.187 C 
HETATM    2  C10 UNL     1       9.969   6.102  25.892  1.00  0.00     0.111 C 
HETATM    3  S1  UNL     1       8.641   7.162  26.495  1.00  0.00    -0.136 SA
HETATM    4  C11 UNL     1       8.592   6.961  28.282  1.00  0.00     0.188 A 
HETATM    5  C12 UNL     1       9.084   8.041  29.136  1.00  0.00    -0.003 A 
HETATM    6  C19 UNL     1      10.113   7.266  29.520  1.00  0.00     0.121 A 
HETATM    7  N10 UNL     1       9.784   6.209  28.648  1.00  0.00    -0.292 N 
HETATM    8  C21 UNL     1      10.063   4.962  28.045  1.00  0.00     0.249 C 
HETATM    9  O11 UNL     1      10.391   3.973  28.771  1.00  0.00    -0.271 OA
ENDROOT
BRANCH   5  10
HETATM   10  C13 UNL     1       8.646   9.432  29.420  1.00  0.00     0.122 C 
BRANCH  10  11
HETATM   11  S2  UNL     1       9.292  10.616  28.244  1.00  0.00    -0.087 SA
BRANCH  11  12
HETATM   12  C14 UNL     1       8.002  11.570  27.447  1.00  0.00     0.180 A 
HETATM   13  N3  UNL     1       7.240  11.288  26.384  1.00  0.00    -0.168 N 
HETATM   14  C15 UNL     1       6.429  12.330  26.176  1.00  0.00     0.692 A 
ATOM     15  H3  UNL     1       7.273  10.433  25.830  1.00  0.00     0.186 HD
HETATM   16  N5  UNL     1       6.706  13.253  27.132  1.00  0.00    -0.124 N 
HETATM   17  N6  UNL     1       7.658  12.799  27.906  1.00  0.00    -0.207 N 
ATOM     18  H5  UNL     1       6.244  14.158  27.231  1.00  0.00     0.206 HD
BRANCH  14  19
HETATM   19  N4  UNL     1       5.513  12.538  25.277  1.00  0.00    -0.233 N 
ATOM     20  H42 UNL     1       5.673  13.168  24.491  1.00  0.00     0.174 HD
ATOM     21  H41 UNL     1       4.567  12.168  25.181  1.00  0.00     0.174 HD
ENDBRANCH  14  19
BRANCH  17  22
HETATM   22  C16 UNL     1       8.211  13.517  29.046  1.00  0.00     0.368 A 
HETATM   23  N7  UNL     1       7.872  12.922  30.306  1.00  0.00    -0.319 N 
HETATM   24  C17 UNL     1       8.688  12.519  31.208  1.00  0.00     0.196 A 
ATOM     25  H7  UNL     1       6.878  12.807  30.504  1.00  0.00     0.166 HD
HETATM   26  N8  UNL     1       8.229  11.936  32.437  1.00  0.00    -0.063 NA
HETATM   27  N9  UNL     1      10.087  12.632  31.005  1.00  0.00    -0.276 N 
HETATM   28  C18 UNL     1      10.533  13.204  29.782  1.00  0.00     0.370 A 
ATOM     29  H9  UNL     1      10.750  12.315  31.713  1.00  0.00     0.173 HD
HETATM   30  O7  UNL     1      11.759  13.323  29.567  1.00  0.00    -0.238 OA
HETATM   31  O8  UNL     1       9.596  13.629  28.826  1.00  0.00    -0.258 OA
ENDBRANCH  17  22
ENDBRANCH  11  12
ENDBRANCH  10  11
ENDBRANCH   5  10
BRANCH   6  32
HETATM   32  C20 UNL     1      11.223   7.479  30.436  1.00  0.00     0.227 C 
HETATM   33  O9  UNL     1      11.084   7.245  31.687  1.00  0.00    -0.643 OA
HETATM   34  O10 UNL     1      12.455   7.924  30.044  1.00  0.00    -0.643 OA
ENDBRANCH   6  32
BRANCH   1  35
HETATM   35  N2  UNL     1       8.831   3.926  26.282  1.00  0.00    -0.341 N 
HETATM   36  C8  UNL     1       8.995   2.539  26.184  1.00  0.00     0.292 C 
HETATM   37  O6  UNL     1      10.208   2.128  26.349  1.00  0.00    -0.264 OA
ATOM     38  H2  UNL     1       7.910   4.342  26.141  1.00  0.00     0.163 HD
BRANCH  36  39
HETATM   39  C3  UNL     1       7.973   1.507  25.920  1.00  0.00     0.281 C 
BRANCH  39  40
HETATM   40  C2  UNL     1       7.151   1.513  24.724  1.00  0.00     0.332 C 
HETATM   41  O2  UNL     1       6.213   0.666  24.631  1.00  0.00    -0.256 OA
BRANCH  40  42
HETATM   42  O1  UNL     1       7.283   2.358  23.653  1.00  0.00    -0.320 OA
HETATM   43  C1  UNL     1       6.300   3.342  23.318  1.00  0.00     0.213 C 
ENDBRANCH  40  42
ENDBRANCH  39  40
BRANCH  39  44
HETATM   44  N1  UNL     1       7.834   0.678  26.820  1.00  0.00    -0.268 NA
BRANCH  44  45
HETATM   45  O3  UNL     1       7.699  -0.130  27.696  1.00  0.00    -0.186 OA
BRANCH  45  46
HETATM   46  C4  UNL     1       6.752  -0.845  28.374  1.00  0.00     0.183 C 
HETATM   47  C5  UNL     1       6.440  -2.106  27.544  1.00  0.00     0.061 C 
HETATM   48  C6  UNL     1       5.496   0.016  28.472  1.00  0.00     0.061 C 
BRANCH  46  49
HETATM   49  C7  UNL     1       7.124  -1.236  29.733  1.00  0.00     0.212 C 
HETATM   50  O4  UNL     1       8.087  -0.642  30.321  1.00  0.00    -0.646 OA
HETATM   51  O5  UNL     1       6.513  -2.222  30.480  1.00  0.00    -0.646 OA
ENDBRANCH  46  49
ENDBRANCH  45  46
ENDBRANCH  44  45
ENDBRANCH  39  44
ENDBRANCH  36  39
ENDBRANCH   1  35
TORSDOF 14
ENDMDL
MODEL 2
REMARK VINA RESULT: -10.336113786      1.556      1.947
REMARK  14 active torsions:
REMARK  status: ('A' for Active; 'I' for Inactive)
REMARK    1  A    between atoms: O1_2  and  C2_3 
REMARK    2  A    between atoms: C2_3  and  C3_5 
REMARK    3  A    between atoms: C3_5  and  N1_6 
REMARK    4  A    between atoms: C3_5  and  C8_14 
REMARK    5  A    between atoms: N1_6  and  O3_7 
REMARK    6  A    between atoms: O3_7  and  C4_8 
REMARK    7  A    between atoms: C4_8  and  C7_11 
REMARK       I    between atoms: C8_14  and  N2_16 
REMARK    8  A    between atoms: N2_16  and  C9_18 
REMARK    9  A    between atoms: C12_22  and  C13_23 
REMARK   10  A    between atoms: C13_23  and  S2_24 
REMARK   11  A    between atoms: S2_24  and  C14_25 
REMARK   12  A    between atoms: C15_28  and  N4_29 
REMARK   13  A    between atoms: N6_34  and  C16_35 
REMARK   14  A    between atoms: C19_45  and  C20_46 
ROOT
HETATM    1  C9  UNL     1       9.977   4.763  26.576  1.00  0.00     0.187 C 
HETATM    2  C10 UNL     1       9.948   6.082  25.872  1.00  0.00     0.111 C 
HETATM    3  S1  UNL     1       8.604   7.129  26.464  1.00  0.00    -0.136 SA
HETATM    4  C11 UNL     1       8.553   6.939  28.252  1.00  0.00     0.188 A 
HETATM    5  C12 UNL     1       9.029   8.031  29.100  1.00  0.00    -0.003 A 
HETATM    6  C19 UNL     1      10.066   7.272  29.492  1.00  0.00     0.121 A 
HETATM    7  N10 UNL     1       9.753   6.205  28.627  1.00  0.00    -0.292 N 
HETATM    8  C21 UNL     1      10.050   4.958  28.032  1.00  0.00     0.249 C 
HETATM    9  O11 UNL     1      10.389   3.978  28.766  1.00  0.00    -0.271 OA
ENDROOT
BRANCH   5  10
HETATM   10  C13 UNL     1       8.572   9.419  29.374  1.00  0.00     0.122 C 
BRANCH  10  11
HETATM   11  S2  UNL     1       9.141  10.590  28.146  1.00  0.00    -0.087 SA
BRANCH  11  12
HETATM   12  C14 UNL     1       7.825  11.640  27.534  1.00  0.00     0.180 A 
HETATM   13  N3  UNL     1       7.558  12.071  26.296  1.00  0.00    -0.168 N 
HETATM   14  C15 UNL     1       6.468  12.842  26.358  1.00  0.00     0.692 A 
ATOM     15  H3  UNL     1       8.090  11.850  25.455  1.00  0.00     0.186 HD
HETATM   16  N5  UNL     1       6.072  12.875  27.656  1.00  0.00    -0.124 N 
HETATM   17  N6  UNL     1       6.889  12.149  28.374  1.00  0.00    -0.207 N 
ATOM     18  H5  UNL     1       5.264  13.386  28.015  1.00  0.00     0.206 HD
BRANCH  14  19
HETATM   19  N4  UNL     1       5.819  13.486  25.434  1.00  0.00    -0.233 N 
ATOM     20  H42 UNL     1       6.304  13.945  24.664  1.00  0.00     0.174 HD
ATOM     21  H41 UNL     1       4.820  13.648  25.303  1.00  0.00     0.174 HD
ENDBRANCH  14  19
BRANCH  17  22
HETATM   22  C16 UNL     1       6.772  11.947  29.812  1.00  0.00     0.368 A 
HETATM   23  N7  UNL     1       7.546  12.881  30.578  1.00  0.00    -0.319 N 
HETATM   24  C17 UNL     1       7.111  13.678  31.482  1.00  0.00     0.196 A 
ATOM     25  H7  UNL     1       8.547  12.915  30.382  1.00  0.00     0.166 HD
HETATM   26  N8  UNL     1       7.986  14.572  32.186  1.00  0.00    -0.063 NA
HETATM   27  N9  UNL     1       5.731  13.701  31.808  1.00  0.00    -0.276 N 
HETATM   28  C18 UNL     1       4.871  12.817  31.101  1.00  0.00     0.370 A 
ATOM     29  H9  UNL     1       5.369  14.330  32.524  1.00  0.00     0.173 HD
HETATM   30  O7  UNL     1       3.648  12.806  31.360  1.00  0.00    -0.238 OA
HETATM   31  O8  UNL     1       5.400  11.964  30.117  1.00  0.00    -0.258 OA
ENDBRANCH  17  22
ENDBRANCH  11  12
ENDBRANCH  10  11
ENDBRANCH   5  10
BRANCH   6  32
HETATM   32  C20 UNL     1      11.171   7.505  30.410  1.00  0.00     0.227 C 
HETATM   33  O9  UNL     1      11.030   7.281  31.662  1.00  0.00    -0.643 OA
HETATM   34  O10 UNL     1      12.399   7.961  30.017  1.00  0.00    -0.643 OA
ENDBRANCH   6  32
BRANCH   1  35
HETATM   35  N2  UNL     1       8.836   3.894  26.273  1.00  0.00    -0.341 N 
HETATM   36  C8  UNL     1       9.011   2.506  26.220  1.00  0.00     0.292 C 
HETATM   37  O6  UNL     1      10.224   2.108  26.421  1.00  0.00    -0.264 OA
ATOM     38  H2  UNL     1       7.916   4.300  26.102  1.00  0.00     0.163 HD
BRANCH  36  39
HETATM   39  C3  UNL     1       8.002   1.460  25.967  1.00  0.00     0.281 C 
BRANCH  39  40
HETATM   40  C2  UNL     1       7.226   1.406  24.741  1.00  0.00     0.332 C 
HETATM   41  O2  UNL     1       6.340   0.508  24.626  1.00  0.00    -0.256 OA
BRANCH  40  42
HETATM   42  O1  UNL     1       7.350   2.246  23.665  1.00  0.00    -0.320 OA
HETATM   43  C1  UNL     1       6.329   3.170  23.282  1.00  0.00     0.213 C 
ENDBRANCH  40  42
ENDBRANCH  39  40
BRANCH  39  44
HETATM   44  N1  UNL     1       7.830   0.673  26.899  1.00  0.00    -0.268 NA
BRANCH  44  45
HETATM   45  O3  UNL     1       7.663  -0.092  27.807  1.00  0.00    -0.186 OA
BRANCH  45  46
HETATM   46  C4  UNL     1       6.704  -0.834  28.437  1.00  0.00     0.183 C 
HETATM   47  C5  UNL     1       6.374  -2.034  27.528  1.00  0.00     0.061 C 
HETATM   48  C6  UNL     1       5.463   0.038  28.590  1.00  0.00     0.061 C 
BRANCH  46  49
HETATM   49  C7  UNL     1       7.068  -1.317  29.769  1.00  0.00     0.212 C 
HETATM   50  O4  UNL     1       7.989  -0.727  30.426  1.00  0.00    -0.646 OA
HETATM   51  O5  UNL     1       6.492  -2.388  30.419  1.00  0.00    -0.646 OA
ENDBRANCH  46  49
ENDBRANCH  45  46
ENDBRANCH  44  45
ENDBRANCH  39  44
ENDBRANCH  36  39
ENDBRANCH   1  35
TORSDOF 14
ENDMDL
MODEL 3
REMARK VINA RESULT: -10.269312985      1.735      3.201
REMARK  14 active torsions:
REMARK  status: ('A' for Active; 'I' for Inactive)
REMARK    1  A    between atoms: O1_2  and  C2_3 
REMARK    2  A    between atoms: C2_3  and  C3_5 
REMARK    3  A    between atoms: C3_5  and  N1_6 
REMARK    4  A    between atoms: C3_5  and  C8_14 
REMARK    5  A    between atoms: N1_6  and  O3_7 
REMARK    6  A    between atoms: O3_7  and  C4_8 
REMARK    7  A    between atoms: C4_8  and  C7_11 
REMARK       I    between atoms: C8_14  and  N2_16 
REMARK    8  A    between atoms: N2_16  and  C9_18 
REMARK    9  A    between atoms: C12_22  and  C13_23 
REMARK   10  A    between atoms: C13_23  and  S2_24 
REMARK   11  A    between atoms: S2_24  and  C14_25 
REMARK   12  A    between atoms: C15_28  and  N4_29 
REMARK   13  A    between atoms: N6_34  and  C16_35 
REMARK   14  A    between atoms: C19_45  and  C20_46 
ROOT
HETATM    1  C9  UNL     1       9.845   4.870  26.330  1.00  0.00     0.187 C 
HETATM    2  C10 UNL     1       9.994   6.196  25.655  1.00  0.00     0.111 C 
HETATM    3  S1  UNL     1       8.758   7.380  26.222  1.00  0.00    -0.136 SA
HETATM    4  C11 UNL     1       8.617   7.166  28.002  1.00  0.00     0.188 A 
HETATM    5  C12 UNL     1       9.182   8.180  28.890  1.00  0.00    -0.003 A 
HETATM    6  C19 UNL     1      10.110   7.300  29.303  1.00  0.00     0.121 A 
HETATM    7  N10 UNL     1       9.710   6.292  28.403  1.00  0.00    -0.292 N 
HETATM    8  C21 UNL     1       9.885   5.029  27.792  1.00  0.00     0.249 C 
HETATM    9  O11 UNL     1      10.080   4.004  28.516  1.00  0.00    -0.271 OA
ENDROOT
BRANCH   5  10
HETATM   10  C13 UNL     1       8.878   9.606  29.178  1.00  0.00     0.122 C 
BRANCH  10  11
HETATM   11  S2  UNL     1       7.402   9.811  30.169  1.00  0.00    -0.087 SA
BRANCH  11  12
HETATM   12  C14 UNL     1       6.925  11.529  30.346  1.00  0.00     0.180 A 
HETATM   13  N3  UNL     1       7.307  12.452  31.237  1.00  0.00    -0.168 N 
HETATM   14  C15 UNL     1       6.657  13.585  30.953  1.00  0.00     0.692 A 
ATOM     15  H3  UNL     1       7.974  12.316  31.996  1.00  0.00     0.186 HD
HETATM   16  N5  UNL     1       5.872  13.341  29.873  1.00  0.00    -0.124 N 
HETATM   17  N6  UNL     1       6.029  12.097  29.501  1.00  0.00    -0.207 N 
ATOM     18  H5  UNL     1       5.256  14.019  29.424  1.00  0.00     0.206 HD
BRANCH  14  19
HETATM   19  N4  UNL     1       6.686  14.755  31.520  1.00  0.00    -0.233 N 
ATOM     20  H42 UNL     1       7.549  15.294  31.584  1.00  0.00     0.174 HD
ATOM     21  H41 UNL     1       5.951  15.307  31.962  1.00  0.00     0.174 HD
ENDBRANCH  14  19
BRANCH  17  22
HETATM   22  C16 UNL     1       5.349  11.479  28.370  1.00  0.00     0.368 A 
HETATM   23  N7  UNL     1       4.405  12.353  27.734  1.00  0.00    -0.319 N 
HETATM   24  C17 UNL     1       4.392  12.698  26.500  1.00  0.00     0.196 A 
ATOM     25  H7  UNL     1       3.669  12.739  28.325  1.00  0.00     0.166 HD
HETATM   26  N8  UNL     1       3.392  13.583  25.974  1.00  0.00    -0.063 NA
HETATM   27  N9  UNL     1       5.386  12.214  25.613  1.00  0.00    -0.276 N 
HETATM   28  C18 UNL     1       6.378  11.343  26.144  1.00  0.00     0.370 A 
ATOM     29  H9  UNL     1       5.390  12.481  24.629  1.00  0.00     0.173 HD
HETATM   30  O7  UNL     1       7.271  10.894  25.393  1.00  0.00    -0.238 OA
HETATM   31  O8  UNL     1       6.347  10.997  27.505  1.00  0.00    -0.258 OA
ENDBRANCH  17  22
ENDBRANCH  11  12
ENDBRANCH  10  11
ENDBRANCH   5  10
BRANCH   6  32
HETATM   32  C20 UNL     1      11.199   7.387  30.264  1.00  0.00     0.227 C 
HETATM   33  O9  UNL     1      11.013   7.047  31.484  1.00  0.00    -0.643 OA
HETATM   34  O10 UNL     1      12.456   7.821  29.947  1.00  0.00    -0.643 OA
ENDBRANCH   6  32
BRANCH   1  35
HETATM   35  N2  UNL     1       8.625   4.144  25.968  1.00  0.00    -0.341 N 
HETATM   36  C8  UNL     1       8.650   2.748  25.859  1.00  0.00     0.292 C 
HETATM   37  O6  UNL     1       9.806   2.212  26.068  1.00  0.00    -0.264 OA
ATOM     38  H2  UNL     1       7.759   4.654  25.795  1.00  0.00     0.163 HD
BRANCH  36  39
HETATM   39  C3  UNL     1       7.539   1.830  25.541  1.00  0.00     0.281 C 
BRANCH  39  40
HETATM   40  C2  UNL     1       6.817   1.885  24.283  1.00  0.00     0.332 C 
HETATM   41  O2  UNL     1       6.000   0.956  24.013  1.00  0.00    -0.256 OA
BRANCH  40  42
HETATM   42  O1  UNL     1       6.927   2.863  23.328  1.00  0.00    -0.320 OA
HETATM   43  C1  UNL     1       6.017   3.963  23.238  1.00  0.00     0.213 C 
ENDBRANCH  40  42
ENDBRANCH  39  40
BRANCH  39  44
HETATM   44  N1  UNL     1       7.236   1.053  26.449  1.00  0.00    -0.268 NA
BRANCH  44  45
HETATM   45  O3  UNL     1       6.942   0.298  27.332  1.00  0.00    -0.186 OA
BRANCH  45  46
HETATM   46  C4  UNL     1       7.482  -0.507  28.295  1.00  0.00     0.183 C 
HETATM   47  C5  UNL     1       8.781   0.163  28.785  1.00  0.00     0.061 C 
HETATM   48  C6  UNL     1       7.819  -1.847  27.649  1.00  0.00     0.061 C 
BRANCH  46  49
HETATM   49  C7  UNL     1       6.612  -0.777  29.439  1.00  0.00     0.212 C 
HETATM   50  O4  UNL     1       7.018  -1.541  30.377  1.00  0.00    -0.646 OA
HETATM   51  O5  UNL     1       5.343  -0.269  29.619  1.00  0.00    -0.646 OA
ENDBRANCH  46  49
ENDBRANCH  45  46
ENDBRANCH  44  45
ENDBRANCH  39  44
ENDBRANCH  36  39
ENDBRANCH   1  35
TORSDOF 14
ENDMDL
MODEL 4
REMARK VINA RESULT: -10.218507545      1.775      3.284
REMARK  14 active torsions:
REMARK  status: ('A' for Active; 'I' for Inactive)
REMARK    1  A    between atoms: O1_2  and  C2_3 
REMARK    2  A    between atoms: C2_3  and  C3_5 
REMARK    3  A    between atoms: C3_5  and  N1_6 
REMARK    4  A    between atoms: C3_5  and  C8_14 
REMARK    5  A    between atoms: N1_6  and  O3_7 
REMARK    6  A    between atoms: O3_7  and  C4_8 
REMARK    7  A    between atoms: C4_8  and  C7_11 
REMARK       I    between atoms: C8_14  and  N2_16 
REMARK    8  A    between atoms: N2_16  and  C9_18 
REMARK    9  A    between atoms: C12_22  and  C13_23 
REMARK   10  A    between atoms: C13_23  and  S2_24 
REMARK   11  A    between atoms: S2_24  and  C14_25 
REMARK   12  A    between atoms: C15_28  and  N4_29 
REMARK   13  A    between atoms: N6_34  and  C16_35 
REMARK   14  A    between atoms: C19_45  and  C20_46 
ROOT
HETATM    1  C9  UNL     1      10.053   4.319  26.487  1.00  0.00     0.187 C 
HETATM    2  C10 UNL     1      10.291   5.559  25.685  1.00  0.00     0.111 C 
HETATM    3  S1  UNL     1       9.050   6.823  26.021  1.00  0.00    -0.136 SA
HETATM    4  C11 UNL     1       8.769   6.810  27.798  1.00  0.00     0.188 A 
HETATM    5  C12 UNL     1       9.295   7.905  28.612  1.00  0.00    -0.003 A 
HETATM    6  C19 UNL     1      10.163   7.057  29.189  1.00  0.00     0.121 A 
HETATM    7  N10 UNL     1       9.803   5.964  28.376  1.00  0.00    -0.292 N 
HETATM    8  C21 UNL     1       9.987   4.638  27.922  1.00  0.00     0.249 C 
HETATM    9  O11 UNL     1      10.098   3.695  28.766  1.00  0.00    -0.271 OA
ENDROOT
BRANCH   5  10
HETATM   10  C13 UNL     1       9.011   9.360  28.718  1.00  0.00     0.122 C 
BRANCH  10  11
HETATM   11  S2  UNL     1       7.263   9.732  28.622  1.00  0.00    -0.087 SA
BRANCH  11  12
HETATM   12  C14 UNL     1       6.858  11.327  29.330  1.00  0.00     0.180 A 
HETATM   13  N3  UNL     1       7.336  11.944  30.417  1.00  0.00    -0.168 N 
HETATM   14  C15 UNL     1       6.705  13.117  30.530  1.00  0.00     0.692 A 
ATOM     15  H3  UNL     1       8.053  11.584  31.047  1.00  0.00     0.186 HD
HETATM   16  N5  UNL     1       5.834  13.208  29.493  1.00  0.00    -0.124 N 
HETATM   17  N6  UNL     1       5.922  12.127  28.762  1.00  0.00    -0.207 N 
ATOM     18  H5  UNL     1       5.211  13.995  29.312  1.00  0.00     0.206 HD
BRANCH  14  19
HETATM   19  N4  UNL     1       6.815  14.070  31.409  1.00  0.00    -0.233 N 
ATOM     20  H42 UNL     1       7.091  13.876  32.371  1.00  0.00     0.174 HD
ATOM     21  H41 UNL     1       6.667  15.076  31.332  1.00  0.00     0.174 HD
ENDBRANCH  14  19
BRANCH  17  22
HETATM   22  C16 UNL     1       5.140  11.875  27.559  1.00  0.00     0.368 A 
HETATM   23  N7  UNL     1       3.883  12.568  27.548  1.00  0.00    -0.319 N 
HETATM   24  C17 UNL     1       3.469  13.389  26.656  1.00  0.00     0.196 A 
ATOM     25  H7  UNL     1       3.256  12.389  28.332  1.00  0.00     0.166 HD
HETATM   26  N8  UNL     1       2.186  14.025  26.752  1.00  0.00    -0.063 NA
HETATM   27  N9  UNL     1       4.285  13.701  25.539  1.00  0.00    -0.276 N 
HETATM   28  C18 UNL     1       5.558  13.072  25.456  1.00  0.00     0.370 A 
ATOM     29  H9  UNL     1       3.970  14.353  24.821  1.00  0.00     0.173 HD
HETATM   30  O7  UNL     1       6.307  13.320  24.486  1.00  0.00    -0.238 OA
HETATM   31  O8  UNL     1       5.965  12.181  26.463  1.00  0.00    -0.258 OA
ENDBRANCH  17  22
ENDBRANCH  11  12
ENDBRANCH  10  11
ENDBRANCH   5  10
BRANCH   6  32
HETATM   32  C20 UNL     1      11.178   7.228  30.217  1.00  0.00     0.227 C 
HETATM   33  O9  UNL     1      10.896   7.014  31.447  1.00  0.00    -0.643 OA
HETATM   34  O10 UNL     1      12.463   7.614  29.956  1.00  0.00    -0.643 OA
ENDBRANCH   6  32
BRANCH   1  35
HETATM   35  N2  UNL     1       8.843   3.582  26.112  1.00  0.00    -0.341 N 
HETATM   36  C8  UNL     1       8.875   2.185  26.028  1.00  0.00     0.292 C 
HETATM   37  O6  UNL     1      10.028   1.657  26.271  1.00  0.00    -0.264 OA
ATOM     38  H2  UNL     1       7.979   4.086  25.911  1.00  0.00     0.163 HD
BRANCH  36  39
HETATM   39  C3  UNL     1       7.774   1.257  25.703  1.00  0.00     0.281 C 
BRANCH  39  40
HETATM   40  C2  UNL     1       6.976   1.387  24.498  1.00  0.00     0.332 C 
HETATM   41  O2  UNL     1       6.050   0.546  24.292  1.00  0.00    -0.256 OA
BRANCH  40  42
HETATM   42  O1  UNL     1       7.118   2.348  23.531  1.00  0.00    -0.320 OA
HETATM   43  C1  UNL     1       6.201   3.435  23.379  1.00  0.00     0.213 C 
ENDBRANCH  40  42
ENDBRANCH  39  40
BRANCH  39  44
HETATM   44  N1  UNL     1       7.550   0.402  26.561  1.00  0.00    -0.268 NA
BRANCH  44  45
HETATM   45  O3  UNL     1       7.332  -0.430  27.397  1.00  0.00    -0.186 OA
BRANCH  45  46
HETATM   46  C4  UNL     1       6.994  -0.582  28.712  1.00  0.00     0.183 C 
HETATM   47  C5  UNL     1       5.647   0.133  28.931  1.00  0.00     0.061 C 
HETATM   48  C6  UNL     1       8.069   0.099  29.553  1.00  0.00     0.061 C 
BRANCH  46  49
HETATM   49  C7  UNL     1       6.891  -1.967  29.170  1.00  0.00     0.212 C 
HETATM   50  O4  UNL     1       6.589  -2.211  30.385  1.00  0.00    -0.646 OA
HETATM   51  O5  UNL     1       7.091  -3.087  28.390  1.00  0.00    -0.646 OA
ENDBRANCH  46  49
ENDBRANCH  45  46
ENDBRANCH  44  45
ENDBRANCH  39  44
ENDBRANCH  36  39
ENDBRANCH   1  35
TORSDOF 14
ENDMDL
MODEL 5
REMARK VINA RESULT: -10.216755252      1.837      3.381
REMARK  14 active torsions:
REMARK  status: ('A' for Active; 'I' for Inactive)
REMARK    1  A    between atoms: O1_2  and  C2_3 
REMARK    2  A    between atoms: C2_3  and  C3_5 
REMARK    3  A    between atoms: C3_5  and  N1_6 
REMARK    4  A    between atoms: C3_5  and  C8_14 
REMARK    5  A    between atoms: N1_6  and  O3_7 
REMARK    6  A    between atoms: O3_7  and  C4_8 
REMARK    7  A    between atoms: C4_8  and  C7_11 
REMARK       I    between atoms: C8_14  and  N2_16 
REMARK    8  A    between atoms: N2_16  and  C9_18 
REMARK    9  A    between atoms: C12_22  and  C13_23 
REMARK   10  A    between atoms: C13_23  and  S2_24 
REMARK   11  A    between atoms: S2_24  and  C14_25 
REMARK   12  A    between atoms: C15_28  and  N4_29 
REMARK   13  A    between atoms: N6_34  and  C16_35 
REMARK   14  A    between atoms: C19_45  and  C20_46 
ROOT
HETATM    1  C9  UNL     1       9.948   4.438  26.286  1.00  0.00     0.187 C 
HETATM    2  C10 UNL     1      10.274   5.700  25.552  1.00  0.00     0.111 C 
HETATM    3  S1  UNL     1       9.085   7.009  25.907  1.00  0.00    -0.136 SA
HETATM    4  C11 UNL     1       8.742   6.929  27.671  1.00  0.00     0.188 A 
HETATM    5  C12 UNL     1       9.292   7.957  28.552  1.00  0.00    -0.003 A 
HETATM    6  C19 UNL     1      10.096   7.041  29.117  1.00  0.00     0.121 A 
HETATM    7  N10 UNL     1       9.712   6.006  28.241  1.00  0.00    -0.292 N 
HETATM    8  C21 UNL     1       9.846   4.694  27.731  1.00  0.00     0.249 C 
HETATM    9  O11 UNL     1       9.881   3.710  28.532  1.00  0.00    -0.271 OA
ENDROOT
BRANCH   5  10
HETATM   10  C13 UNL     1       9.075   9.418  28.718  1.00  0.00     0.122 C 
BRANCH  10  11
HETATM   11  S2  UNL     1       7.405   9.920  28.316  1.00  0.00    -0.087 SA
BRANCH  11  12
HETATM   12  C14 UNL     1       6.948  11.471  29.088  1.00  0.00     0.180 A 
HETATM   13  N3  UNL     1       7.418  12.069  30.189  1.00  0.00    -0.168 N 
HETATM   14  C15 UNL     1       6.742  13.210  30.353  1.00  0.00     0.692 A 
ATOM     15  H3  UNL     1       8.158  11.716  30.795  1.00  0.00     0.186 HD
HETATM   16  N5  UNL     1       5.852  13.302  29.333  1.00  0.00    -0.124 N 
HETATM   17  N6  UNL     1       5.971  12.252  28.562  1.00  0.00    -0.207 N 
ATOM     18  H5  UNL     1       5.194  14.069  29.190  1.00  0.00     0.206 HD
BRANCH  14  19
HETATM   19  N4  UNL     1       6.828  14.134  31.264  1.00  0.00    -0.233 N 
ATOM     20  H42 UNL     1       7.184  15.065  31.046  1.00  0.00     0.174 HD
ATOM     21  H41 UNL     1       6.591  14.125  32.256  1.00  0.00     0.174 HD
ENDBRANCH  14  19
BRANCH  17  22
HETATM   22  C16 UNL     1       5.180  12.011  27.363  1.00  0.00     0.368 A 
HETATM   23  N7  UNL     1       3.896  12.651  27.396  1.00  0.00    -0.319 N 
HETATM   24  C17 UNL     1       3.433  13.485  26.541  1.00  0.00     0.196 A 
ATOM     25  H7  UNL     1       3.289  12.417  28.182  1.00  0.00     0.166 HD
HETATM   26  N8  UNL     1       2.127  14.063  26.679  1.00  0.00    -0.063 NA
HETATM   27  N9  UNL     1       4.218  13.871  25.425  1.00  0.00    -0.276 N 
HETATM   28  C18 UNL     1       5.514  13.300  25.299  1.00  0.00     0.370 A 
ATOM     29  H9  UNL     1       3.864  14.535  24.736  1.00  0.00     0.173 HD
HETATM   30  O7  UNL     1       6.236  13.613  24.328  1.00  0.00    -0.238 OA
HETATM   31  O8  UNL     1       5.974  12.390  26.266  1.00  0.00    -0.258 OA
ENDBRANCH  17  22
ENDBRANCH  11  12
ENDBRANCH  10  11
ENDBRANCH   5  10
BRANCH   6  32
HETATM   32  C20 UNL     1      11.081   7.113  30.185  1.00  0.00     0.227 C 
HETATM   33  O9  UNL     1      12.306   7.374  29.918  1.00  0.00    -0.643 OA
HETATM   34  O10 UNL     1      10.784   6.918  31.505  1.00  0.00    -0.643 OA
ENDBRANCH   6  32
BRANCH   1  35
HETATM   35  N2  UNL     1       8.717   3.782  25.836  1.00  0.00    -0.341 N 
HETATM   36  C8  UNL     1       8.657   2.385  25.767  1.00  0.00     0.292 C 
HETATM   37  O6  UNL     1       9.752   1.782  26.092  1.00  0.00    -0.264 OA
ATOM     38  H2  UNL     1       7.906   4.341  25.573  1.00  0.00     0.163 HD
BRANCH  36  39
HETATM   39  C3  UNL     1       7.518   1.531  25.377  1.00  0.00     0.281 C 
BRANCH  39  40
HETATM   40  C2  UNL     1       7.028   1.462  24.012  1.00  0.00     0.332 C 
HETATM   41  O2  UNL     1       6.632   0.343  23.568  1.00  0.00    -0.256 OA
BRANCH  40  42
HETATM   42  O1  UNL     1       6.944   2.505  23.127  1.00  0.00    -0.320 OA
HETATM   43  C1  UNL     1       5.989   3.561  23.263  1.00  0.00     0.213 C 
ENDBRANCH  40  42
ENDBRANCH  39  40
BRANCH  39  44
HETATM   44  N1  UNL     1       6.983   0.927  26.308  1.00  0.00    -0.268 NA
BRANCH  44  45
HETATM   45  O3  UNL     1       6.462   0.341  27.215  1.00  0.00    -0.186 OA
BRANCH  45  46
HETATM   46  C4  UNL     1       6.735  -0.466  28.283  1.00  0.00     0.183 C 
HETATM   47  C5  UNL     1       8.075   0.001  28.886  1.00  0.00     0.061 C 
HETATM   48  C6  UNL     1       6.886  -1.892  27.766  1.00  0.00     0.061 C 
BRANCH  46  49
HETATM   49  C7  UNL     1       5.711  -0.483  29.326  1.00  0.00     0.212 C 
HETATM   50  O4  UNL     1       5.720  -1.406  30.207  1.00  0.00    -0.646 OA
HETATM   51  O5  UNL     1       4.692   0.436  29.466  1.00  0.00    -0.646 OA
ENDBRANCH  46  49
ENDBRANCH  45  46
ENDBRANCH  44  45
ENDBRANCH  39  44
ENDBRANCH  36  39
ENDBRANCH   1  35
TORSDOF 14
ENDMDL
