MODEL 1
REMARK VINA RESULT: -8.678881740      0.000      0.000
REMARK  12 active torsions:
REMARK  status: ('A' for Active; 'I' for Inactive)
REMARK    1  A    between atoms: C2_2  and  C3_3 
REMARK    2  A    between atoms: C2_2  and  S1_38 
REMARK       I    between atoms: C3_3  and  N1_5 
REMARK    3  A    between atoms: N1_5  and  C4_7 
REMARK    4  A    between atoms: C4_7  and  O2_8 
REMARK    5  A    between atoms: C4_7  and  C5_10 
REMARK    6  A    between atoms: C5_10  and  N2_11 
REMARK       I    between atoms: N2_11  and  C6_13 
REMARK    7  A    between atoms: C6_13  and  C7_15 
REMARK    8  A    between atoms: C7_15  and  N3_16 
REMARK    9  A    between atoms: C7_15  and  C8_20 
REMARK   10  A    between atoms: N3_16  and  O4_18 
REMARK   11  A    between atoms: C11_26  and  C12_27 
REMARK   12  A    between atoms: C12_27  and  C13_29 
REMARK       I    between atoms: C13_29  and  N4_31 
ROOT
HETATM    1  C13 UNL     1       3.793   1.102  -6.712  1.00  0.00     0.302 C 
HETATM    2  O9  UNL     1       4.974   1.392  -6.426  1.00  0.00    -0.263 OA
HETATM    3  N4  UNL     1       3.569   0.552  -8.016  1.00  0.00    -0.257 N 
ATOM      4  H4  UNL     1       2.622   0.299  -8.299  1.00  0.00     0.181 HD
HETATM    5  C14 UNL     1       4.627   0.357  -8.904  1.00  0.00     0.184 C 
HETATM    6  N5  UNL     1       5.489   0.200  -9.656  1.00  0.00    -0.172 NA
ENDROOT
BRANCH   1   7
HETATM    7  C12 UNL     1       2.713   1.313  -5.774  1.00  0.00     0.255 C 
HETATM    8  O8  UNL     1       2.362   2.517  -5.598  1.00  0.00    -0.284 OA
BRANCH   7   9
HETATM    9  C11 UNL     1       2.067   0.187  -5.081  1.00  0.00     0.337 C 
HETATM   10  C10 UNL     1       2.053   0.459  -3.625  1.00  0.00     0.169 C 
HETATM   11  C9  UNL     1       0.647   0.707  -3.233  1.00  0.00     0.147 C 
HETATM   12  O7  UNL     1       3.033   0.479  -2.850  1.00  0.00    -0.295 OA
HETATM   13  C5  UNL     1      -0.154   0.076  -4.342  1.00  0.00     0.251 C 
HETATM   14  N6  UNL     1       0.704  -0.000  -5.477  1.00  0.00    -0.025 N 
ATOM     15  H62 UNL     1       0.574  -0.869  -5.995  1.00  0.00     0.281 HD
ATOM     16  H61 UNL     1       0.427   0.654  -6.208  1.00  0.00     0.281 HD
BRANCH  13  17
HETATM   17  C4  UNL     1      -1.345   1.002  -4.680  1.00  0.00     0.278 C 
BRANCH  17  18
HETATM   18  N1  UNL     1      -0.968   1.761  -5.852  1.00  0.00    -0.330 N 
HETATM   19  C3  UNL     1      -1.867   2.600  -6.551  1.00  0.00     0.235 C 
HETATM   20  O1  UNL     1      -3.051   2.711  -6.156  1.00  0.00    -0.272 OA
ATOM     21  H1  UNL     1      -0.009   1.687  -6.190  1.00  0.00     0.165 HD
BRANCH  19  22
HETATM   22  C2  UNL     1      -1.413   3.335  -7.732  1.00  0.00     0.166 C 
HETATM   23  C1  UNL     1      -2.351   3.117  -8.889  1.00  0.00     0.034 C 
BRANCH  22  24
HETATM   24  S1  UNL     1       0.261   2.931  -8.170  1.00  0.00     0.024 S 
HETATM   25  C15 UNL     1       0.290   1.569  -9.305  1.00  0.00     0.128 C 
HETATM   26  O10 UNL     1       0.954   4.259  -8.934  1.00  0.00    -0.258 OA
ENDBRANCH  22  24
ENDBRANCH  19  22
ENDBRANCH  17  18
BRANCH  17  27
HETATM   27  O2  UNL     1      -1.594   1.906  -3.659  1.00  0.00    -0.372 OA
ATOM     28  H2  UNL     1      -1.311   1.505  -2.846  1.00  0.00     0.212 HD
ENDBRANCH  17  27
ENDBRANCH  13  17
BRANCH  13  29
HETATM   29  N2  UNL     1      -0.721  -1.182  -3.952  1.00  0.00    -0.322 N 
HETATM   30  C6  UNL     1      -1.399  -1.510  -2.781  1.00  0.00     0.255 C 
HETATM   31  O3  UNL     1      -1.593  -0.667  -1.885  1.00  0.00    -0.270 OA
ATOM     32  H2  UNL     1      -0.613  -1.940  -4.626  1.00  0.00     0.165 HD
BRANCH  30  33
HETATM   33  C7  UNL     1      -1.930  -2.873  -2.529  1.00  0.00     0.297 C 
BRANCH  33  34
HETATM   34  N3  UNL     1      -2.337  -2.999  -1.140  1.00  0.00    -0.281 N 
ATOM     35  H3  UNL     1      -2.659  -2.180  -0.626  1.00  0.00     0.189 HD
BRANCH  34  36
HETATM   36  O4  UNL     1      -2.294  -4.063  -0.601  1.00  0.00    -0.293 OA
ATOM     37  H4  UNL     1      -2.588  -4.152   0.298  1.00  0.00     0.244 HD
ENDBRANCH  34  36
ENDBRANCH  33  34
BRANCH  33  38
HETATM   38  C8  UNL     1      -3.112  -3.192  -3.370  1.00  0.00     0.208 C 
HETATM   39  O5  UNL     1      -4.012  -4.015  -2.990  1.00  0.00    -0.646 OA
HETATM   40  O6  UNL     1      -3.303  -2.612  -4.616  1.00  0.00    -0.646 OA
ENDBRANCH  33  38
ENDBRANCH  30  33
ENDBRANCH  13  29
ENDBRANCH   7   9
ENDBRANCH   1   7
TORSDOF 12
ENDMDL
MODEL 2
REMARK VINA RESULT: -8.541408941      1.839      2.355
REMARK  12 active torsions:
REMARK  status: ('A' for Active; 'I' for Inactive)
REMARK    1  A    between atoms: C2_2  and  C3_3 
REMARK    2  A    between atoms: C2_2  and  S1_38 
REMARK       I    between atoms: C3_3  and  N1_5 
REMARK    3  A    between atoms: N1_5  and  C4_7 
REMARK    4  A    between atoms: C4_7  and  O2_8 
REMARK    5  A    between atoms: C4_7  and  C5_10 
REMARK    6  A    between atoms: C5_10  and  N2_11 
REMARK       I    between atoms: N2_11  and  C6_13 
REMARK    7  A    between atoms: C6_13  and  C7_15 
REMARK    8  A    between atoms: C7_15  and  N3_16 
REMARK    9  A    between atoms: C7_15  and  C8_20 
REMARK   10  A    between atoms: N3_16  and  O4_18 
REMARK   11  A    between atoms: C11_26  and  C12_27 
REMARK   12  A    between atoms: C12_27  and  C13_29 
REMARK       I    between atoms: C13_29  and  N4_31 
ROOT
HETATM    1  C13 UNL     1       3.267   1.366  -6.195  1.00  0.00     0.302 C 
HETATM    2  O9  UNL     1       4.116   2.087  -5.629  1.00  0.00    -0.263 OA
HETATM    3  N4  UNL     1       3.722   0.611  -7.324  1.00  0.00    -0.257 N 
ATOM      4  H4  UNL     1       3.067   0.008  -7.822  1.00  0.00     0.181 HD
HETATM    5  C14 UNL     1       5.047   0.689  -7.753  1.00  0.00     0.184 C 
HETATM    6  N5  UNL     1       6.137   0.750  -8.128  1.00  0.00    -0.172 NA
ENDROOT
BRANCH   1   7
HETATM    7  C12 UNL     1       1.898   1.302  -5.732  1.00  0.00     0.255 C 
HETATM    8  O8  UNL     1       1.198   2.338  -5.933  1.00  0.00    -0.284 OA
BRANCH   7   9
HETATM    9  C11 UNL     1       1.366   0.097  -5.075  1.00  0.00     0.337 C 
HETATM   10  C10 UNL     1       1.704   0.143  -3.633  1.00  0.00     0.169 C 
HETATM   11  C9  UNL     1       0.444   0.360  -2.888  1.00  0.00     0.147 C 
HETATM   12  O7  UNL     1       2.837   0.022  -3.119  1.00  0.00    -0.295 OA
HETATM   13  C5  UNL     1      -0.627  -0.075  -3.854  1.00  0.00     0.251 C 
HETATM   14  N6  UNL     1      -0.060   0.005  -5.159  1.00  0.00    -0.025 N 
ATOM     15  H62 UNL     1      -0.357  -0.771  -5.751  1.00  0.00     0.281 HD
ATOM     16  H61 UNL     1      -0.460   0.770  -5.702  1.00  0.00     0.281 HD
BRANCH  13  17
HETATM   17  C4  UNL     1      -1.808   0.919  -3.763  1.00  0.00     0.278 C 
BRANCH  17  18
HETATM   18  N1  UNL     1      -2.770   0.521  -4.767  1.00  0.00    -0.330 N 
HETATM   19  C3  UNL     1      -4.047   1.117  -4.893  1.00  0.00     0.235 C 
HETATM   20  O1  UNL     1      -4.384   2.037  -4.113  1.00  0.00    -0.272 OA
ATOM     21  H1  UNL     1      -2.515  -0.225  -5.414  1.00  0.00     0.165 HD
BRANCH  19  22
HETATM   22  C2  UNL     1      -4.968   0.658  -5.933  1.00  0.00     0.166 C 
HETATM   23  C1  UNL     1      -5.132  -0.837  -5.879  1.00  0.00     0.034 C 
BRANCH  22  24
HETATM   24  S1  UNL     1      -4.473   1.197  -7.553  1.00  0.00     0.024 S 
HETATM   25  C15 UNL     1      -4.618   2.959  -7.687  1.00  0.00     0.128 C 
HETATM   26  O10 UNL     1      -2.859   0.788  -7.787  1.00  0.00    -0.258 OA
ENDBRANCH  22  24
ENDBRANCH  19  22
ENDBRANCH  17  18
BRANCH  17  27
HETATM   27  O2  UNL     1      -1.409   2.213  -4.057  1.00  0.00    -0.372 OA
ATOM     28  H2  UNL     1      -0.507   2.306  -3.774  1.00  0.00     0.212 HD
ENDBRANCH  17  27
ENDBRANCH  13  17
BRANCH  13  29
HETATM   29  N2  UNL     1      -1.161  -1.365  -3.527  1.00  0.00    -0.322 N 
HETATM   30  C6  UNL     1      -1.702  -1.806  -2.322  1.00  0.00     0.255 C 
HETATM   31  O3  UNL     1      -1.778  -1.056  -1.331  1.00  0.00    -0.270 OA
ATOM     32  H2  UNL     1      -1.142  -2.052  -4.279  1.00  0.00     0.165 HD
BRANCH  30  33
HETATM   33  C7  UNL     1      -2.217  -3.187  -2.145  1.00  0.00     0.297 C 
BRANCH  33  34
HETATM   34  N3  UNL     1      -2.625  -3.393  -0.766  1.00  0.00    -0.281 N 
ATOM     35  H3  UNL     1      -3.099  -2.646  -0.257  1.00  0.00     0.189 HD
BRANCH  34  36
HETATM   36  O4  UNL     1      -2.406  -4.435  -0.228  1.00  0.00    -0.293 OA
ATOM     37  H4  UNL     1      -2.587  -4.539   0.699  1.00  0.00     0.244 HD
ENDBRANCH  34  36
ENDBRANCH  33  34
BRANCH  33  38
HETATM   38  C8  UNL     1      -3.394  -3.475  -3.004  1.00  0.00     0.208 C 
HETATM   39  O5  UNL     1      -4.550  -3.712  -2.516  1.00  0.00    -0.646 OA
HETATM   40  O6  UNL     1      -3.301  -3.500  -4.389  1.00  0.00    -0.646 OA
ENDBRANCH  33  38
ENDBRANCH  30  33
ENDBRANCH  13  29
ENDBRANCH   7   9
ENDBRANCH   1   7
TORSDOF 12
ENDMDL
MODEL 3
REMARK VINA RESULT: -8.530025882      1.309      1.775
REMARK  12 active torsions:
REMARK  status: ('A' for Active; 'I' for Inactive)
REMARK    1  A    between atoms: C2_2  and  C3_3 
REMARK    2  A    between atoms: C2_2  and  S1_38 
REMARK       I    between atoms: C3_3  and  N1_5 
REMARK    3  A    between atoms: N1_5  and  C4_7 
REMARK    4  A    between atoms: C4_7  and  O2_8 
REMARK    5  A    between atoms: C4_7  and  C5_10 
REMARK    6  A    between atoms: C5_10  and  N2_11 
REMARK       I    between atoms: N2_11  and  C6_13 
REMARK    7  A    between atoms: C6_13  and  C7_15 
REMARK    8  A    between atoms: C7_15  and  N3_16 
REMARK    9  A    between atoms: C7_15  and  C8_20 
REMARK   10  A    between atoms: N3_16  and  O4_18 
REMARK   11  A    between atoms: C11_26  and  C12_27 
REMARK   12  A    between atoms: C12_27  and  C13_29 
REMARK       I    between atoms: C13_29  and  N4_31 
ROOT
HETATM    1  C13 UNL     1       2.513   0.390  -7.359  1.00  0.00     0.302 C 
HETATM    2  O9  UNL     1       1.752  -0.396  -7.962  1.00  0.00    -0.263 OA
HETATM    3  N4  UNL     1       3.729   0.741  -8.030  1.00  0.00    -0.257 N 
ATOM      4  H4  UNL     1       4.385   1.379  -7.579  1.00  0.00     0.181 HD
HETATM    5  C14 UNL     1       4.030   0.222  -9.289  1.00  0.00     0.184 C 
HETATM    6  N5  UNL     1       4.300  -0.207 -10.327  1.00  0.00    -0.172 NA
ENDROOT
BRANCH   1   7
HETATM    7  C12 UNL     1       2.179   0.915  -6.053  1.00  0.00     0.255 C 
HETATM    8  O8  UNL     1       2.549   2.104  -5.824  1.00  0.00    -0.284 OA
BRANCH   7   9
HETATM    9  C11 UNL     1       1.449   0.104  -5.065  1.00  0.00     0.337 C 
HETATM   10  C10 UNL     1       1.642   0.693  -3.719  1.00  0.00     0.169 C 
HETATM   11  C9  UNL     1       0.346   1.268  -3.296  1.00  0.00     0.147 C 
HETATM   12  O7  UNL     1       2.695   0.710  -3.046  1.00  0.00    -0.295 OA
HETATM   13  C5  UNL     1      -0.664   0.559  -4.160  1.00  0.00     0.251 C 
HETATM   14  N6  UNL     1       0.037   0.080  -5.303  1.00  0.00    -0.025 N 
ATOM     15  H62 UNL     1      -0.285  -0.845  -5.588  1.00  0.00     0.281 HD
ATOM     16  H61 UNL     1      -0.215   0.593  -6.147  1.00  0.00     0.281 HD
BRANCH  13  17
HETATM   17  C4  UNL     1      -1.727   1.583  -4.620  1.00  0.00     0.278 C 
BRANCH  17  18
HETATM   18  N1  UNL     1      -1.238   2.173  -5.847  1.00  0.00    -0.330 N 
HETATM   19  C3  UNL     1      -2.039   2.980  -6.689  1.00  0.00     0.235 C 
HETATM   20  O1  UNL     1      -3.230   3.214  -6.379  1.00  0.00    -0.272 OA
ATOM     21  H1  UNL     1      -0.271   1.998  -6.118  1.00  0.00     0.165 HD
BRANCH  19  22
HETATM   22  C2  UNL     1      -1.474   3.540  -7.917  1.00  0.00     0.166 C 
HETATM   23  C1  UNL     1      -2.564   3.877  -8.899  1.00  0.00     0.034 C 
BRANCH  22  24
HETATM   24  S1  UNL     1      -0.256   2.470  -8.643  1.00  0.00     0.024 S 
HETATM   25  C15 UNL     1      -0.799   1.908 -10.235  1.00  0.00     0.128 C 
HETATM   26  O10 UNL     1       1.168   3.340  -8.857  1.00  0.00    -0.258 OA
ENDBRANCH  22  24
ENDBRANCH  19  22
ENDBRANCH  17  18
BRANCH  17  27
HETATM   27  O2  UNL     1      -1.883   2.606  -3.698  1.00  0.00    -0.372 OA
ATOM     28  H2  UNL     1      -2.778   2.917  -3.764  1.00  0.00     0.212 HD
ENDBRANCH  17  27
ENDBRANCH  13  17
BRANCH  13  29
HETATM   29  N2  UNL     1      -1.373  -0.459  -3.440  1.00  0.00    -0.322 N 
HETATM   30  C6  UNL     1      -2.418  -1.271  -3.875  1.00  0.00     0.255 C 
HETATM   31  O3  UNL     1      -2.873  -1.180  -5.031  1.00  0.00    -0.270 OA
ATOM     32  H2  UNL     1      -1.070  -0.609  -2.478  1.00  0.00     0.165 HD
BRANCH  30  33
HETATM   33  C7  UNL     1      -3.049  -2.287  -2.997  1.00  0.00     0.297 C 
BRANCH  33  34
HETATM   34  N3  UNL     1      -3.898  -3.165  -3.782  1.00  0.00    -0.281 N 
ATOM     35  H3  UNL     1      -4.913  -3.092  -3.711  1.00  0.00     0.189 HD
BRANCH  34  36
HETATM   36  O4  UNL     1      -3.408  -3.973  -4.512  1.00  0.00    -0.293 OA
ATOM     37  H4  UNL     1      -3.108  -4.806  -4.166  1.00  0.00     0.244 HD
ENDBRANCH  34  36
ENDBRANCH  33  34
BRANCH  33  38
HETATM   38  C8  UNL     1      -2.053  -3.139  -2.298  1.00  0.00     0.208 C 
HETATM   39  O5  UNL     1      -0.881  -3.336  -2.766  1.00  0.00    -0.646 OA
HETATM   40  O6  UNL     1      -2.342  -3.768  -1.095  1.00  0.00    -0.646 OA
ENDBRANCH  33  38
ENDBRANCH  30  33
ENDBRANCH  13  29
ENDBRANCH   7   9
ENDBRANCH   1   7
TORSDOF 12
ENDMDL
MODEL 4
REMARK VINA RESULT: -8.529797801      1.224      1.405
REMARK  12 active torsions:
REMARK  status: ('A' for Active; 'I' for Inactive)
REMARK    1  A    between atoms: C2_2  and  C3_3 
REMARK    2  A    between atoms: C2_2  and  S1_38 
REMARK       I    between atoms: C3_3  and  N1_5 
REMARK    3  A    between atoms: N1_5  and  C4_7 
REMARK    4  A    between atoms: C4_7  and  O2_8 
REMARK    5  A    between atoms: C4_7  and  C5_10 
REMARK    6  A    between atoms: C5_10  and  N2_11 
REMARK       I    between atoms: N2_11  and  C6_13 
REMARK    7  A    between atoms: C6_13  and  C7_15 
REMARK    8  A    between atoms: C7_15  and  N3_16 
REMARK    9  A    between atoms: C7_15  and  C8_20 
REMARK   10  A    between atoms: N3_16  and  O4_18 
REMARK   11  A    between atoms: C11_26  and  C12_27 
REMARK   12  A    between atoms: C12_27  and  C13_29 
REMARK       I    between atoms: C13_29  and  N4_31 
ROOT
HETATM    1  C13 UNL     1       2.597   0.373  -7.345  1.00  0.00     0.302 C 
HETATM    2  O9  UNL     1       1.804  -0.428  -7.885  1.00  0.00    -0.263 OA
HETATM    3  N4  UNL     1       3.778   0.700  -8.086  1.00  0.00    -0.257 N 
ATOM      4  H4  UNL     1       4.458   1.348  -7.688  1.00  0.00     0.181 HD
HETATM    5  C14 UNL     1       4.013   0.145  -9.344  1.00  0.00     0.184 C 
HETATM    6  N5  UNL     1       4.229  -0.314 -10.382  1.00  0.00    -0.172 NA
ENDROOT
BRANCH   1   7
HETATM    7  C12 UNL     1       2.332   0.935  -6.039  1.00  0.00     0.255 C 
HETATM    8  O8  UNL     1       2.679   2.142  -5.876  1.00  0.00    -0.284 OA
BRANCH   7   9
HETATM    9  C11 UNL     1       1.691   0.142  -4.978  1.00  0.00     0.337 C 
HETATM   10  C10 UNL     1       1.889   0.823  -3.677  1.00  0.00     0.169 C 
HETATM   11  C9  UNL     1       0.573   1.338  -3.240  1.00  0.00     0.147 C 
HETATM   12  O7  UNL     1       2.961   0.949  -3.047  1.00  0.00    -0.295 OA
HETATM   13  C5  UNL     1      -0.416   0.513  -4.022  1.00  0.00     0.251 C 
HETATM   14  N6  UNL     1       0.277   0.011  -5.161  1.00  0.00    -0.025 N 
ATOM     15  H62 UNL     1       0.008  -0.948  -5.378  1.00  0.00     0.281 HD
ATOM     16  H61 UNL     1      -0.038   0.454  -6.023  1.00  0.00     0.281 HD
BRANCH  13  17
HETATM   17  C4  UNL     1      -1.560   1.436  -4.501  1.00  0.00     0.278 C 
BRANCH  17  18
HETATM   18  N1  UNL     1      -1.115   2.052  -5.732  1.00  0.00    -0.330 N 
HETATM   19  C3  UNL     1      -1.959   2.836  -6.553  1.00  0.00     0.235 C 
HETATM   20  O1  UNL     1      -3.152   3.026  -6.219  1.00  0.00    -0.272 OA
ATOM     21  H1  UNL     1      -0.147   1.913  -6.022  1.00  0.00     0.165 HD
BRANCH  19  22
HETATM   22  C2  UNL     1      -1.437   3.425  -7.786  1.00  0.00     0.166 C 
HETATM   23  C1  UNL     1      -2.560   3.780  -8.724  1.00  0.00     0.034 C 
BRANCH  22  24
HETATM   24  S1  UNL     1      -0.241   2.375  -8.577  1.00  0.00     0.024 S 
HETATM   25  C15 UNL     1      -0.846   1.828 -10.152  1.00  0.00     0.128 C 
HETATM   26  O10 UNL     1       1.165   3.260  -8.838  1.00  0.00    -0.258 OA
ENDBRANCH  22  24
ENDBRANCH  19  22
ENDBRANCH  17  18
BRANCH  17  27
HETATM   27  O2  UNL     1      -1.810   2.453  -3.593  1.00  0.00    -0.372 OA
ATOM     28  H2  UNL     1      -1.492   2.164  -2.745  1.00  0.00     0.212 HD
ENDBRANCH  17  27
ENDBRANCH  13  17
BRANCH  13  29
HETATM   29  N2  UNL     1      -1.030  -0.502  -3.217  1.00  0.00    -0.322 N 
HETATM   30  C6  UNL     1      -2.042  -1.396  -3.559  1.00  0.00     0.255 C 
HETATM   31  O3  UNL     1      -2.551  -1.396  -4.696  1.00  0.00    -0.270 OA
ATOM     32  H2  UNL     1      -0.678  -0.581  -2.263  1.00  0.00     0.165 HD
BRANCH  30  33
HETATM   33  C7  UNL     1      -2.572  -2.397  -2.600  1.00  0.00     0.297 C 
BRANCH  33  34
HETATM   34  N3  UNL     1      -2.025  -2.157  -1.277  1.00  0.00    -0.281 N 
ATOM     35  H3  UNL     1      -1.351  -2.810  -0.877  1.00  0.00     0.189 HD
BRANCH  34  36
HETATM   36  O4  UNL     1      -2.363  -1.195  -0.656  1.00  0.00    -0.293 OA
ATOM     37  H4  UNL     1      -3.260  -1.118  -0.351  1.00  0.00     0.244 HD
ENDBRANCH  34  36
ENDBRANCH  33  34
BRANCH  33  38
HETATM   38  C8  UNL     1      -4.052  -2.351  -2.484  1.00  0.00     0.208 C 
HETATM   39  O5  UNL     1      -4.779  -3.389  -2.652  1.00  0.00    -0.646 OA
HETATM   40  O6  UNL     1      -4.728  -1.176  -2.186  1.00  0.00    -0.646 OA
ENDBRANCH  33  38
ENDBRANCH  30  33
ENDBRANCH  13  29
ENDBRANCH   7   9
ENDBRANCH   1   7
TORSDOF 12
ENDMDL
MODEL 5
REMARK VINA RESULT: -8.516037266      1.000      1.171
REMARK  12 active torsions:
REMARK  status: ('A' for Active; 'I' for Inactive)
REMARK    1  A    between atoms: C2_2  and  C3_3 
REMARK    2  A    between atoms: C2_2  and  S1_38 
REMARK       I    between atoms: C3_3  and  N1_5 
REMARK    3  A    between atoms: N1_5  and  C4_7 
REMARK    4  A    between atoms: C4_7  and  O2_8 
REMARK    5  A    between atoms: C4_7  and  C5_10 
REMARK    6  A    between atoms: C5_10  and  N2_11 
REMARK       I    between atoms: N2_11  and  C6_13 
REMARK    7  A    between atoms: C6_13  and  C7_15 
REMARK    8  A    between atoms: C7_15  and  N3_16 
REMARK    9  A    between atoms: C7_15  and  C8_20 
REMARK   10  A    between atoms: N3_16  and  O4_18 
REMARK   11  A    between atoms: C11_26  and  C12_27 
REMARK   12  A    between atoms: C12_27  and  C13_29 
REMARK       I    between atoms: C13_29  and  N4_31 
ROOT
HETATM    1  C13 UNL     1       3.922   1.431  -6.161  1.00  0.00     0.302 C 
HETATM    2  O9  UNL     1       4.735   2.164  -5.558  1.00  0.00    -0.263 OA
HETATM    3  N4  UNL     1       4.454   0.620  -7.215  1.00  0.00    -0.257 N 
ATOM      4  H4  UNL     1       3.831   0.005  -7.739  1.00  0.00     0.181 HD
HETATM    5  C14 UNL     1       5.811   0.659  -7.535  1.00  0.00     0.184 C 
HETATM    6  N5  UNL     1       6.930   0.687  -7.821  1.00  0.00    -0.172 NA
ENDROOT
BRANCH   1   7
HETATM    7  C12 UNL     1       2.519   1.409  -5.811  1.00  0.00     0.255 C 
HETATM    8  O8  UNL     1       1.848   2.428  -6.149  1.00  0.00    -0.284 OA
BRANCH   7   9
HETATM    9  C11 UNL     1       1.922   0.260  -5.109  1.00  0.00     0.337 C 
HETATM   10  C10 UNL     1       1.931   0.526  -3.652  1.00  0.00     0.169 C 
HETATM   11  C9  UNL     1       0.528   0.731  -3.229  1.00  0.00     0.147 C 
HETATM   12  O7  UNL     1       2.927   0.571  -2.898  1.00  0.00    -0.295 OA
HETATM   13  C5  UNL     1      -0.279   0.082  -4.324  1.00  0.00     0.251 C 
HETATM   14  N6  UNL     1       0.556   0.036  -5.477  1.00  0.00    -0.025 N 
ATOM     15  H62 UNL     1       0.440  -0.834  -5.997  1.00  0.00     0.281 HD
ATOM     16  H61 UNL     1       0.245   0.685  -6.199  1.00  0.00     0.281 HD
BRANCH  13  17
HETATM   17  C4  UNL     1      -1.504   0.974  -4.631  1.00  0.00     0.278 C 
BRANCH  17  18
HETATM   18  N1  UNL     1      -1.209   1.684  -5.857  1.00  0.00    -0.330 N 
HETATM   19  C3  UNL     1      -2.068   2.664  -6.407  1.00  0.00     0.235 C 
HETATM   20  O1  UNL     1      -3.138   2.954  -5.823  1.00  0.00    -0.272 OA
ATOM     21  H1  UNL     1      -0.342   1.466  -6.347  1.00  0.00     0.165 HD
BRANCH  19  22
HETATM   22  C2  UNL     1      -1.704   3.338  -7.653  1.00  0.00     0.166 C 
HETATM   23  C1  UNL     1      -2.693   4.424  -7.981  1.00  0.00     0.034 C 
BRANCH  22  24
HETATM   24  S1  UNL     1      -1.523   2.198  -9.004  1.00  0.00     0.024 S 
HETATM   25  C15 UNL     1       0.184   1.773  -9.228  1.00  0.00     0.128 C 
HETATM   26  O10 UNL     1      -2.366   0.790  -8.638  1.00  0.00    -0.258 OA
ENDBRANCH  22  24
ENDBRANCH  19  22
ENDBRANCH  17  18
BRANCH  17  27
HETATM   27  O2  UNL     1      -1.707   1.921  -3.639  1.00  0.00    -0.372 OA
ATOM     28  H2  UNL     1      -1.255   1.620  -2.859  1.00  0.00     0.212 HD
ENDBRANCH  17  27
ENDBRANCH  13  17
BRANCH  13  29
HETATM   29  N2  UNL     1      -0.801  -1.194  -3.929  1.00  0.00    -0.322 N 
HETATM   30  C6  UNL     1      -1.448  -1.545  -2.747  1.00  0.00     0.255 C 
HETATM   31  O3  UNL     1      -1.651  -0.711  -1.844  1.00  0.00    -0.270 OA
ATOM     32  H2  UNL     1      -0.682  -1.946  -4.606  1.00  0.00     0.165 HD
BRANCH  30  33
HETATM   33  C7  UNL     1      -1.932  -2.925  -2.490  1.00  0.00     0.297 C 
BRANCH  33  34
HETATM   34  N3  UNL     1      -2.278  -3.078  -1.087  1.00  0.00    -0.281 N 
ATOM     35  H3  UNL     1      -2.459  -2.254  -0.514  1.00  0.00     0.189 HD
BRANCH  34  36
HETATM   36  O4  UNL     1      -2.350  -4.168  -0.606  1.00  0.00    -0.293 OA
ATOM     37  H4  UNL     1      -3.106  -4.407  -0.083  1.00  0.00     0.244 HD
ENDBRANCH  34  36
ENDBRANCH  33  34
BRANCH  33  38
HETATM   38  C8  UNL     1      -3.140  -3.265  -3.285  1.00  0.00     0.208 C 
HETATM   39  O5  UNL     1      -4.052  -4.039  -2.837  1.00  0.00    -0.646 OA
HETATM   40  O6  UNL     1      -3.343  -2.760  -4.562  1.00  0.00    -0.646 OA
ENDBRANCH  33  38
ENDBRANCH  30  33
ENDBRANCH  13  29
ENDBRANCH   7   9
ENDBRANCH   1   7
TORSDOF 12
ENDMDL
