MODEL 1
REMARK VINA RESULT: -8.391244102      0.000      0.000
REMARK  12 active torsions:
REMARK  status: ('A' for Active; 'I' for Inactive)
REMARK    1  A    between atoms: O1_2  and  C2_3 
REMARK    2  A    between atoms: C2_3  and  O2_4 
REMARK    3  A    between atoms: O2_4  and  C3_5 
REMARK    4  A    between atoms: C3_5  and  C4_6 
REMARK    5  A    between atoms: C4_6  and  O3_7 
REMARK    6  A    between atoms: O3_7  and  C5_8 
REMARK    7  A    between atoms: C5_8  and  C6_9 
REMARK    8  A    between atoms: C6_9  and  N1_10 
REMARK    9  A    between atoms: C8_15  and  N3_16 
REMARK   10  A    between atoms: N5_24  and  C11_25 
REMARK   11  A    between atoms: C11_25  and  C12_26 
REMARK   12  A    between atoms: C17_39  and  O8_40 
ROOT
HETATM    1  C2  UNL     1      -3.055   2.098  -6.235  1.00  0.00     0.206 C 
HETATM    2  C10 UNL     1      -4.039   1.981  -5.083  1.00  0.00     0.188 C 
HETATM    3  N5  UNL     1      -5.092   1.061  -5.385  1.00  0.00    -0.400 N 
HETATM    4  C15 UNL     1      -5.827   1.311  -6.577  1.00  0.00     0.120 C 
HETATM    5  C16 UNL     1      -4.859   1.440  -7.751  1.00  0.00     0.057 C 
HETATM    6  C17 UNL     1      -3.493   1.061  -7.281  1.00  0.00     0.183 C 
ENDROOT
BRANCH   1   7
HETATM    7  O1  UNL     1      -3.134   3.389  -6.710  1.00  0.00    -0.356 OA
HETATM    8  C1  UNL     1      -3.615   4.328  -5.840  1.00  0.00     0.205 C 
ENDBRANCH   1   7
BRANCH   1   9
HETATM    9  O2  UNL     1      -1.779   1.734  -5.861  1.00  0.00    -0.349 OA
BRANCH   9  10
HETATM   10  C3  UNL     1      -1.673   0.911  -4.775  1.00  0.00     0.197 C 
BRANCH  10  11
HETATM   11  C4  UNL     1      -0.182   0.708  -4.510  1.00  0.00     0.194 C 
BRANCH  11  12
HETATM   12  O3  UNL     1       0.294  -0.414  -5.181  1.00  0.00    -0.387 OA
BRANCH  12  13
HETATM   13  C5  UNL     1       1.601  -0.238  -5.566  1.00  0.00     0.188 C 
BRANCH  13  14
HETATM   14  C6  UNL     1       1.817   0.914  -6.487  1.00  0.00     0.164 C 
BRANCH  14  15
HETATM   15  N1  UNL     1       2.445   0.537  -7.733  1.00  0.00    -0.248 N 
HETATM   16  C7  UNL     1       1.658   0.288  -8.790  1.00  0.00     0.344 A 
HETATM   17  O4  UNL     1       0.404   0.379  -8.707  1.00  0.00    -0.246 OA
HETATM   18  N2  UNL     1       2.229  -0.066  -9.960  1.00  0.00    -0.141 N 
HETATM   19  C8  UNL     1       3.563  -0.171 -10.078  1.00  0.00     0.683 A 
ATOM     20  H2  UNL     1       1.637  -0.256 -10.769  1.00  0.00     0.189 HD
HETATM   21  N4  UNL     1       4.361   0.076  -9.026  1.00  0.00    -0.141 N 
HETATM   22  C9  UNL     1       3.776   0.429  -7.860  1.00  0.00     0.344 A 
ATOM     23  H4  UNL     1       5.375  -0.000  -9.105  1.00  0.00     0.189 HD
HETATM   24  O5  UNL     1       4.550   0.656  -6.885  1.00  0.00    -0.246 OA
BRANCH  19  25
HETATM   25  N3  UNL     1       4.075  -0.514 -11.223  1.00  0.00    -0.234 N 
ATOM     26  H32 UNL     1       3.507  -1.004 -11.914  1.00  0.00     0.174 HD
ATOM     27  H31 UNL     1       5.050  -0.287 -11.421  1.00  0.00     0.174 HD
ENDBRANCH  19  25
ENDBRANCH  14  15
ENDBRANCH  13  14
ENDBRANCH  12  13
ENDBRANCH  11  12
ENDBRANCH  10  11
ENDBRANCH   9  10
ENDBRANCH   1   9
BRANCH   6  28
HETATM   28  O8  UNL     1      -2.561   0.840  -8.254  1.00  0.00    -0.390 OA
ATOM     29  H8  UNL     1      -2.541   1.517  -8.921  1.00  0.00     0.210 HD
ENDBRANCH   6  28
BRANCH   3  30
HETATM   30  C11 UNL     1      -5.830   0.620  -4.255  1.00  0.00     0.193 C 
BRANCH  30  31
HETATM   31  C12 UNL     1      -5.574  -0.818  -4.003  1.00  0.00     0.106 A 
HETATM   32  N6  UNL     1      -4.519  -1.467  -4.540  1.00  0.00    -0.296 N 
HETATM   33  C13 UNL     1      -4.301  -2.770  -4.300  1.00  0.00     0.329 A 
ATOM     34  H6  UNL     1      -3.872  -0.956  -5.141  1.00  0.00     0.172 HD
HETATM   35  O6  UNL     1      -3.302  -3.357  -4.816  1.00  0.00    -0.246 OA
HETATM   36  N7  UNL     1      -5.125  -3.484  -3.516  1.00  0.00    -0.260 N 
HETATM   37  C14 UNL     1      -6.179  -2.854  -2.974  1.00  0.00     0.329 A 
ATOM     38  H7  UNL     1      -4.954  -4.474  -3.337  1.00  0.00     0.175 HD
HETATM   39  O7  UNL     1      -6.992  -3.476  -2.226  1.00  0.00    -0.246 OA
HETATM   40  N8  UNL     1      -6.387  -1.550  -3.220  1.00  0.00    -0.296 N 
ATOM     41  H8  UNL     1      -7.196  -1.096  -2.796  1.00  0.00     0.172 HD
ENDBRANCH  30  31
ENDBRANCH   3  30
TORSDOF 12
ENDMDL
MODEL 2
REMARK VINA RESULT: -8.323605631      1.988      4.517
REMARK  12 active torsions:
REMARK  status: ('A' for Active; 'I' for Inactive)
REMARK    1  A    between atoms: O1_2  and  C2_3 
REMARK    2  A    between atoms: C2_3  and  O2_4 
REMARK    3  A    between atoms: O2_4  and  C3_5 
REMARK    4  A    between atoms: C3_5  and  C4_6 
REMARK    5  A    between atoms: C4_6  and  O3_7 
REMARK    6  A    between atoms: O3_7  and  C5_8 
REMARK    7  A    between atoms: C5_8  and  C6_9 
REMARK    8  A    between atoms: C6_9  and  N1_10 
REMARK    9  A    between atoms: C8_15  and  N3_16 
REMARK   10  A    between atoms: N5_24  and  C11_25 
REMARK   11  A    between atoms: C11_25  and  C12_26 
REMARK   12  A    between atoms: C17_39  and  O8_40 
ROOT
HETATM    1  C2  UNL     1      -2.935  -1.528  -3.487  1.00  0.00     0.206 C 
HETATM    2  C10 UNL     1      -3.432  -1.223  -4.891  1.00  0.00     0.188 C 
HETATM    3  N5  UNL     1      -4.861  -1.203  -4.948  1.00  0.00    -0.400 N 
HETATM    4  C15 UNL     1      -5.527  -2.371  -4.482  1.00  0.00     0.120 C 
HETATM    5  C16 UNL     1      -5.039  -2.704  -3.074  1.00  0.00     0.057 C 
HETATM    6  C17 UNL     1      -4.182  -1.580  -2.592  1.00  0.00     0.183 C 
ENDROOT
BRANCH   1   7
HETATM    7  O1  UNL     1      -2.276  -2.736  -3.541  1.00  0.00    -0.356 OA
HETATM    8  C1  UNL     1      -1.306  -2.942  -2.599  1.00  0.00     0.205 C 
ENDBRANCH   1   7
BRANCH   1   9
HETATM    9  O2  UNL     1      -2.156  -0.507  -2.985  1.00  0.00    -0.349 OA
BRANCH   9  10
HETATM   10  C3  UNL     1      -1.720   0.427  -3.882  1.00  0.00     0.197 C 
BRANCH  10  11
HETATM   11  C4  UNL     1      -0.207   0.257  -4.006  1.00  0.00     0.194 C 
BRANCH  11  12
HETATM   12  O3  UNL     1       0.121  -0.458  -5.154  1.00  0.00    -0.387 OA
BRANCH  12  13
HETATM   13  C5  UNL     1       1.431  -0.244  -5.508  1.00  0.00     0.188 C 
BRANCH  13  14
HETATM   14  C6  UNL     1       1.633   0.910  -6.431  1.00  0.00     0.164 C 
BRANCH  14  15
HETATM   15  N1  UNL     1       2.360   0.559  -7.630  1.00  0.00    -0.248 N 
HETATM   16  C7  UNL     1       3.700   0.558  -7.582  1.00  0.00     0.344 A 
HETATM   17  O4  UNL     1       4.316   0.854  -6.524  1.00  0.00    -0.246 OA
HETATM   18  N2  UNL     1       4.393   0.233  -8.694  1.00  0.00    -0.141 N 
HETATM   19  C8  UNL     1       3.763  -0.086  -9.835  1.00  0.00     0.683 A 
ATOM     20  H2  UNL     1       5.413   0.231  -8.665  1.00  0.00     0.189 HD
HETATM   21  N4  UNL     1       2.421  -0.089  -9.895  1.00  0.00    -0.141 N 
HETATM   22  C9  UNL     1       1.740   0.238  -8.775  1.00  0.00     0.344 A 
ATOM     23  H4  UNL     1       1.932  -0.331 -10.758  1.00  0.00     0.189 HD
HETATM   24  O5  UNL     1       0.477   0.227  -8.858  1.00  0.00    -0.246 OA
BRANCH  19  25
HETATM   25  N3  UNL     1       4.466  -0.394 -10.885  1.00  0.00    -0.234 N 
ATOM     26  H32 UNL     1       4.445   0.204 -11.711  1.00  0.00     0.174 HD
ATOM     27  H31 UNL     1       5.037  -1.239 -10.872  1.00  0.00     0.174 HD
ENDBRANCH  19  25
ENDBRANCH  14  15
ENDBRANCH  13  14
ENDBRANCH  12  13
ENDBRANCH  11  12
ENDBRANCH  10  11
ENDBRANCH   9  10
ENDBRANCH   1   9
BRANCH   6  28
HETATM   28  O8  UNL     1      -3.896  -1.569  -1.257  1.00  0.00    -0.390 OA
ATOM     29  H8  UNL     1      -4.573  -1.966  -0.721  1.00  0.00     0.210 HD
ENDBRANCH   6  28
BRANCH   3  30
HETATM   30  C11 UNL     1      -5.396  -0.577  -6.105  1.00  0.00     0.193 C 
BRANCH  30  31
HETATM   31  C12 UNL     1      -6.159   0.635  -5.725  1.00  0.00     0.106 A 
HETATM   32  N6  UNL     1      -7.051   0.637  -4.711  1.00  0.00    -0.296 N 
HETATM   33  C13 UNL     1      -7.734   1.746  -4.381  1.00  0.00     0.329 A 
ATOM     34  H6  UNL     1      -7.209  -0.221  -4.185  1.00  0.00     0.172 HD
HETATM   35  O6  UNL     1      -8.566   1.722  -3.423  1.00  0.00    -0.246 OA
HETATM   36  N7  UNL     1      -7.559   2.900  -5.045  1.00  0.00    -0.260 N 
HETATM   37  C14 UNL     1      -6.676   2.914  -6.056  1.00  0.00     0.329 A 
ATOM     38  H7  UNL     1      -8.080   3.738  -4.789  1.00  0.00     0.175 HD
HETATM   39  O7  UNL     1      -6.469   3.974  -6.721  1.00  0.00    -0.246 OA
HETATM   40  N8  UNL     1      -5.999   1.800  -6.379  1.00  0.00    -0.296 N 
ATOM     41  H8  UNL     1      -5.334   1.839  -7.152  1.00  0.00     0.172 HD
ENDBRANCH  30  31
ENDBRANCH   3  30
TORSDOF 12
ENDMDL
MODEL 3
REMARK VINA RESULT: -8.310308104      0.504      1.990
REMARK  12 active torsions:
REMARK  status: ('A' for Active; 'I' for Inactive)
REMARK    1  A    between atoms: O1_2  and  C2_3 
REMARK    2  A    between atoms: C2_3  and  O2_4 
REMARK    3  A    between atoms: O2_4  and  C3_5 
REMARK    4  A    between atoms: C3_5  and  C4_6 
REMARK    5  A    between atoms: C4_6  and  O3_7 
REMARK    6  A    between atoms: O3_7  and  C5_8 
REMARK    7  A    between atoms: C5_8  and  C6_9 
REMARK    8  A    between atoms: C6_9  and  N1_10 
REMARK    9  A    between atoms: C8_15  and  N3_16 
REMARK   10  A    between atoms: N5_24  and  C11_25 
REMARK   11  A    between atoms: C11_25  and  C12_26 
REMARK   12  A    between atoms: C17_39  and  O8_40 
ROOT
HETATM    1  C2  UNL     1      -3.010   2.359  -6.049  1.00  0.00     0.206 C 
HETATM    2  C10 UNL     1      -4.173   2.202  -5.084  1.00  0.00     0.188 C 
HETATM    3  N5  UNL     1      -5.066   1.166  -5.503  1.00  0.00    -0.400 N 
HETATM    4  C15 UNL     1      -5.591   1.281  -6.820  1.00  0.00     0.120 C 
HETATM    5  C16 UNL     1      -4.442   1.448  -7.811  1.00  0.00     0.057 C 
HETATM    6  C17 UNL     1      -3.155   1.232  -7.084  1.00  0.00     0.183 C 
ENDROOT
BRANCH   1   7
HETATM    7  O1  UNL     1      -3.118   3.610  -6.617  1.00  0.00    -0.356 OA
HETATM    8  C1  UNL     1      -3.735   4.569  -5.861  1.00  0.00     0.205 C 
ENDBRANCH   1   7
BRANCH   1   9
HETATM    9  O2  UNL     1      -1.797   2.145  -5.432  1.00  0.00    -0.349 OA
BRANCH   9  10
HETATM   10  C3  UNL     1      -1.821   1.425  -4.271  1.00  0.00     0.197 C 
BRANCH  10  11
HETATM   11  C4  UNL     1      -0.530   0.608  -4.223  1.00  0.00     0.194 C 
BRANCH  11  12
HETATM   12  O3  UNL     1      -0.275   0.009  -5.452  1.00  0.00    -0.387 OA
BRANCH  12  13
HETATM   13  C5  UNL     1       1.074  -0.023  -5.711  1.00  0.00     0.188 C 
BRANCH  13  14
HETATM   14  C6  UNL     1       1.563   1.113  -6.543  1.00  0.00     0.164 C 
BRANCH  14  15
HETATM   15  N1  UNL     1       2.301   0.688  -7.711  1.00  0.00    -0.248 N 
HETATM   16  C7  UNL     1       3.640   0.678  -7.645  1.00  0.00     0.344 A 
HETATM   17  O4  UNL     1       4.246   1.028  -6.597  1.00  0.00    -0.246 OA
HETATM   18  N2  UNL     1       4.344   0.284  -8.727  1.00  0.00    -0.141 N 
HETATM   19  C8  UNL     1       3.725  -0.093  -9.858  1.00  0.00     0.683 A 
ATOM     20  H2  UNL     1       5.363   0.273  -8.686  1.00  0.00     0.189 HD
HETATM   21  N4  UNL     1       2.384  -0.087  -9.935  1.00  0.00    -0.141 N 
HETATM   22  C9  UNL     1       1.692   0.310  -8.844  1.00  0.00     0.344 A 
ATOM     23  H4  UNL     1       1.904  -0.373 -10.789  1.00  0.00     0.189 HD
HETATM   24  O5  UNL     1       0.430   0.306  -8.943  1.00  0.00    -0.246 OA
BRANCH  19  25
HETATM   25  N3  UNL     1       4.439  -0.467 -10.879  1.00  0.00    -0.234 N 
ATOM     26  H32 UNL     1       5.392  -0.124 -10.992  1.00  0.00     0.174 HD
ATOM     27  H31 UNL     1       4.033  -1.105 -11.564  1.00  0.00     0.174 HD
ENDBRANCH  19  25
ENDBRANCH  14  15
ENDBRANCH  13  14
ENDBRANCH  12  13
ENDBRANCH  11  12
ENDBRANCH  10  11
ENDBRANCH   9  10
ENDBRANCH   1   9
BRANCH   6  28
HETATM   28  O8  UNL     1      -2.046   1.058  -7.860  1.00  0.00    -0.390 OA
ATOM     29  H8  UNL     1      -2.143   0.374  -8.513  1.00  0.00     0.210 HD
ENDBRANCH   6  28
BRANCH   3  30
HETATM   30  C11 UNL     1      -5.955   0.710  -4.494  1.00  0.00     0.193 C 
BRANCH  30  31
HETATM   31  C12 UNL     1      -5.509  -0.603  -3.971  1.00  0.00     0.106 A 
HETATM   32  N6  UNL     1      -6.319  -1.401  -3.243  1.00  0.00    -0.296 N 
HETATM   33  C13 UNL     1      -5.898  -2.589  -2.777  1.00  0.00     0.329 A 
ATOM     34  H6  UNL     1      -7.270  -1.095  -3.041  1.00  0.00     0.172 HD
HETATM   35  O6  UNL     1      -6.679  -3.321  -2.095  1.00  0.00    -0.246 OA
HETATM   36  N7  UNL     1      -4.654  -3.034  -3.018  1.00  0.00    -0.260 N 
HETATM   37  C14 UNL     1      -3.837  -2.252  -3.741  1.00  0.00     0.329 A 
ATOM     38  H7  UNL     1      -4.341  -3.937  -2.662  1.00  0.00     0.175 HD
HETATM   39  O7  UNL     1      -2.651  -2.619  -4.000  1.00  0.00    -0.246 OA
HETATM   40  N8  UNL     1      -4.268  -1.066  -4.201  1.00  0.00    -0.296 N 
ATOM     41  H8  UNL     1      -3.625  -0.492  -4.748  1.00  0.00     0.172 HD
ENDBRANCH  30  31
ENDBRANCH   3  30
TORSDOF 12
ENDMDL
MODEL 4
REMARK VINA RESULT: -8.302265745      0.467      1.449
REMARK  12 active torsions:
REMARK  status: ('A' for Active; 'I' for Inactive)
REMARK    1  A    between atoms: O1_2  and  C2_3 
REMARK    2  A    between atoms: C2_3  and  O2_4 
REMARK    3  A    between atoms: O2_4  and  C3_5 
REMARK    4  A    between atoms: C3_5  and  C4_6 
REMARK    5  A    between atoms: C4_6  and  O3_7 
REMARK    6  A    between atoms: O3_7  and  C5_8 
REMARK    7  A    between atoms: C5_8  and  C6_9 
REMARK    8  A    between atoms: C6_9  and  N1_10 
REMARK    9  A    between atoms: C8_15  and  N3_16 
REMARK   10  A    between atoms: N5_24  and  C11_25 
REMARK   11  A    between atoms: C11_25  and  C12_26 
REMARK   12  A    between atoms: C17_39  and  O8_40 
ROOT
HETATM    1  C2  UNL     1      -3.071   2.292  -6.069  1.00  0.00     0.206 C 
HETATM    2  C10 UNL     1      -4.225   2.115  -5.095  1.00  0.00     0.188 C 
HETATM    3  N5  UNL     1      -5.118   1.083  -5.522  1.00  0.00    -0.400 N 
HETATM    4  C15 UNL     1      -5.656   1.217  -6.832  1.00  0.00     0.120 C 
HETATM    5  C16 UNL     1      -4.516   1.404  -7.831  1.00  0.00     0.057 C 
HETATM    6  C17 UNL     1      -3.222   1.182  -7.119  1.00  0.00     0.183 C 
ENDROOT
BRANCH   1   7
HETATM    7  O1  UNL     1      -3.188   3.552  -6.615  1.00  0.00    -0.356 OA
HETATM    8  C1  UNL     1      -3.795   4.498  -5.835  1.00  0.00     0.205 C 
ENDBRANCH   1   7
BRANCH   1   9
HETATM    9  O2  UNL     1      -1.851   2.074  -5.466  1.00  0.00    -0.349 OA
BRANCH   9  10
HETATM   10  C3  UNL     1      -1.871   1.412  -4.270  1.00  0.00     0.197 C 
BRANCH  10  11
HETATM   11  C4  UNL     1      -0.606   0.557  -4.210  1.00  0.00     0.194 C 
BRANCH  11  12
HETATM   12  O3  UNL     1      -0.305   0.024  -5.460  1.00  0.00    -0.387 OA
BRANCH  12  13
HETATM   13  C5  UNL     1       1.051   0.007  -5.673  1.00  0.00     0.188 C 
BRANCH  13  14
HETATM   14  C6  UNL     1       1.554   1.140  -6.502  1.00  0.00     0.164 C 
BRANCH  14  15
HETATM   15  N1  UNL     1       2.259   0.709  -7.687  1.00  0.00    -0.248 N 
HETATM   16  C7  UNL     1       3.600   0.678  -7.651  1.00  0.00     0.344 A 
HETATM   17  O4  UNL     1       4.233   1.015  -6.615  1.00  0.00    -0.246 OA
HETATM   18  N2  UNL     1       4.274   0.278  -8.750  1.00  0.00    -0.141 N 
HETATM   19  C8  UNL     1       3.625  -0.086  -9.867  1.00  0.00     0.683 A 
ATOM     20  H2  UNL     1       5.293   0.252  -8.730  1.00  0.00     0.189 HD
HETATM   21  N4  UNL     1       2.282  -0.059  -9.915  1.00  0.00    -0.141 N 
HETATM   22  C9  UNL     1       1.621   0.344  -8.808  1.00  0.00     0.344 A 
ATOM     23  H4  UNL     1       1.780  -0.335 -10.759  1.00  0.00     0.189 HD
HETATM   24  O5  UNL     1       0.357   0.359  -8.879  1.00  0.00    -0.246 OA
BRANCH  19  25
HETATM   25  N3  UNL     1       4.310  -0.466 -10.905  1.00  0.00    -0.234 N 
ATOM     26  H32 UNL     1       5.264  -0.131 -11.042  1.00  0.00     0.174 HD
ATOM     27  H31 UNL     1       3.883  -1.100 -11.580  1.00  0.00     0.174 HD
ENDBRANCH  19  25
ENDBRANCH  14  15
ENDBRANCH  13  14
ENDBRANCH  12  13
ENDBRANCH  11  12
ENDBRANCH  10  11
ENDBRANCH   9  10
ENDBRANCH   1   9
BRANCH   6  28
HETATM   28  O8  UNL     1      -2.120   1.024  -7.909  1.00  0.00    -0.390 OA
ATOM     29  H8  UNL     1      -1.705   0.174  -7.817  1.00  0.00     0.210 HD
ENDBRANCH   6  28
BRANCH   3  30
HETATM   30  C11 UNL     1      -5.995   0.608  -4.512  1.00  0.00     0.193 C 
BRANCH  30  31
HETATM   31  C12 UNL     1      -5.527  -0.701  -3.998  1.00  0.00     0.106 A 
HETATM   32  N6  UNL     1      -4.282  -1.166  -4.240  1.00  0.00    -0.296 N 
HETATM   33  C13 UNL     1      -3.874  -2.354  -3.766  1.00  0.00     0.329 A 
ATOM     34  H6  UNL     1      -3.639  -0.603  -4.795  1.00  0.00     0.172 HD
HETATM   35  O6  UNL     1      -2.699  -2.769  -4.007  1.00  0.00    -0.246 OA
HETATM   36  N7  UNL     1      -4.686  -3.131  -3.030  1.00  0.00    -0.260 N 
HETATM   37  C14 UNL     1      -5.927  -2.683  -2.781  1.00  0.00     0.329 A 
ATOM     38  H7  UNL     1      -4.370  -4.032  -2.673  1.00  0.00     0.175 HD
HETATM   39  O7  UNL     1      -6.739  -3.372  -2.093  1.00  0.00    -0.246 OA
HETATM   40  N8  UNL     1      -6.325  -1.493  -3.260  1.00  0.00    -0.296 N 
ATOM     41  H8  UNL     1      -7.273  -1.177  -3.056  1.00  0.00     0.172 HD
ENDBRANCH  30  31
ENDBRANCH   3  30
TORSDOF 12
ENDMDL
MODEL 5
REMARK VINA RESULT: -8.298905597      0.509      1.445
REMARK  12 active torsions:
REMARK  status: ('A' for Active; 'I' for Inactive)
REMARK    1  A    between atoms: O1_2  and  C2_3 
REMARK    2  A    between atoms: C2_3  and  O2_4 
REMARK    3  A    between atoms: O2_4  and  C3_5 
REMARK    4  A    between atoms: C3_5  and  C4_6 
REMARK    5  A    between atoms: C4_6  and  O3_7 
REMARK    6  A    between atoms: O3_7  and  C5_8 
REMARK    7  A    between atoms: C5_8  and  C6_9 
REMARK    8  A    between atoms: C6_9  and  N1_10 
REMARK    9  A    between atoms: C8_15  and  N3_16 
REMARK   10  A    between atoms: N5_24  and  C11_25 
REMARK   11  A    between atoms: C11_25  and  C12_26 
REMARK   12  A    between atoms: C17_39  and  O8_40 
ROOT
HETATM    1  C2  UNL     1      -3.010   2.362  -6.037  1.00  0.00     0.206 C 
HETATM    2  C10 UNL     1      -4.178   2.203  -5.078  1.00  0.00     0.188 C 
HETATM    3  N5  UNL     1      -5.059   1.157  -5.494  1.00  0.00    -0.400 N 
HETATM    4  C15 UNL     1      -5.577   1.256  -6.815  1.00  0.00     0.120 C 
HETATM    5  C16 UNL     1      -4.422   1.424  -7.801  1.00  0.00     0.057 C 
HETATM    6  C17 UNL     1      -3.139   1.225  -7.063  1.00  0.00     0.183 C 
ENDROOT
BRANCH   1   7
HETATM    7  O1  UNL     1      -3.123   3.607  -6.616  1.00  0.00    -0.356 OA
HETATM    8  C1  UNL     1      -3.748   4.569  -5.870  1.00  0.00     0.205 C 
ENDBRANCH   1   7
BRANCH   1   9
HETATM    9  O2  UNL     1      -1.798   2.163  -5.410  1.00  0.00    -0.349 OA
BRANCH   9  10
HETATM   10  C3  UNL     1      -1.816   1.399  -4.277  1.00  0.00     0.197 C 
BRANCH  10  11
HETATM   11  C4  UNL     1      -0.482   0.655  -4.217  1.00  0.00     0.194 C 
BRANCH  11  12
HETATM   12  O3  UNL     1      -0.250  -0.046  -5.396  1.00  0.00    -0.387 OA
BRANCH  12  13
HETATM   13  C5  UNL     1       1.084  -0.032  -5.721  1.00  0.00     0.188 C 
BRANCH  13  14
HETATM   14  C6  UNL     1       1.487   1.101  -6.602  1.00  0.00     0.164 C 
BRANCH  14  15
HETATM   15  N1  UNL     1       2.301   0.689  -7.723  1.00  0.00    -0.248 N 
HETATM   16  C7  UNL     1       1.682   0.308  -8.850  1.00  0.00     0.344 A 
HETATM   17  O4  UNL     1       0.425   0.306  -8.937  1.00  0.00    -0.246 OA
HETATM   18  N2  UNL     1       2.428  -0.080  -9.906  1.00  0.00    -0.141 N 
HETATM   19  C8  UNL     1       3.769  -0.088  -9.842  1.00  0.00     0.683 A 
ATOM     20  H2  UNL     1       1.965  -0.371 -10.767  1.00  0.00     0.189 HD
HETATM   21  N4  UNL     1       4.401   0.292  -8.718  1.00  0.00    -0.141 N 
HETATM   22  C9  UNL     1       3.641   0.677  -7.669  1.00  0.00     0.344 A 
ATOM     23  H4  UNL     1       5.419   0.290  -8.660  1.00  0.00     0.189 HD
HETATM   24  O5  UNL     1       4.260   1.031  -6.623  1.00  0.00    -0.246 OA
BRANCH  19  25
HETATM   25  N3  UNL     1       4.453  -0.468 -10.881  1.00  0.00    -0.234 N 
ATOM     26  H32 UNL     1       4.233  -0.096 -11.804  1.00  0.00     0.174 HD
ATOM     27  H31 UNL     1       5.210  -1.141 -10.761  1.00  0.00     0.174 HD
ENDBRANCH  19  25
ENDBRANCH  14  15
ENDBRANCH  13  14
ENDBRANCH  12  13
ENDBRANCH  11  12
ENDBRANCH  10  11
ENDBRANCH   9  10
ENDBRANCH   1   9
BRANCH   6  28
HETATM   28  O8  UNL     1      -2.023   1.054  -7.830  1.00  0.00    -0.390 OA
ATOM     29  H8  UNL     1      -2.095   0.337  -8.450  1.00  0.00     0.210 HD
ENDBRANCH   6  28
BRANCH   3  30
HETATM   30  C11 UNL     1      -5.951   0.703  -4.487  1.00  0.00     0.193 C 
BRANCH  30  31
HETATM   31  C12 UNL     1      -5.504  -0.608  -3.958  1.00  0.00     0.106 A 
HETATM   32  N6  UNL     1      -6.313  -1.402  -3.225  1.00  0.00    -0.296 N 
HETATM   33  C13 UNL     1      -5.892  -2.587  -2.753  1.00  0.00     0.329 A 
ATOM     34  H6  UNL     1      -7.265  -1.096  -3.024  1.00  0.00     0.172 HD
HETATM   35  O6  UNL     1      -6.671  -3.316  -2.067  1.00  0.00    -0.246 OA
HETATM   36  N7  UNL     1      -4.647  -3.033  -2.992  1.00  0.00    -0.260 N 
HETATM   37  C14 UNL     1      -3.830  -2.254  -3.719  1.00  0.00     0.329 A 
ATOM     38  H7  UNL     1      -4.333  -3.934  -2.631  1.00  0.00     0.175 HD
HETATM   39  O7  UNL     1      -2.644  -2.621  -3.976  1.00  0.00    -0.246 OA
HETATM   40  N8  UNL     1      -4.262  -1.071  -4.185  1.00  0.00    -0.296 N 
ATOM     41  H8  UNL     1      -3.621  -0.499  -4.735  1.00  0.00     0.172 HD
ENDBRANCH  30  31
ENDBRANCH   3  30
TORSDOF 12
ENDMDL
