MODEL 1
REMARK VINA RESULT: -6.768710748      0.000      0.000
REMARK  5 active torsions:
REMARK  status: ('A' for Active; 'I' for Inactive)
REMARK    1  A    between atoms: N1_1  and  C1_5 
REMARK    2  A    between atoms: C1_5  and  C2_6 
REMARK    3  A    between atoms: C1_5  and  C3_9 
REMARK    4  A    between atoms: C12_25  and  C13_26 
REMARK    5  A    between atoms: C13_26  and  S1_27 
ROOT
HETATM    1  C3  UNL     1      -6.036  -1.100  26.898  1.00  0.00     0.125 C 
HETATM    2  N2  UNL     1      -7.136  -1.852  26.410  1.00  0.00    -0.410 N 
ATOM      3  H2  UNL     1      -6.983  -2.604  25.737  1.00  0.00     0.154 HD
HETATM    4  C4  UNL     1      -8.434  -1.559  26.855  1.00  0.00     0.158 C 
HETATM    5  C5  UNL     1      -9.402  -2.380  25.991  1.00  0.00     0.074 C 
HETATM    6  N3  UNL     1     -10.711  -1.886  25.942  1.00  0.00    -0.401 N 
ATOM      7  H3  UNL     1     -11.435  -2.411  25.454  1.00  0.00     0.158 HD
HETATM    8  C6  UNL     1     -11.028  -0.661  26.565  1.00  0.00     0.120 C 
HETATM    9  C7  UNL     1     -10.958   0.556  25.667  1.00  0.00     0.039 C 
HETATM   10  C8  UNL     1     -10.813   0.248  24.221  1.00  0.00     0.115 C 
HETATM   11  N4  UNL     1      -9.493   0.236  23.695  1.00  0.00    -0.419 N 
ATOM     12  H4  UNL     1      -9.077  -0.598  23.282  1.00  0.00     0.153 HD
HETATM   13  C9  UNL     1      -8.782   1.488  23.786  1.00  0.00     0.140 C 
HETATM   14  C10 UNL     1      -7.398   1.303  23.201  1.00  0.00     0.186 C 
HETATM   15  O3  UNL     1      -6.415   1.190  24.170  1.00  0.00    -0.389 OA
HETATM   16  C11 UNL     1      -6.201  -0.118  24.591  1.00  0.00     0.175 C 
HETATM   17  C12 UNL     1      -5.501  -0.075  25.933  1.00  0.00     0.051 C 
ENDROOT
BRANCH   1  18
HETATM   18  C1  UNL     1      -6.261  -0.453  28.237  1.00  0.00     0.305 C 
BRANCH  18  19
HETATM   19  N1  UNL     1      -5.018  -0.400  29.007  1.00  0.00    -0.063 N 
ATOM     20  H13 UNL     1      -4.744   0.541  29.289  1.00  0.00     0.275 HD
ATOM     21  H12 UNL     1      -5.096  -0.784  29.949  1.00  0.00     0.275 HD
ATOM     22  H11 UNL     1      -4.332  -0.875  28.421  1.00  0.00     0.275 HD
ENDBRANCH  18  19
BRANCH  18  23
HETATM   23  C2  UNL     1      -6.716   0.938  28.173  1.00  0.00     0.206 C 
HETATM   24  O1  UNL     1      -6.020   1.940  27.915  1.00  0.00    -0.646 OA
HETATM   25  O2  UNL     1      -8.069   1.207  28.425  1.00  0.00    -0.646 OA
ENDBRANCH  18  23
ENDBRANCH   1  18
BRANCH  17  26
HETATM   26  C13 UNL     1      -4.022  -0.337  25.628  1.00  0.00     0.174 C 
BRANCH  26  27
HETATM   27  S1  UNL     1      -2.943   0.907  26.207  1.00  0.00     0.102 S 
HETATM   28  O4  UNL     1      -3.161   2.123  25.324  1.00  0.00    -0.595 OA
HETATM   29  O5  UNL     1      -3.140   1.354  27.596  1.00  0.00    -0.595 OA
HETATM   30  O6  UNL     1      -1.333   0.472  25.963  1.00  0.00    -0.595 OA
ENDBRANCH  26  27
ENDBRANCH  17  26
TORSDOF 5
ENDMDL
MODEL 2
REMARK VINA RESULT: -6.570297634      1.987      2.641
REMARK  5 active torsions:
REMARK  status: ('A' for Active; 'I' for Inactive)
REMARK    1  A    between atoms: N1_1  and  C1_5 
REMARK    2  A    between atoms: C1_5  and  C2_6 
REMARK    3  A    between atoms: C1_5  and  C3_9 
REMARK    4  A    between atoms: C12_25  and  C13_26 
REMARK    5  A    between atoms: C13_26  and  S1_27 
ROOT
HETATM    1  C3  UNL     1      -8.494  -1.400  25.842  1.00  0.00     0.125 C 
HETATM    2  N2  UNL     1      -9.401  -1.787  24.822  1.00  0.00    -0.410 N 
ATOM      3  H2  UNL     1      -9.091  -2.397  24.065  1.00  0.00     0.154 HD
HETATM    4  C4  UNL     1     -10.727  -1.328  24.857  1.00  0.00     0.158 C 
HETATM    5  C5  UNL     1     -11.378  -1.730  23.526  1.00  0.00     0.074 C 
HETATM    6  N3  UNL     1     -12.499  -0.973  23.167  1.00  0.00    -0.401 N 
ATOM      7  H3  UNL     1     -13.037  -1.222  22.337  1.00  0.00     0.158 HD
HETATM    8  C6  UNL     1     -12.886   0.134  23.950  1.00  0.00     0.120 C 
HETATM    9  C7  UNL     1     -12.335   1.469  23.497  1.00  0.00     0.039 C 
HETATM   10  C8  UNL     1     -11.682   1.446  22.162  1.00  0.00     0.115 C 
HETATM   11  N4  UNL     1     -10.272   1.267  22.138  1.00  0.00    -0.419 N 
ATOM     12  H4  UNL     1      -9.831   0.469  21.683  1.00  0.00     0.153 HD
HETATM   13  C9  UNL     1      -9.510   2.295  22.802  1.00  0.00     0.140 C 
HETATM   14  C10 UNL     1      -8.039   1.950  22.701  1.00  0.00     0.186 C 
HETATM   15  O3  UNL     1      -7.524   1.434  23.879  1.00  0.00    -0.389 OA
HETATM   16  C11 UNL     1      -7.644   0.053  23.976  1.00  0.00     0.175 C 
HETATM   17  C12 UNL     1      -7.513  -0.332  25.435  1.00  0.00     0.051 C 
ENDROOT
BRANCH   1  18
HETATM   18  C1  UNL     1      -9.138  -1.014  27.144  1.00  0.00     0.305 C 
BRANCH  18  19
HETATM   19  N1  UNL     1      -9.579  -2.198  27.881  1.00  0.00    -0.063 N 
ATOM     20  H13 UNL     1      -9.002  -3.025  27.724  1.00  0.00     0.275 HD
ATOM     21  H12 UNL     1      -9.426  -2.143  28.888  1.00  0.00     0.275 HD
ATOM     22  H11 UNL     1     -10.557  -2.317  27.616  1.00  0.00     0.275 HD
ENDBRANCH  18  19
BRANCH  18  23
HETATM   23  C2  UNL     1      -8.255  -0.307  28.076  1.00  0.00     0.206 C 
HETATM   24  O1  UNL     1      -8.252   0.916  28.319  1.00  0.00    -0.646 OA
HETATM   25  O2  UNL     1      -7.302  -1.053  28.784  1.00  0.00    -0.646 OA
ENDBRANCH  18  23
ENDBRANCH   1  18
BRANCH  17  26
HETATM   26  C13 UNL     1      -6.072  -0.829  25.597  1.00  0.00     0.174 C 
BRANCH  26  27
HETATM   27  S1  UNL     1      -4.977   0.361  26.256  1.00  0.00     0.102 S 
HETATM   28  O4  UNL     1      -3.915   0.612  25.201  1.00  0.00    -0.595 OA
HETATM   29  O5  UNL     1      -5.557   1.672  26.592  1.00  0.00    -0.595 OA
HETATM   30  O6  UNL     1      -4.140  -0.258  27.581  1.00  0.00    -0.595 OA
ENDBRANCH  26  27
ENDBRANCH  17  26
TORSDOF 5
ENDMDL
MODEL 3
REMARK VINA RESULT: -6.501929473      1.906      2.542
REMARK  5 active torsions:
REMARK  status: ('A' for Active; 'I' for Inactive)
REMARK    1  A    between atoms: N1_1  and  C1_5 
REMARK    2  A    between atoms: C1_5  and  C2_6 
REMARK    3  A    between atoms: C1_5  and  C3_9 
REMARK    4  A    between atoms: C12_25  and  C13_26 
REMARK    5  A    between atoms: C13_26  and  S1_27 
ROOT
HETATM    1  C3  UNL     1      -8.370  -1.275  25.816  1.00  0.00     0.125 C 
HETATM    2  N2  UNL     1      -9.370  -1.678  24.893  1.00  0.00    -0.410 N 
ATOM      3  H2  UNL     1      -9.126  -2.279  24.105  1.00  0.00     0.154 HD
HETATM    4  C4  UNL     1     -10.694  -1.250  25.068  1.00  0.00     0.158 C 
HETATM    5  C5  UNL     1     -11.470  -1.662  23.808  1.00  0.00     0.074 C 
HETATM    6  N3  UNL     1     -12.639  -0.930  23.571  1.00  0.00    -0.401 N 
ATOM      7  H3  UNL     1     -13.254  -1.188  22.800  1.00  0.00     0.158 HD
HETATM    8  C6  UNL     1     -12.967   0.166  24.396  1.00  0.00     0.120 C 
HETATM    9  C7  UNL     1     -12.496   1.514  23.896  1.00  0.00     0.039 C 
HETATM   10  C8  UNL     1     -11.984   1.510  22.500  1.00  0.00     0.115 C 
HETATM   11  N4  UNL     1     -10.581   1.364  22.330  1.00  0.00    -0.419 N 
ATOM     12  H4  UNL     1     -10.171   0.577  21.827  1.00  0.00     0.153 HD
HETATM   13  C9  UNL     1      -9.777   2.406  22.918  1.00  0.00     0.140 C 
HETATM   14  C10 UNL     1      -8.317   2.095  22.663  1.00  0.00     0.186 C 
HETATM   15  O3  UNL     1      -7.672   1.587  23.779  1.00  0.00    -0.389 OA
HETATM   16  C11 UNL     1      -7.750   0.204  23.881  1.00  0.00     0.175 C 
HETATM   17  C12 UNL     1      -7.461  -0.183  25.316  1.00  0.00     0.051 C 
ENDROOT
BRANCH   1  18
HETATM   18  C1  UNL     1      -8.885  -0.907  27.180  1.00  0.00     0.305 C 
BRANCH  18  19
HETATM   19  N1  UNL     1      -9.312  -2.097  27.916  1.00  0.00    -0.063 N 
ATOM     20  H13 UNL     1      -9.847  -2.762  27.356  1.00  0.00     0.275 HD
ATOM     21  H12 UNL     1      -8.552  -2.734  28.154  1.00  0.00     0.275 HD
ATOM     22  H11 UNL     1      -9.817  -1.733  28.724  1.00  0.00     0.275 HD
ENDBRANCH  18  19
BRANCH  18  23
HETATM   23  C2  UNL     1      -7.897  -0.267  28.053  1.00  0.00     0.206 C 
HETATM   24  O1  UNL     1      -6.875  -0.794  28.534  1.00  0.00    -0.646 OA
HETATM   25  O2  UNL     1      -8.091   1.076  28.405  1.00  0.00    -0.646 OA
ENDBRANCH  18  23
ENDBRANCH   1  18
BRANCH  17  26
HETATM   26  C13 UNL     1      -6.000  -0.647  25.325  1.00  0.00     0.174 C 
BRANCH  26  27
HETATM   27  S1  UNL     1      -4.849   0.625  25.644  1.00  0.00     0.102 S 
HETATM   28  O4  UNL     1      -5.579   1.688  26.445  1.00  0.00    -0.595 OA
HETATM   29  O5  UNL     1      -3.657   0.252  26.426  1.00  0.00    -0.595 OA
HETATM   30  O6  UNL     1      -4.386   1.393  24.217  1.00  0.00    -0.595 OA
ENDBRANCH  26  27
ENDBRANCH  17  26
TORSDOF 5
ENDMDL
MODEL 4
REMARK VINA RESULT: -6.403666083      2.502      3.580
REMARK  5 active torsions:
REMARK  status: ('A' for Active; 'I' for Inactive)
REMARK    1  A    between atoms: N1_1  and  C1_5 
REMARK    2  A    between atoms: C1_5  and  C2_6 
REMARK    3  A    between atoms: C1_5  and  C3_9 
REMARK    4  A    between atoms: C12_25  and  C13_26 
REMARK    5  A    between atoms: C13_26  and  S1_27 
ROOT
HETATM    1  C3  UNL     1      -9.238  -1.222  24.778  1.00  0.00     0.125 C 
HETATM    2  N2  UNL     1     -10.382  -1.439  23.965  1.00  0.00    -0.410 N 
ATOM      3  H2  UNL     1     -10.271  -1.678  22.980  1.00  0.00     0.154 HD
HETATM    4  C4  UNL     1     -11.665  -1.324  24.523  1.00  0.00     0.158 C 
HETATM    5  C5  UNL     1     -12.667  -1.395  23.362  1.00  0.00     0.074 C 
HETATM    6  N3  UNL     1     -13.920  -0.831  23.631  1.00  0.00    -0.401 N 
ATOM      7  H3  UNL     1     -14.669  -0.904  22.943  1.00  0.00     0.158 HD
HETATM    8  C6  UNL     1     -14.147  -0.163  24.852  1.00  0.00     0.120 C 
HETATM    9  C7  UNL     1     -13.924   1.334  24.818  1.00  0.00     0.039 C 
HETATM   10  C8  UNL     1     -13.745   1.901  23.457  1.00  0.00     0.115 C 
HETATM   11  N4  UNL     1     -12.410   2.059  22.995  1.00  0.00    -0.419 N 
ATOM     12  H4  UNL     1     -12.058   1.576  22.169  1.00  0.00     0.153 HD
HETATM   13  C9  UNL     1     -11.590   2.949  23.777  1.00  0.00     0.140 C 
HETATM   14  C10 UNL     1     -10.204   2.994  23.167  1.00  0.00     0.186 C 
HETATM   15  O3  UNL     1      -9.280   2.244  23.875  1.00  0.00    -0.389 OA
HETATM   16  C11 UNL     1      -9.209   0.919  23.462  1.00  0.00     0.175 C 
HETATM   17  C12 UNL     1      -8.567   0.111  24.570  1.00  0.00     0.051 C 
ENDROOT
BRANCH   1  18
HETATM   18  C1  UNL     1      -9.460  -1.443  26.248  1.00  0.00     0.305 C 
BRANCH  18  19
HETATM   19  N1  UNL     1      -8.365  -2.220  26.830  1.00  0.00    -0.063 N 
ATOM     20  H13 UNL     1      -8.608  -3.188  27.041  1.00  0.00     0.275 HD
ATOM     21  H12 UNL     1      -7.612  -2.432  26.176  1.00  0.00     0.275 HD
ATOM     22  H11 UNL     1      -8.068  -1.679  27.643  1.00  0.00     0.275 HD
ENDBRANCH  18  19
BRANCH  18  23
HETATM   23  C2  UNL     1      -9.509  -0.217  27.049  1.00  0.00     0.206 C 
HETATM   24  O1  UNL     1      -8.654   0.175  27.867  1.00  0.00    -0.646 OA
HETATM   25  O2  UNL     1     -10.620   0.627  26.906  1.00  0.00    -0.646 OA
ENDBRANCH  18  23
ENDBRANCH   1  18
BRANCH  17  26
HETATM   26  C13 UNL     1      -7.108  -0.078  24.142  1.00  0.00     0.174 C 
BRANCH  26  27
HETATM   27  S1  UNL     1      -5.949   0.184  25.422  1.00  0.00     0.102 S 
HETATM   28  O4  UNL     1      -4.605   0.417  24.756  1.00  0.00    -0.595 OA
HETATM   29  O5  UNL     1      -6.192   1.341  26.300  1.00  0.00    -0.595 OA
HETATM   30  O6  UNL     1      -5.746  -1.211  26.346  1.00  0.00    -0.595 OA
ENDBRANCH  26  27
ENDBRANCH  17  26
TORSDOF 5
ENDMDL
MODEL 5
REMARK VINA RESULT: -6.272108161      4.198      5.920
REMARK  5 active torsions:
REMARK  status: ('A' for Active; 'I' for Inactive)
REMARK    1  A    between atoms: N1_1  and  C1_5 
REMARK    2  A    between atoms: C1_5  and  C2_6 
REMARK    3  A    between atoms: C1_5  and  C3_9 
REMARK    4  A    between atoms: C12_25  and  C13_26 
REMARK    5  A    between atoms: C13_26  and  S1_27 
ROOT
HETATM    1  C3  UNL     1     -11.104  -1.064  23.897  1.00  0.00     0.125 C 
HETATM    2  N2  UNL     1     -11.038  -1.071  22.480  1.00  0.00    -0.410 N 
ATOM      3  H2  UNL     1     -10.437  -1.741  21.999  1.00  0.00     0.154 HD
HETATM    4  C4  UNL     1     -11.803  -0.156  21.741  1.00  0.00     0.158 C 
HETATM    5  C5  UNL     1     -11.350  -0.268  20.278  1.00  0.00     0.074 C 
HETATM    6  N3  UNL     1     -11.625   0.855  19.490  1.00  0.00    -0.401 N 
ATOM      7  H3  UNL     1     -11.428   0.836  18.490  1.00  0.00     0.158 HD
HETATM    8  C6  UNL     1     -12.174   2.015  20.076  1.00  0.00     0.120 C 
HETATM    9  C7  UNL     1     -11.166   3.058  20.507  1.00  0.00     0.039 C 
HETATM   10  C8  UNL     1      -9.782   2.816  20.024  1.00  0.00     0.115 C 
HETATM   11  N4  UNL     1      -8.903   2.130  20.904  1.00  0.00    -0.419 N 
ATOM     12  H4  UNL     1      -8.483   1.232  20.666  1.00  0.00     0.153 HD
HETATM   13  C9  UNL     1      -8.647   2.792  22.159  1.00  0.00     0.140 C 
HETATM   14  C10 UNL     1      -7.713   1.930  22.981  1.00  0.00     0.186 C 
HETATM   15  O3  UNL     1      -8.365   1.242  23.992  1.00  0.00    -0.389 OA
HETATM   16  C11 UNL     1      -8.848   0.002  23.593  1.00  0.00     0.175 C 
HETATM   17  C12 UNL     1      -9.918  -0.427  24.575  1.00  0.00     0.051 C 
ENDROOT
BRANCH   1  18
HETATM   18  C1  UNL     1     -12.370  -0.487  24.466  1.00  0.00     0.305 C 
BRANCH  18  19
HETATM   19  N1  UNL     1     -12.951  -1.384  25.465  1.00  0.00    -0.063 N 
ATOM     20  H13 UNL     1     -13.875  -1.739  25.218  1.00  0.00     0.275 HD
ATOM     21  H12 UNL     1     -12.492  -2.292  25.524  1.00  0.00     0.275 HD
ATOM     22  H11 UNL     1     -12.929  -0.850  26.334  1.00  0.00     0.275 HD
ENDBRANCH  18  19
BRANCH  18  23
HETATM   23  C2  UNL     1     -12.199   0.788  25.169  1.00  0.00     0.206 C 
HETATM   24  O1  UNL     1     -11.695   1.831  24.709  1.00  0.00    -0.646 OA
HETATM   25  O2  UNL     1     -12.636   0.877  26.498  1.00  0.00    -0.646 OA
ENDBRANCH  18  23
ENDBRANCH   1  18
BRANCH  17  26
HETATM   26  C13 UNL     1      -9.231  -1.424  25.516  1.00  0.00     0.174 C 
BRANCH  26  27
HETATM   27  S1  UNL     1      -9.549  -1.142  27.209  1.00  0.00     0.102 S 
HETATM   28  O4  UNL     1      -9.417   0.352  27.437  1.00  0.00    -0.595 OA
HETATM   29  O5  UNL     1     -10.883  -1.528  27.700  1.00  0.00    -0.595 OA
HETATM   30  O6  UNL     1      -8.355  -1.840  28.171  1.00  0.00    -0.595 OA
ENDBRANCH  26  27
ENDBRANCH  17  26
TORSDOF 5
ENDMDL
