MODEL 1
REMARK VINA RESULT: -8.953360235      0.000      0.000
REMARK  8 active torsions:
REMARK  status: ('A' for Active; 'I' for Inactive)
REMARK    1  A    between atoms: C2_2  and  N1_3 
REMARK    2  A    between atoms: C2_2  and  C3_7 
REMARK    3  A    between atoms: C3_7  and  N2_8 
REMARK    4  A    between atoms: C3_7  and  C4_12 
REMARK    5  A    between atoms: C7_18  and  C8_19 
REMARK    6  A    between atoms: C9_24  and  C10_25 
REMARK    7  A    between atoms: C10_25  and  N8_30 
REMARK    8  A    between atoms: N8_30  and  C12_32 
ROOT
HETATM    1  C10 UNL     1      -9.836   2.365  20.990  1.00  0.00     0.175 C 
HETATM    2  N6  UNL     1     -11.027   2.788  21.013  1.00  0.00    -0.276 N 
ATOM      3  H6  UNL     1     -11.294   3.478  20.311  1.00  0.00     0.179 HD
HETATM    4  C11 UNL     1     -11.988   2.393  21.908  1.00  0.00     0.183 C 
HETATM    5  N7  UNL     1     -12.827   2.062  22.647  1.00  0.00    -0.172 NA
ENDROOT
BRANCH   1   6
HETATM    6  C9  UNL     1      -9.311   1.387  21.924  1.00  0.00     0.168 A 
HETATM    7  N5  UNL     1      -9.675   0.073  21.995  1.00  0.00    -0.281 N 
HETATM    8  N4  UNL     1      -8.978  -0.516  22.940  1.00  0.00    -0.283 N 
ATOM      9  H5  UNL     1     -10.377  -0.379  21.408  1.00  0.00     0.188 HD
HETATM   10  C8  UNL     1      -8.131   0.381  23.526  1.00  0.00     0.137 A 
ATOM     11  H4  UNL     1      -9.058  -1.499  23.198  1.00  0.00     0.188 HD
HETATM   12  N13 UNL     1      -8.360   1.524  22.885  1.00  0.00    -0.323 N 
ATOM     13  H13 UNL     1      -7.878   2.400  23.090  1.00  0.00     0.169 HD
BRANCH  10  14
HETATM   14  C7  UNL     1      -7.205   0.071  24.619  1.00  0.00     0.078 A 
HETATM   15  C6  UNL     1      -7.418  -0.909  25.550  1.00  0.00     0.259 A 
HETATM   16  N3  UNL     1      -6.523  -1.147  26.536  1.00  0.00    -0.332 N 
HETATM   17  O1  UNL     1      -8.481  -1.620  25.494  1.00  0.00    -0.267 OA
HETATM   18  C5  UNL     1      -5.410  -0.422  26.618  1.00  0.00     0.100 A 
ATOM     19  H3  UNL     1      -6.703  -1.883  27.219  1.00  0.00     0.168 HD
HETATM   20  C4  UNL     1      -5.112   0.585  25.724  1.00  0.00    -0.009 A 
HETATM   21  C13 UNL     1      -6.034   0.808  24.731  1.00  0.00     0.031 A 
BRANCH  20  22
HETATM   22  C3  UNL     1      -3.861   1.369  25.850  1.00  0.00     0.247 C 
BRANCH  22  23
HETATM   23  C2  UNL     1      -2.728   0.534  26.411  1.00  0.00     0.214 C 
HETATM   24  C1  UNL     1      -1.421   0.846  25.714  1.00  0.00     0.042 C 
BRANCH  23  25
HETATM   25  N1  UNL     1      -2.620   0.653  27.830  1.00  0.00    -0.073 N 
ATOM     26  H13 UNL     1      -3.511   0.458  28.286  1.00  0.00     0.274 HD
ATOM     27  H12 UNL     1      -2.067  -0.107  28.224  1.00  0.00     0.274 HD
ATOM     28  H11 UNL     1      -2.251   1.563  28.110  1.00  0.00     0.274 HD
ENDBRANCH  23  25
ENDBRANCH  22  23
BRANCH  22  29
HETATM   29  N2  UNL     1      -3.469   2.014  24.617  1.00  0.00    -0.069 N 
ATOM     30  H23 UNL     1      -3.495   3.030  24.699  1.00  0.00     0.275 HD
ATOM     31  H22 UNL     1      -2.472   1.899  24.432  1.00  0.00     0.275 HD
ATOM     32  H21 UNL     1      -4.036   1.686  23.835  1.00  0.00     0.275 HD
ENDBRANCH  22  29
ENDBRANCH  20  22
ENDBRANCH  10  14
ENDBRANCH   1   6
BRANCH   1  33
HETATM   33  N8  UNL     1      -8.996   2.916  19.960  1.00  0.00    -0.169 N 
ATOM     34  H8  UNL     1      -8.129   3.403  20.185  1.00  0.00     0.186 HD
BRANCH  33  35
HETATM   35  C12 UNL     1      -9.385   2.768  18.742  1.00  0.00     0.715 A 
HETATM   36  N9  UNL     1      -9.368   3.699  17.777  1.00  0.00    -0.115 N 
HETATM   37  N10 UNL     1      -9.834   3.210  16.659  1.00  0.00    -0.213 N 
ATOM     38  H9  UNL     1      -9.037   4.656  17.899  1.00  0.00     0.207 HD
HETATM   39  N11 UNL     1     -10.149   1.972  16.901  1.00  0.00    -0.213 N 
ATOM     40  H10 UNL     1      -9.932   3.702  15.771  1.00  0.00     0.210 HD
HETATM   41  N12 UNL     1      -9.891   1.663  18.158  1.00  0.00    -0.115 N 
ATOM     42  H11 UNL     1     -10.542   1.328  16.215  1.00  0.00     0.210 HD
ATOM     43  H12 UNL     1     -10.045   0.759  18.603  1.00  0.00     0.207 HD
ENDBRANCH  33  35
ENDBRANCH   1  33
TORSDOF 8
ENDMDL
MODEL 2
REMARK VINA RESULT: -8.784235874      0.974      1.444
REMARK  8 active torsions:
REMARK  status: ('A' for Active; 'I' for Inactive)
REMARK    1  A    between atoms: C2_2  and  N1_3 
REMARK    2  A    between atoms: C2_2  and  C3_7 
REMARK    3  A    between atoms: C3_7  and  N2_8 
REMARK    4  A    between atoms: C3_7  and  C4_12 
REMARK    5  A    between atoms: C7_18  and  C8_19 
REMARK    6  A    between atoms: C9_24  and  C10_25 
REMARK    7  A    between atoms: C10_25  and  N8_30 
REMARK    8  A    between atoms: N8_30  and  C12_32 
ROOT
HETATM    1  C10 UNL     1     -10.653   1.118  20.716  1.00  0.00     0.175 C 
HETATM    2  N6  UNL     1     -11.774   1.649  20.958  1.00  0.00    -0.276 N 
ATOM      3  H6  UNL     1     -12.529   1.474  20.296  1.00  0.00     0.179 HD
HETATM    4  C11 UNL     1     -12.055   2.441  22.042  1.00  0.00     0.183 C 
HETATM    5  N7  UNL     1     -12.323   3.103  22.963  1.00  0.00    -0.172 NA
ENDROOT
BRANCH   1   6
HETATM    6  C9  UNL     1      -9.486   1.277  21.563  1.00  0.00     0.168 A 
HETATM    7  N5  UNL     1      -8.605   2.318  21.523  1.00  0.00    -0.281 N 
HETATM    8  N4  UNL     1      -7.689   2.143  22.447  1.00  0.00    -0.283 N 
ATOM      9  H5  UNL     1      -8.651   3.107  20.878  1.00  0.00     0.188 HD
HETATM   10  C8  UNL     1      -7.928   0.984  23.130  1.00  0.00     0.137 A 
ATOM     11  H4  UNL     1      -6.912   2.778  22.629  1.00  0.00     0.188 HD
HETATM   12  N13 UNL     1      -9.026   0.485  22.567  1.00  0.00    -0.323 N 
ATOM     13  H13 UNL     1      -9.468  -0.387  22.855  1.00  0.00     0.169 HD
BRANCH  10  14
HETATM   14  C7  UNL     1      -7.105   0.472  24.230  1.00  0.00     0.078 A 
HETATM   15  C6  UNL     1      -7.445  -0.600  25.009  1.00  0.00     0.259 A 
HETATM   16  N3  UNL     1      -6.642  -1.023  26.011  1.00  0.00    -0.332 N 
HETATM   17  O1  UNL     1      -8.544  -1.220  24.793  1.00  0.00    -0.267 OA
HETATM   18  C5  UNL     1      -5.493  -0.396  26.258  1.00  0.00     0.100 A 
ATOM     19  H3  UNL     1      -6.916  -1.825  26.579  1.00  0.00     0.168 HD
HETATM   20  C4  UNL     1      -5.069   0.692  25.525  1.00  0.00    -0.009 A 
HETATM   21  C13 UNL     1      -5.901   1.104  24.512  1.00  0.00     0.031 A 
BRANCH  20  22
HETATM   22  C3  UNL     1      -3.784   1.363  25.831  1.00  0.00     0.247 C 
BRANCH  22  23
HETATM   23  C2  UNL     1      -2.776   0.401  26.426  1.00  0.00     0.214 C 
HETATM   24  C1  UNL     1      -1.413   0.576  25.792  1.00  0.00     0.042 C 
BRANCH  23  25
HETATM   25  N1  UNL     1      -2.720   0.488  27.850  1.00  0.00    -0.073 N 
ATOM     26  H13 UNL     1      -1.786   0.268  28.197  1.00  0.00     0.274 HD
ATOM     27  H12 UNL     1      -2.785   1.456  28.164  1.00  0.00     0.274 HD
ATOM     28  H11 UNL     1      -3.428  -0.094  28.297  1.00  0.00     0.274 HD
ENDBRANCH  23  25
ENDBRANCH  22  23
BRANCH  22  29
HETATM   29  N2  UNL     1      -3.225   2.065  24.698  1.00  0.00    -0.069 N 
ATOM     30  H23 UNL     1      -3.159   1.462  23.877  1.00  0.00     0.275 HD
ATOM     31  H22 UNL     1      -3.875   2.759  24.328  1.00  0.00     0.275 HD
ATOM     32  H21 UNL     1      -2.324   2.480  24.932  1.00  0.00     0.275 HD
ENDBRANCH  22  29
ENDBRANCH  20  22
ENDBRANCH  10  14
ENDBRANCH   1   6
BRANCH   1  33
HETATM   33  N8  UNL     1     -10.583   0.321  19.519  1.00  0.00    -0.169 N 
ATOM     34  H8  UNL     1     -10.651  -0.696  19.553  1.00  0.00     0.186 HD
BRANCH  33  35
HETATM   35  C12 UNL     1     -10.433   0.946  18.405  1.00  0.00     0.715 A 
HETATM   36  N9  UNL     1     -10.901   0.571  17.206  1.00  0.00    -0.115 N 
HETATM   37  N10 UNL     1     -10.566   1.439  16.289  1.00  0.00    -0.213 N 
ATOM     38  H9  UNL     1     -11.444  -0.275  17.033  1.00  0.00     0.207 HD
HETATM   39  N11 UNL     1      -9.886   2.369  16.893  1.00  0.00    -0.213 N 
ATOM     40  H10 UNL     1     -10.792   1.396  15.295  1.00  0.00     0.210 HD
HETATM   41  N12 UNL     1      -9.783   2.106  18.181  1.00  0.00    -0.115 N 
ATOM     42  H11 UNL     1      -9.488   3.187  16.434  1.00  0.00     0.210 HD
ATOM     43  H12 UNL     1      -9.301   2.675  18.878  1.00  0.00     0.207 HD
ENDBRANCH  33  35
ENDBRANCH   1  33
TORSDOF 8
ENDMDL
MODEL 3
REMARK VINA RESULT: -8.700361427      0.885      1.370
REMARK  8 active torsions:
REMARK  status: ('A' for Active; 'I' for Inactive)
REMARK    1  A    between atoms: C2_2  and  N1_3 
REMARK    2  A    between atoms: C2_2  and  C3_7 
REMARK    3  A    between atoms: C3_7  and  N2_8 
REMARK    4  A    between atoms: C3_7  and  C4_12 
REMARK    5  A    between atoms: C7_18  and  C8_19 
REMARK    6  A    between atoms: C9_24  and  C10_25 
REMARK    7  A    between atoms: C10_25  and  N8_30 
REMARK    8  A    between atoms: N8_30  and  C12_32 
ROOT
HETATM    1  C10 UNL     1     -10.257   1.775  20.343  1.00  0.00     0.175 C 
HETATM    2  N6  UNL     1     -11.484   1.821  20.647  1.00  0.00    -0.276 N 
ATOM      3  H6  UNL     1     -12.158   1.769  19.884  1.00  0.00     0.179 HD
HETATM    4  C11 UNL     1     -11.978   1.937  21.921  1.00  0.00     0.183 C 
HETATM    5  N7  UNL     1     -12.423   2.017  22.995  1.00  0.00    -0.172 NA
ENDROOT
BRANCH   1   6
HETATM    6  C9  UNL     1      -9.184   1.841  21.316  1.00  0.00     0.168 A 
HETATM    7  N5  UNL     1      -8.347   2.901  21.513  1.00  0.00    -0.281 N 
HETATM    8  N4  UNL     1      -7.516   2.618  22.489  1.00  0.00    -0.283 N 
ATOM      9  H5  UNL     1      -8.365   3.774  20.986  1.00  0.00     0.188 HD
HETATM   10  C8  UNL     1      -7.770   1.365  22.973  1.00  0.00     0.137 A 
ATOM     11  H4  UNL     1      -6.787   3.241  22.836  1.00  0.00     0.188 HD
HETATM   12  N13 UNL     1      -8.787   0.924  22.238  1.00  0.00    -0.323 N 
ATOM     13  H13 UNL     1      -9.218   0.007  22.353  1.00  0.00     0.169 HD
BRANCH  10  14
HETATM   14  C7  UNL     1      -7.033   0.721  24.065  1.00  0.00     0.078 A 
HETATM   15  C6  UNL     1      -7.466  -0.393  24.730  1.00  0.00     0.259 A 
HETATM   16  N3  UNL     1      -6.740  -0.940  25.731  1.00  0.00    -0.332 N 
HETATM   17  O1  UNL     1      -8.580  -0.936  24.405  1.00  0.00    -0.267 OA
HETATM   18  C5  UNL     1      -5.579  -0.396  26.089  1.00  0.00     0.100 A 
ATOM     19  H3  UNL     1      -7.083  -1.772  26.212  1.00  0.00     0.168 HD
HETATM   20  C4  UNL     1      -5.064   0.727  25.476  1.00  0.00    -0.009 A 
HETATM   21  C13 UNL     1      -5.819   1.265  24.462  1.00  0.00     0.031 A 
BRANCH  20  22
HETATM   22  C3  UNL     1      -3.768   1.302  25.904  1.00  0.00     0.247 C 
BRANCH  22  23
HETATM   23  C2  UNL     1      -2.852   0.248  26.492  1.00  0.00     0.214 C 
HETATM   24  C1  UNL     1      -1.456   0.355  25.918  1.00  0.00     0.042 C 
BRANCH  23  25
HETATM   25  N1  UNL     1      -2.847   0.270  27.919  1.00  0.00    -0.073 N 
ATOM     26  H13 UNL     1      -1.908   0.120  28.288  1.00  0.00     0.274 HD
ATOM     27  H12 UNL     1      -3.011   1.212  28.275  1.00  0.00     0.274 HD
ATOM     28  H11 UNL     1      -3.512  -0.395  28.314  1.00  0.00     0.274 HD
ENDBRANCH  23  25
ENDBRANCH  22  23
BRANCH  22  29
HETATM   29  N2  UNL     1      -3.102   2.043  24.857  1.00  0.00    -0.069 N 
ATOM     30  H23 UNL     1      -3.279   1.638  23.938  1.00  0.00     0.275 HD
ATOM     31  H22 UNL     1      -3.533   2.956  24.710  1.00  0.00     0.275 HD
ATOM     32  H21 UNL     1      -2.103   2.125  25.045  1.00  0.00     0.275 HD
ENDBRANCH  22  29
ENDBRANCH  20  22
ENDBRANCH  10  14
ENDBRANCH   1   6
BRANCH   1  33
HETATM   33  N8  UNL     1      -9.964   1.650  18.939  1.00  0.00    -0.169 N 
ATOM     34  H8  UNL     1      -9.811   0.739  18.507  1.00  0.00     0.186 HD
BRANCH  33  35
HETATM   35  C12 UNL     1      -9.904   2.737  18.253  1.00  0.00     0.715 A 
HETATM   36  N9  UNL     1      -9.847   3.987  18.735  1.00  0.00    -0.115 N 
HETATM   37  N10 UNL     1      -9.794   4.854  17.759  1.00  0.00    -0.213 N 
ATOM     38  H9  UNL     1      -9.846   4.228  19.726  1.00  0.00     0.207 HD
HETATM   39  N11 UNL     1      -9.816   4.167  16.655  1.00  0.00    -0.213 N 
ATOM     40  H10 UNL     1      -9.745   5.869  17.846  1.00  0.00     0.210 HD
HETATM   41  N12 UNL     1      -9.882   2.875  16.912  1.00  0.00    -0.115 N 
ATOM     42  H11 UNL     1      -9.785   4.572  15.719  1.00  0.00     0.210 HD
ATOM     43  H12 UNL     1      -9.911   2.122  16.224  1.00  0.00     0.207 HD
ENDBRANCH  33  35
ENDBRANCH   1  33
TORSDOF 8
ENDMDL
MODEL 4
REMARK VINA RESULT: -8.607701393      1.741      2.553
REMARK  8 active torsions:
REMARK  status: ('A' for Active; 'I' for Inactive)
REMARK    1  A    between atoms: C2_2  and  N1_3 
REMARK    2  A    between atoms: C2_2  and  C3_7 
REMARK    3  A    between atoms: C3_7  and  N2_8 
REMARK    4  A    between atoms: C3_7  and  C4_12 
REMARK    5  A    between atoms: C7_18  and  C8_19 
REMARK    6  A    between atoms: C9_24  and  C10_25 
REMARK    7  A    between atoms: C10_25  and  N8_30 
REMARK    8  A    between atoms: N8_30  and  C12_32 
ROOT
HETATM    1  C10 UNL     1     -10.392   0.688  22.436  1.00  0.00     0.175 C 
HETATM    2  N6  UNL     1     -11.341  -0.128  22.259  1.00  0.00    -0.276 N 
ATOM      3  H6  UNL     1     -12.127   0.183  21.689  1.00  0.00     0.179 HD
HETATM    4  C11 UNL     1     -11.395  -1.399  22.771  1.00  0.00     0.183 C 
HETATM    5  N7  UNL     1     -11.458  -2.488  23.181  1.00  0.00    -0.172 NA
ENDROOT
BRANCH   1   6
HETATM    6  C9  UNL     1      -9.209   0.390  23.222  1.00  0.00     0.168 A 
HETATM    7  N5  UNL     1      -7.991   0.025  22.727  1.00  0.00    -0.281 N 
HETATM    8  N4  UNL     1      -7.154  -0.140  23.724  1.00  0.00    -0.283 N 
ATOM      9  H5  UNL     1      -7.768  -0.099  21.740  1.00  0.00     0.188 HD
HETATM   10  C8  UNL     1      -7.782   0.107  24.911  1.00  0.00     0.137 A 
ATOM     11  H4  UNL     1      -6.176  -0.415  23.627  1.00  0.00     0.188 HD
HETATM   12  N13 UNL     1      -9.028   0.426  24.568  1.00  0.00    -0.323 N 
ATOM     13  H13 UNL     1      -9.759   0.669  25.237  1.00  0.00     0.169 HD
BRANCH  10  14
HETATM   14  C7  UNL     1      -7.151   0.017  26.231  1.00  0.00     0.078 A 
HETATM   15  C6  UNL     1      -7.825   0.143  27.415  1.00  0.00     0.259 A 
HETATM   16  N3  UNL     1      -7.184   0.050  28.602  1.00  0.00    -0.332 N 
HETATM   17  O1  UNL     1      -9.088   0.352  27.408  1.00  0.00    -0.267 OA
HETATM   18  C5  UNL     1      -5.871  -0.167  28.638  1.00  0.00     0.100 A 
ATOM     19  H3  UNL     1      -7.708   0.146  29.472  1.00  0.00     0.168 HD
HETATM   20  C4  UNL     1      -5.110  -0.307  27.495  1.00  0.00    -0.009 A 
HETATM   21  C13 UNL     1      -5.783  -0.209  26.302  1.00  0.00     0.031 A 
BRANCH  20  22
HETATM   22  C3  UNL     1      -3.650  -0.547  27.578  1.00  0.00     0.247 C 
BRANCH  22  23
HETATM   23  C2  UNL     1      -2.870   0.434  26.727  1.00  0.00     0.214 C 
HETATM   24  C1  UNL     1      -2.860   1.812  27.352  1.00  0.00     0.042 C 
BRANCH  23  25
HETATM   25  N1  UNL     1      -1.553  -0.032  26.434  1.00  0.00    -0.073 N 
ATOM     26  H13 UNL     1      -1.081   0.585  25.773  1.00  0.00     0.274 HD
ATOM     27  H12 UNL     1      -0.932   0.086  27.235  1.00  0.00     0.274 HD
ATOM     28  H11 UNL     1      -1.552  -0.998  26.105  1.00  0.00     0.274 HD
ENDBRANCH  23  25
ENDBRANCH  22  23
BRANCH  22  29
HETATM   29  N2  UNL     1      -3.154  -0.567  28.935  1.00  0.00    -0.069 N 
ATOM     30  H23 UNL     1      -2.238  -0.124  29.007  1.00  0.00     0.275 HD
ATOM     31  H22 UNL     1      -3.679   0.067  29.537  1.00  0.00     0.275 HD
ATOM     32  H21 UNL     1      -3.142  -1.516  29.307  1.00  0.00     0.275 HD
ENDBRANCH  22  29
ENDBRANCH  20  22
ENDBRANCH  10  14
ENDBRANCH   1   6
BRANCH   1  33
HETATM   33  N8  UNL     1     -10.543   1.971  21.802  1.00  0.00    -0.169 N 
ATOM     34  H8  UNL     1     -11.045   2.734  22.258  1.00  0.00     0.186 HD
BRANCH  33  35
HETATM   35  C12 UNL     1     -10.020   2.116  20.636  1.00  0.00     0.715 A 
HETATM   36  N9  UNL     1      -8.938   2.846  20.328  1.00  0.00    -0.115 N 
HETATM   37  N10 UNL     1      -8.681   2.771  19.050  1.00  0.00    -0.213 N 
ATOM     38  H9  UNL     1      -8.391   3.386  20.999  1.00  0.00     0.207 HD
HETATM   39  N11 UNL     1      -9.591   1.996  18.536  1.00  0.00    -0.213 N 
ATOM     40  H10 UNL     1      -7.917   3.229  18.552  1.00  0.00     0.210 HD
HETATM   41  N12 UNL     1     -10.424   1.577  19.468  1.00  0.00    -0.115 N 
ATOM     42  H11 UNL     1      -9.652   1.747  17.549  1.00  0.00     0.210 HD
ATOM     43  H12 UNL     1     -11.225   0.959  19.331  1.00  0.00     0.207 HD
ENDBRANCH  33  35
ENDBRANCH   1  33
TORSDOF 8
ENDMDL
MODEL 5
REMARK VINA RESULT: -8.590656149      1.522      2.184
REMARK  8 active torsions:
REMARK  status: ('A' for Active; 'I' for Inactive)
REMARK    1  A    between atoms: C2_2  and  N1_3 
REMARK    2  A    between atoms: C2_2  and  C3_7 
REMARK    3  A    between atoms: C3_7  and  N2_8 
REMARK    4  A    between atoms: C3_7  and  C4_12 
REMARK    5  A    between atoms: C7_18  and  C8_19 
REMARK    6  A    between atoms: C9_24  and  C10_25 
REMARK    7  A    between atoms: C10_25  and  N8_30 
REMARK    8  A    between atoms: N8_30  and  C12_32 
ROOT
HETATM    1  C10 UNL     1     -10.404   1.033  22.302  1.00  0.00     0.175 C 
HETATM    2  N6  UNL     1     -11.193   2.018  22.378  1.00  0.00    -0.276 N 
ATOM      3  H6  UNL     1     -11.608   2.354  21.509  1.00  0.00     0.179 HD
HETATM    4  C11 UNL     1     -11.533   2.671  23.535  1.00  0.00     0.183 C 
HETATM    5  N7  UNL     1     -11.850   3.232  24.506  1.00  0.00    -0.172 NA
ENDROOT
BRANCH   1   6
HETATM    6  C9  UNL     1      -9.736   0.447  23.449  1.00  0.00     0.168 A 
HETATM    7  N5  UNL     1      -9.994  -0.783  23.982  1.00  0.00    -0.281 N 
HETATM    8  N4  UNL     1      -9.184  -0.991  24.994  1.00  0.00    -0.283 N 
ATOM      9  H5  UNL     1     -10.702  -1.436  23.647  1.00  0.00     0.188 HD
HETATM   10  C8  UNL     1      -8.364   0.087  25.169  1.00  0.00     0.137 A 
ATOM     11  H4  UNL     1      -9.169  -1.835  25.567  1.00  0.00     0.188 HD
HETATM   12  N13 UNL     1      -8.727   0.940  24.214  1.00  0.00    -0.323 N 
ATOM     13  H13 UNL     1      -8.299   1.855  24.074  1.00  0.00     0.169 HD
BRANCH  10  14
HETATM   14  C7  UNL     1      -7.336   0.201  26.208  1.00  0.00     0.078 A 
HETATM   15  C6  UNL     1      -7.605   0.335  27.543  1.00  0.00     0.259 A 
HETATM   16  N3  UNL     1      -6.610   0.436  28.453  1.00  0.00    -0.332 N 
HETATM   17  O1  UNL     1      -8.819   0.365  27.947  1.00  0.00    -0.267 OA
HETATM   18  C5  UNL     1      -5.338   0.408  28.060  1.00  0.00     0.100 A 
ATOM     19  H3  UNL     1      -6.835   0.534  29.443  1.00  0.00     0.168 HD
HETATM   20  C4  UNL     1      -4.973   0.276  26.736  1.00  0.00    -0.009 A 
HETATM   21  C13 UNL     1      -6.000   0.175  25.830  1.00  0.00     0.031 A 
BRANCH  20  22
HETATM   22  C3  UNL     1      -3.546   0.248  26.339  1.00  0.00     0.247 C 
BRANCH  22  23
HETATM   23  C2  UNL     1      -3.086   1.589  25.803  1.00  0.00     0.214 C 
HETATM   24  C1  UNL     1      -1.576   1.653  25.714  1.00  0.00     0.042 C 
BRANCH  23  25
HETATM   25  N1  UNL     1      -3.710   1.917  24.561  1.00  0.00    -0.073 N 
ATOM     26  H13 UNL     1      -4.419   2.640  24.684  1.00  0.00     0.274 HD
ATOM     27  H12 UNL     1      -3.070   2.422  23.948  1.00  0.00     0.274 HD
ATOM     28  H11 UNL     1      -4.095   1.095  24.097  1.00  0.00     0.274 HD
ENDBRANCH  23  25
ENDBRANCH  22  23
BRANCH  22  29
HETATM   29  N2  UNL     1      -2.672  -0.216  27.393  1.00  0.00    -0.069 N 
ATOM     30  H23 UNL     1      -2.451   0.529  28.054  1.00  0.00     0.275 HD
ATOM     31  H22 UNL     1      -3.155  -0.850  28.030  1.00  0.00     0.275 HD
ATOM     32  H21 UNL     1      -1.828  -0.640  27.009  1.00  0.00     0.275 HD
ENDBRANCH  22  29
ENDBRANCH  20  22
ENDBRANCH  10  14
ENDBRANCH   1   6
BRANCH   1  33
HETATM   33  N8  UNL     1     -10.191   0.501  20.982  1.00  0.00    -0.169 N 
ATOM     34  H8  UNL     1     -10.345  -0.486  20.775  1.00  0.00     0.186 HD
BRANCH  33  35
HETATM   35  C12 UNL     1      -9.798   1.323  20.074  1.00  0.00     0.715 A 
HETATM   36  N9  UNL     1     -10.099   1.277  18.768  1.00  0.00    -0.115 N 
HETATM   37  N10 UNL     1      -9.532   2.267  18.131  1.00  0.00    -0.213 N 
ATOM     38  H9  UNL     1     -10.689   0.568  18.332  1.00  0.00     0.207 HD
HETATM   39  N11 UNL     1      -8.871   2.947  19.021  1.00  0.00    -0.213 N 
ATOM     40  H10 UNL     1      -9.597   2.467  17.133  1.00  0.00     0.210 HD
HETATM   41  N12 UNL     1      -9.007   2.405  20.215  1.00  0.00    -0.115 N 
ATOM     42  H11 UNL     1      -8.322   3.783  18.822  1.00  0.00     0.210 HD
ATOM     43  H12 UNL     1      -8.591   2.743  21.084  1.00  0.00     0.207 HD
ENDBRANCH  33  35
ENDBRANCH   1  33
TORSDOF 8
ENDMDL
