MODEL 1
REMARK VINA RESULT: -7.109560518      0.000      0.000
REMARK  10 active torsions:
REMARK  status: ('A' for Active; 'I' for Inactive)
REMARK    1  A    between atoms: N1_1  and  C1_5 
REMARK    2  A    between atoms: C3_7  and  N2_8 
REMARK    3  A    between atoms: C4_12  and  O1_13 
REMARK    4  A    between atoms: O1_13  and  C5_14 
REMARK    5  A    between atoms: C6_15  and  N3_16 
REMARK    6  A    between atoms: C10_23  and  O2_24 
REMARK    7  A    between atoms: C11_27  and  O4_28 
REMARK    8  A    between atoms: O4_28  and  C12_29 
REMARK    9  A    between atoms: C13_30  and  N4_31 
REMARK   10  A    between atoms: C16_37  and  N5_38 
ROOT
HETATM    1  C1  UNL     1      -6.760  -1.163  27.629  1.00  0.00     0.240 C 
HETATM    2  C2  UNL     1      -8.187  -1.672  27.603  1.00  0.00     0.075 C 
HETATM    3  C3  UNL     1      -9.125  -0.625  27.010  1.00  0.00     0.240 C 
HETATM    4  C4  UNL     1      -8.773  -0.443  25.583  1.00  0.00     0.294 C 
HETATM    5  O3  UNL     1      -7.479  -0.894  25.358  1.00  0.00    -0.327 OA
HETATM    6  C11 UNL     1      -6.570  -0.432  26.301  1.00  0.00     0.293 C 
ENDROOT
BRANCH   6   7
HETATM    7  O4  UNL     1      -5.307  -0.658  25.835  1.00  0.00    -0.350 OA
BRANCH   7   8
HETATM    8  C12 UNL     1      -4.376   0.290  26.089  1.00  0.00     0.185 C 
HETATM    9  C13 UNL     1      -3.161  -0.145  26.827  1.00  0.00     0.214 C 
HETATM   10  C14 UNL     1      -1.960   0.504  26.173  1.00  0.00     0.037 C 
HETATM   11  C15 UNL     1      -2.604   1.677  25.452  1.00  0.00     0.037 C 
HETATM   12  C16 UNL     1      -3.833   0.986  24.864  1.00  0.00     0.214 C 
BRANCH   9  13
HETATM   13  N4  UNL     1      -3.156   0.303  28.226  1.00  0.00    -0.072 N 
ATOM     14  H43 UNL     1      -2.587   1.141  28.339  1.00  0.00     0.274 HD
ATOM     15  H42 UNL     1      -4.064   0.684  28.491  1.00  0.00     0.274 HD
ATOM     16  H41 UNL     1      -2.863  -0.430  28.873  1.00  0.00     0.274 HD
ENDBRANCH   9  13
BRANCH  12  17
HETATM   17  N5  UNL     1      -4.750   1.913  24.286  1.00  0.00    -0.072 N 
ATOM     18  H53 UNL     1      -4.857   2.735  24.880  1.00  0.00     0.274 HD
ATOM     19  H52 UNL     1      -4.348   2.353  23.459  1.00  0.00     0.274 HD
ATOM     20  H51 UNL     1      -5.659   1.502  24.072  1.00  0.00     0.274 HD
ENDBRANCH  12  17
ENDBRANCH   7   8
ENDBRANCH   6   7
BRANCH   1  21
HETATM   21  N1  UNL     1      -6.648  -0.235  28.723  1.00  0.00    -0.070 N 
ATOM     22  H13 UNL     1      -6.699   0.738  28.423  1.00  0.00     0.274 HD
ATOM     23  H12 UNL     1      -7.469  -0.234  29.328  1.00  0.00     0.274 HD
ATOM     24  H11 UNL     1      -5.786  -0.451  29.224  1.00  0.00     0.274 HD
ENDBRANCH   1  21
BRANCH   4  25
HETATM   25  O1  UNL     1      -8.919   0.828  25.074  1.00  0.00    -0.349 OA
BRANCH  25  26
HETATM   26  C5  UNL     1      -9.244   0.908  23.751  1.00  0.00     0.183 C 
HETATM   27  C6  UNL     1     -10.494   1.710  23.556  1.00  0.00     0.215 C 
HETATM   28  C7  UNL     1     -10.890   1.786  22.083  1.00  0.00     0.035 C 
HETATM   29  C8  UNL     1      -9.655   1.828  21.202  1.00  0.00     0.005 C 
HETATM   30  C9  UNL     1      -8.616   2.584  21.967  1.00  0.00     0.034 C 
HETATM   31  C10 UNL     1      -8.109   1.701  23.084  1.00  0.00     0.149 C 
BRANCH  27  32
HETATM   32  N3  UNL     1     -11.643   1.216  24.267  1.00  0.00    -0.072 N 
ATOM     33  H33 UNL     1     -11.743   0.211  24.122  1.00  0.00     0.274 HD
ATOM     34  H32 UNL     1     -11.471   1.232  25.272  1.00  0.00     0.274 HD
ATOM     35  H31 UNL     1     -12.517   1.694  24.049  1.00  0.00     0.274 HD
ENDBRANCH  27  32
BRANCH  31  36
HETATM   36  O2  UNL     1      -7.151   0.836  22.614  1.00  0.00    -0.393 OA
ATOM     37  H2  UNL     1      -7.362   0.576  21.724  1.00  0.00     0.210 HD
ENDBRANCH  31  36
ENDBRANCH  25  26
ENDBRANCH   4  25
BRANCH   3  38
HETATM   38  N2  UNL     1     -10.462  -1.141  27.226  1.00  0.00    -0.070 N 
ATOM     39  H23 UNL     1     -10.971  -1.337  26.365  1.00  0.00     0.274 HD
ATOM     40  H22 UNL     1     -10.480  -2.092  27.595  1.00  0.00     0.274 HD
ATOM     41  H21 UNL     1     -10.921  -0.457  27.828  1.00  0.00     0.274 HD
ENDBRANCH   3  38
TORSDOF 10
ENDMDL
MODEL 2
REMARK VINA RESULT: -7.035637218      1.234      1.833
REMARK  10 active torsions:
REMARK  status: ('A' for Active; 'I' for Inactive)
REMARK    1  A    between atoms: N1_1  and  C1_5 
REMARK    2  A    between atoms: C3_7  and  N2_8 
REMARK    3  A    between atoms: C4_12  and  O1_13 
REMARK    4  A    between atoms: O1_13  and  C5_14 
REMARK    5  A    between atoms: C6_15  and  N3_16 
REMARK    6  A    between atoms: C10_23  and  O2_24 
REMARK    7  A    between atoms: C11_27  and  O4_28 
REMARK    8  A    between atoms: O4_28  and  C12_29 
REMARK    9  A    between atoms: C13_30  and  N4_31 
REMARK   10  A    between atoms: C16_37  and  N5_38 
ROOT
HETATM    1  C1  UNL     1      -6.766  -1.095  27.710  1.00  0.00     0.240 C 
HETATM    2  C2  UNL     1      -8.192  -1.607  27.691  1.00  0.00     0.075 C 
HETATM    3  C3  UNL     1      -9.123  -0.592  27.034  1.00  0.00     0.240 C 
HETATM    4  C4  UNL     1      -8.753  -0.481  25.604  1.00  0.00     0.294 C 
HETATM    5  O3  UNL     1      -7.455  -0.941  25.419  1.00  0.00    -0.327 OA
HETATM    6  C11 UNL     1      -6.560  -0.430  26.349  1.00  0.00     0.293 C 
ENDROOT
BRANCH   6   7
HETATM    7  O4  UNL     1      -5.290  -0.677  25.912  1.00  0.00    -0.350 OA
BRANCH   7   8
HETATM    8  C12 UNL     1      -4.362   0.280  26.139  1.00  0.00     0.185 C 
HETATM    9  C13 UNL     1      -3.125  -0.143  26.847  1.00  0.00     0.214 C 
HETATM   10  C14 UNL     1      -1.946   0.515  26.161  1.00  0.00     0.037 C 
HETATM   11  C15 UNL     1      -2.619   1.680  25.454  1.00  0.00     0.037 C 
HETATM   12  C16 UNL     1      -3.856   0.976  24.899  1.00  0.00     0.214 C 
BRANCH   9  13
HETATM   13  N4  UNL     1      -3.087   0.308  28.244  1.00  0.00    -0.072 N 
ATOM     14  H43 UNL     1      -3.691   1.118  28.383  1.00  0.00     0.274 HD
ATOM     15  H42 UNL     1      -3.561  -0.356  28.856  1.00  0.00     0.274 HD
ATOM     16  H41 UNL     1      -2.140   0.497  28.572  1.00  0.00     0.274 HD
ENDBRANCH   9  13
BRANCH  12  17
HETATM   17  N5  UNL     1      -4.796   1.894  24.343  1.00  0.00    -0.072 N 
ATOM     18  H53 UNL     1      -5.656   1.415  24.076  1.00  0.00     0.274 HD
ATOM     19  H52 UNL     1      -5.166   2.515  25.063  1.00  0.00     0.274 HD
ATOM     20  H51 UNL     1      -4.423   2.431  23.560  1.00  0.00     0.274 HD
ENDBRANCH  12  17
ENDBRANCH   7   8
ENDBRANCH   6   7
BRANCH   1  21
HETATM   21  N1  UNL     1      -6.669  -0.113  28.757  1.00  0.00    -0.070 N 
ATOM     22  H13 UNL     1      -6.548   0.835  28.401  1.00  0.00     0.274 HD
ATOM     23  H12 UNL     1      -7.553   0.037  29.244  1.00  0.00     0.274 HD
ATOM     24  H11 UNL     1      -5.917  -0.402  29.383  1.00  0.00     0.274 HD
ENDBRANCH   1  21
BRANCH   4  25
HETATM   25  O1  UNL     1      -8.894   0.762  25.031  1.00  0.00    -0.349 OA
BRANCH  25  26
HETATM   26  C5  UNL     1      -9.673   0.819  23.912  1.00  0.00     0.183 C 
HETATM   27  C6  UNL     1      -8.831   0.795  22.673  1.00  0.00     0.215 C 
HETATM   28  C7  UNL     1      -9.684   0.888  21.410  1.00  0.00     0.035 C 
HETATM   29  C8  UNL     1     -11.004   0.166  21.606  1.00  0.00     0.005 C 
HETATM   30  C9  UNL     1     -10.721  -0.998  22.502  1.00  0.00     0.034 C 
HETATM   31  C10 UNL     1     -10.497  -0.479  23.903  1.00  0.00     0.149 C 
BRANCH  27  32
HETATM   32  N3  UNL     1      -7.854   1.848  22.590  1.00  0.00    -0.072 N 
ATOM     33  H33 UNL     1      -8.068   2.583  23.264  1.00  0.00     0.274 HD
ATOM     34  H32 UNL     1      -6.957   1.529  22.956  1.00  0.00     0.274 HD
ATOM     35  H31 UNL     1      -7.734   2.246  21.658  1.00  0.00     0.274 HD
ENDBRANCH  27  32
BRANCH  31  36
HETATM   36  O2  UNL     1     -11.699  -0.270  24.534  1.00  0.00    -0.393 OA
ATOM     37  H2  UNL     1     -12.309  -0.960  24.300  1.00  0.00     0.210 HD
ENDBRANCH  31  36
ENDBRANCH  25  26
ENDBRANCH   4  25
BRANCH   3  38
HETATM   38  N2  UNL     1     -10.462  -1.100  27.259  1.00  0.00    -0.070 N 
ATOM     39  H23 UNL     1     -10.678  -1.941  26.724  1.00  0.00     0.274 HD
ATOM     40  H22 UNL     1     -10.597  -1.509  28.183  1.00  0.00     0.274 HD
ATOM     41  H21 UNL     1     -11.085  -0.316  27.061  1.00  0.00     0.274 HD
ENDBRANCH   3  38
TORSDOF 10
ENDMDL
MODEL 3
REMARK VINA RESULT: -6.927121830      1.580      6.045
REMARK  10 active torsions:
REMARK  status: ('A' for Active; 'I' for Inactive)
REMARK    1  A    between atoms: N1_1  and  C1_5 
REMARK    2  A    between atoms: C3_7  and  N2_8 
REMARK    3  A    between atoms: C4_12  and  O1_13 
REMARK    4  A    between atoms: O1_13  and  C5_14 
REMARK    5  A    between atoms: C6_15  and  N3_16 
REMARK    6  A    between atoms: C10_23  and  O2_24 
REMARK    7  A    between atoms: C11_27  and  O4_28 
REMARK    8  A    between atoms: O4_28  and  C12_29 
REMARK    9  A    between atoms: C13_30  and  N4_31 
REMARK   10  A    between atoms: C16_37  and  N5_38 
ROOT
HETATM    1  C1  UNL     1     -10.279  -0.623  25.609  1.00  0.00     0.240 C 
HETATM    2  C2  UNL     1      -9.925  -1.153  26.983  1.00  0.00     0.075 C 
HETATM    3  C3  UNL     1      -8.460  -1.578  27.039  1.00  0.00     0.240 C 
HETATM    4  C4  UNL     1      -7.621  -0.367  26.885  1.00  0.00     0.294 C 
HETATM    5  O3  UNL     1      -8.365   0.647  26.296  1.00  0.00    -0.327 OA
HETATM    6  C11 UNL     1      -9.079   0.222  25.183  1.00  0.00     0.293 C 
ENDROOT
BRANCH   6   7
HETATM    7  O4  UNL     1      -9.516   1.321  24.501  1.00  0.00    -0.350 OA
BRANCH   7   8
HETATM    8  C12 UNL     1      -9.521   1.248  23.150  1.00  0.00     0.185 C 
HETATM    9  C13 UNL     1     -10.850   1.218  22.486  1.00  0.00     0.214 C 
HETATM   10  C14 UNL     1     -10.787   2.127  21.276  1.00  0.00     0.037 C 
HETATM   11  C15 UNL     1      -9.290   2.193  21.024  1.00  0.00     0.037 C 
HETATM   12  C16 UNL     1      -8.787   2.369  22.455  1.00  0.00     0.214 C 
BRANCH   9  13
HETATM   13  N4  UNL     1     -11.202  -0.114  21.978  1.00  0.00    -0.072 N 
ATOM     14  H43 UNL     1     -10.441  -0.506  21.423  1.00  0.00     0.274 HD
ATOM     15  H42 UNL     1     -11.225  -0.799  22.733  1.00  0.00     0.274 HD
ATOM     16  H41 UNL     1     -12.077  -0.117  21.454  1.00  0.00     0.274 HD
ENDBRANCH   9  13
BRANCH  12  17
HETATM   17  N5  UNL     1      -7.367   2.258  22.547  1.00  0.00    -0.072 N 
ATOM     18  H53 UNL     1      -7.097   1.337  22.892  1.00  0.00     0.274 HD
ATOM     19  H52 UNL     1      -6.946   2.220  21.618  1.00  0.00     0.274 HD
ATOM     20  H51 UNL     1      -6.939   2.994  23.108  1.00  0.00     0.274 HD
ENDBRANCH  12  17
ENDBRANCH   7   8
ENDBRANCH   6   7
BRANCH   1  21
HETATM   21  N1  UNL     1     -10.424  -1.752  24.729  1.00  0.00    -0.070 N 
ATOM     22  H13 UNL     1     -11.149  -2.401  25.034  1.00  0.00     0.274 HD
ATOM     23  H12 UNL     1     -10.836  -1.503  23.829  1.00  0.00     0.274 HD
ATOM     24  H11 UNL     1      -9.509  -2.193  24.638  1.00  0.00     0.274 HD
ENDBRANCH   1  21
BRANCH   4  25
HETATM   25  O1  UNL     1      -6.434  -0.529  26.207  1.00  0.00    -0.349 OA
BRANCH  25  26
HETATM   26  C5  UNL     1      -5.453   0.375  26.496  1.00  0.00     0.183 C 
HETATM   27  C6  UNL     1      -4.331  -0.274  27.246  1.00  0.00     0.215 C 
HETATM   28  C7  UNL     1      -3.237   0.729  27.605  1.00  0.00     0.035 C 
HETATM   29  C8  UNL     1      -3.095   1.772  26.512  1.00  0.00     0.005 C 
HETATM   30  C9  UNL     1      -3.387   1.076  25.222  1.00  0.00     0.034 C 
HETATM   31  C10 UNL     1      -4.874   0.818  25.143  1.00  0.00     0.149 C 
BRANCH  27  32
HETATM   32  N3  UNL     1      -4.721  -0.916  28.474  1.00  0.00    -0.072 N 
ATOM     33  H33 UNL     1      -4.082  -1.681  28.691  1.00  0.00     0.274 HD
ATOM     34  H32 UNL     1      -4.537  -0.303  29.268  1.00  0.00     0.274 HD
ATOM     35  H31 UNL     1      -5.686  -1.244  28.496  1.00  0.00     0.274 HD
ENDBRANCH  27  32
BRANCH  31  36
HETATM   36  O2  UNL     1      -5.531   1.940  24.700  1.00  0.00    -0.393 OA
ATOM     37  H2  UNL     1      -5.038   2.344  23.995  1.00  0.00     0.210 HD
ENDBRANCH  31  36
ENDBRANCH  25  26
ENDBRANCH   4  25
BRANCH   3  38
HETATM   38  N2  UNL     1      -8.303  -2.245  28.316  1.00  0.00    -0.070 N 
ATOM     39  H23 UNL     1      -8.652  -1.705  29.108  1.00  0.00     0.274 HD
ATOM     40  H22 UNL     1      -8.920  -3.048  28.439  1.00  0.00     0.274 HD
ATOM     41  H21 UNL     1      -7.312  -2.475  28.381  1.00  0.00     0.274 HD
ENDBRANCH   3  38
TORSDOF 10
ENDMDL
MODEL 4
REMARK VINA RESULT: -6.735700195      1.757      6.074
REMARK  10 active torsions:
REMARK  status: ('A' for Active; 'I' for Inactive)
REMARK    1  A    between atoms: N1_1  and  C1_5 
REMARK    2  A    between atoms: C3_7  and  N2_8 
REMARK    3  A    between atoms: C4_12  and  O1_13 
REMARK    4  A    between atoms: O1_13  and  C5_14 
REMARK    5  A    between atoms: C6_15  and  N3_16 
REMARK    6  A    between atoms: C10_23  and  O2_24 
REMARK    7  A    between atoms: C11_27  and  O4_28 
REMARK    8  A    between atoms: O4_28  and  C12_29 
REMARK    9  A    between atoms: C13_30  and  N4_31 
REMARK   10  A    between atoms: C16_37  and  N5_38 
ROOT
HETATM    1  C1  UNL     1     -10.245  -0.147  25.604  1.00  0.00     0.240 C 
HETATM    2  C2  UNL     1      -9.636  -0.574  26.923  1.00  0.00     0.075 C 
HETATM    3  C3  UNL     1      -8.264  -1.205  26.708  1.00  0.00     0.240 C 
HETATM    4  C4  UNL     1      -7.347  -0.157  26.202  1.00  0.00     0.294 C 
HETATM    5  O3  UNL     1      -8.084   0.889  25.660  1.00  0.00    -0.327 OA
HETATM    6  C11 UNL     1      -9.090   0.458  24.806  1.00  0.00     0.293 C 
ENDROOT
BRANCH   6   7
HETATM    7  O4  UNL     1      -9.544   1.531  24.094  1.00  0.00    -0.350 OA
BRANCH   7   8
HETATM    8  C12 UNL     1      -9.479   1.449  22.745  1.00  0.00     0.185 C 
HETATM    9  C13 UNL     1     -10.696   0.961  22.044  1.00  0.00     0.214 C 
HETATM   10  C14 UNL     1     -10.907   1.826  20.819  1.00  0.00     0.037 C 
HETATM   11  C15 UNL     1      -9.515   2.397  20.608  1.00  0.00     0.037 C 
HETATM   12  C16 UNL     1      -9.149   2.748  22.049  1.00  0.00     0.214 C 
BRANCH   9  13
HETATM   13  N4  UNL     1     -10.555  -0.415  21.554  1.00  0.00    -0.072 N 
ATOM     14  H43 UNL     1     -10.797  -1.089  22.280  1.00  0.00     0.274 HD
ATOM     15  H42 UNL     1     -11.283  -0.638  20.874  1.00  0.00     0.274 HD
ATOM     16  H41 UNL     1      -9.628  -0.605  21.172  1.00  0.00     0.274 HD
ENDBRANCH   9  13
BRANCH  12  17
HETATM   17  N5  UNL     1      -7.781   3.129  22.182  1.00  0.00    -0.072 N 
ATOM     18  H53 UNL     1      -7.176   2.501  21.651  1.00  0.00     0.274 HD
ATOM     19  H52 UNL     1      -7.598   4.000  21.684  1.00  0.00     0.274 HD
ATOM     20  H51 UNL     1      -7.472   3.194  23.151  1.00  0.00     0.274 HD
ENDBRANCH  12  17
ENDBRANCH   7   8
ENDBRANCH   6   7
BRANCH   1  21
HETATM   21  N1  UNL     1     -10.733  -1.329  24.944  1.00  0.00    -0.070 N 
ATOM     22  H13 UNL     1     -10.006  -1.821  24.426  1.00  0.00     0.274 HD
ATOM     23  H12 UNL     1     -10.966  -2.079  25.595  1.00  0.00     0.274 HD
ATOM     24  H11 UNL     1     -11.521  -1.053  24.358  1.00  0.00     0.274 HD
ENDBRANCH   1  21
BRANCH   4  25
HETATM   25  O1  UNL     1      -6.387  -0.565  25.305  1.00  0.00    -0.349 OA
BRANCH  25  26
HETATM   26  C5  UNL     1      -5.112  -0.154  25.566  1.00  0.00     0.183 C 
HETATM   27  C6  UNL     1      -4.813   1.138  24.868  1.00  0.00     0.215 C 
HETATM   28  C7  UNL     1      -3.380   1.599  25.125  1.00  0.00     0.035 C 
HETATM   29  C8  UNL     1      -2.944   1.220  26.528  1.00  0.00     0.005 C 
HETATM   30  C9  UNL     1      -4.162   1.315  27.390  1.00  0.00     0.034 C 
HETATM   31  C10 UNL     1      -5.064   0.145  27.073  1.00  0.00     0.149 C 
BRANCH  27  32
HETATM   32  N3  UNL     1      -4.986   1.103  23.440  1.00  0.00    -0.072 N 
ATOM     33  H33 UNL     1      -5.747   1.723  23.161  1.00  0.00     0.274 HD
ATOM     34  H32 UNL     1      -4.203   1.565  22.977  1.00  0.00     0.274 HD
ATOM     35  H31 UNL     1      -5.128   0.171  23.050  1.00  0.00     0.274 HD
ENDBRANCH  27  32
BRANCH  31  36
HETATM   36  O2  UNL     1      -4.653  -0.974  27.756  1.00  0.00    -0.393 OA
ATOM     37  H2  UNL     1      -4.716  -0.821  28.692  1.00  0.00     0.210 HD
ENDBRANCH  31  36
ENDBRANCH  25  26
ENDBRANCH   4  25
BRANCH   3  38
HETATM   38  N2  UNL     1      -7.885  -1.748  27.997  1.00  0.00    -0.070 N 
ATOM     39  H23 UNL     1      -8.630  -1.713  28.692  1.00  0.00     0.274 HD
ATOM     40  H22 UNL     1      -7.767  -2.761  27.997  1.00  0.00     0.274 HD
ATOM     41  H21 UNL     1      -7.045  -1.236  28.269  1.00  0.00     0.274 HD
ENDBRANCH   3  38
TORSDOF 10
ENDMDL
MODEL 5
REMARK VINA RESULT: -6.724749751      0.971      1.799
REMARK  10 active torsions:
REMARK  status: ('A' for Active; 'I' for Inactive)
REMARK    1  A    between atoms: N1_1  and  C1_5 
REMARK    2  A    between atoms: C3_7  and  N2_8 
REMARK    3  A    between atoms: C4_12  and  O1_13 
REMARK    4  A    between atoms: O1_13  and  C5_14 
REMARK    5  A    between atoms: C6_15  and  N3_16 
REMARK    6  A    between atoms: C10_23  and  O2_24 
REMARK    7  A    between atoms: C11_27  and  O4_28 
REMARK    8  A    between atoms: O4_28  and  C12_29 
REMARK    9  A    between atoms: C13_30  and  N4_31 
REMARK   10  A    between atoms: C16_37  and  N5_38 
ROOT
HETATM    1  C1  UNL     1      -6.444  -0.565  28.022  1.00  0.00     0.240 C 
HETATM    2  C2  UNL     1      -7.122  -1.704  27.289  1.00  0.00     0.075 C 
HETATM    3  C3  UNL     1      -8.337  -1.204  26.514  1.00  0.00     0.240 C 
HETATM    4  C4  UNL     1      -7.861  -0.305  25.437  1.00  0.00     0.294 C 
HETATM    5  O3  UNL     1      -6.586   0.156  25.740  1.00  0.00    -0.327 OA
HETATM    6  C11 UNL     1      -6.470   0.611  27.047  1.00  0.00     0.293 C 
ENDROOT
BRANCH   6   7
HETATM    7  O4  UNL     1      -5.307   1.318  27.159  1.00  0.00    -0.350 OA
BRANCH   7   8
HETATM    8  C12 UNL     1      -4.234   0.853  26.479  1.00  0.00     0.185 C 
HETATM    9  C13 UNL     1      -3.775   1.662  25.318  1.00  0.00     0.214 C 
HETATM   10  C14 UNL     1      -2.262   1.720  25.360  1.00  0.00     0.037 C 
HETATM   11  C15 UNL     1      -1.935   0.510  26.219  1.00  0.00     0.037 C 
HETATM   12  C16 UNL     1      -2.989   0.668  27.313  1.00  0.00     0.214 C 
BRANCH   9  13
HETATM   13  N4  UNL     1      -4.125   1.054  24.029  1.00  0.00    -0.072 N 
ATOM     14  H43 UNL     1      -4.215   0.041  24.114  1.00  0.00     0.274 HD
ATOM     15  H42 UNL     1      -5.083   1.282  23.764  1.00  0.00     0.274 HD
ATOM     16  H41 UNL     1      -3.471   1.302  23.286  1.00  0.00     0.274 HD
ENDBRANCH   9  13
BRANCH  12  17
HETATM   17  N5  UNL     1      -3.050  -0.469  28.173  1.00  0.00    -0.072 N 
ATOM     18  H53 UNL     1      -3.850  -0.406  28.802  1.00  0.00     0.274 HD
ATOM     19  H52 UNL     1      -3.311  -1.305  27.651  1.00  0.00     0.274 HD
ATOM     20  H51 UNL     1      -2.189  -0.624  28.699  1.00  0.00     0.274 HD
ENDBRANCH  12  17
ENDBRANCH   7   8
ENDBRANCH   6   7
BRANCH   1  21
HETATM   21  N1  UNL     1      -7.238  -0.260  29.182  1.00  0.00    -0.070 N 
ATOM     22  H13 UNL     1      -8.194   0.007  28.949  1.00  0.00     0.274 HD
ATOM     23  H12 UNL     1      -7.459  -1.085  29.740  1.00  0.00     0.274 HD
ATOM     24  H11 UNL     1      -6.745   0.458  29.715  1.00  0.00     0.274 HD
ENDBRANCH   1  21
BRANCH   4  25
HETATM   25  O1  UNL     1      -8.678   0.756  25.121  1.00  0.00    -0.349 OA
BRANCH  25  26
HETATM   26  C5  UNL     1      -9.008   0.885  23.803  1.00  0.00     0.183 C 
HETATM   27  C6  UNL     1     -10.402   1.412  23.650  1.00  0.00     0.215 C 
HETATM   28  C7  UNL     1     -10.800   1.535  22.181  1.00  0.00     0.035 C 
HETATM   29  C8  UNL     1      -9.600   1.922  21.336  1.00  0.00     0.005 C 
HETATM   30  C9  UNL     1      -8.752   2.812  22.189  1.00  0.00     0.034 C 
HETATM   31  C10 UNL     1      -8.070   1.961  23.235  1.00  0.00     0.149 C 
BRANCH  27  32
HETATM   32  N3  UNL     1     -11.419   0.619  24.288  1.00  0.00    -0.072 N 
ATOM     33  H33 UNL     1     -11.100  -0.345  24.395  1.00  0.00     0.274 HD
ATOM     34  H32 UNL     1     -11.511   0.884  25.268  1.00  0.00     0.274 HD
ATOM     35  H31 UNL     1     -12.328   0.642  23.828  1.00  0.00     0.274 HD
ENDBRANCH  27  32
BRANCH  31  36
HETATM   36  O2  UNL     1      -6.946   1.370  22.713  1.00  0.00    -0.393 OA
ATOM     37  H2  UNL     1      -6.339   2.039  22.417  1.00  0.00     0.210 HD
ENDBRANCH  31  36
ENDBRANCH  25  26
ENDBRANCH   4  25
BRANCH   3  38
HETATM   38  N2  UNL     1      -9.003  -2.398  26.033  1.00  0.00    -0.070 N 
ATOM     39  H23 UNL     1      -9.454  -2.280  25.126  1.00  0.00     0.274 HD
ATOM     40  H22 UNL     1      -8.363  -3.141  25.753  1.00  0.00     0.274 HD
ATOM     41  H21 UNL     1      -9.645  -2.668  26.779  1.00  0.00     0.274 HD
ENDBRANCH   3  38
TORSDOF 10
ENDMDL
