MODEL 1
REMARK VINA RESULT: -7.775964698      0.000      0.000
REMARK  10 active torsions:
REMARK  status: ('A' for Active; 'I' for Inactive)
REMARK    1  A    between atoms: N1_1  and  N2_4 
REMARK    2  A    between atoms: N2_4  and  C1_5 
REMARK    3  A    between atoms: C1_5  and  N3_6 
REMARK    4  A    between atoms: C1_5  and  C2_10 
REMARK    5  A    between atoms: C2_10  and  C3_12 
REMARK       I    between atoms: C3_12  and  N4_14 
REMARK    6  A    between atoms: N4_14  and  N5_16 
REMARK    7  A    between atoms: N5_16  and  C4_18 
REMARK    8  A    between atoms: C4_18  and  N6_20 
REMARK    9  A    between atoms: N6_20  and  N7_22 
REMARK   10  A    between atoms: C5_24  and  C6_25 
ROOT
HETATM    1  N5  UNL     1     -10.050  -1.171  24.393  1.00  0.00    -0.272 N 
ATOM      2  H5  UNL     1     -10.864  -1.521  23.888  1.00  0.00     0.189 HD
ENDROOT
BRANCH   1   3
HETATM    3  N4  UNL     1      -9.102  -0.384  23.753  1.00  0.00    -0.261 N 
HETATM    4  C3  UNL     1      -9.284   1.019  23.715  1.00  0.00     0.309 C 
HETATM    5  O2  UNL     1     -10.307   1.506  24.267  1.00  0.00    -0.263 OA
ATOM      6  H4  UNL     1      -8.285  -0.811  23.317  1.00  0.00     0.190 HD
BRANCH   4   7
HETATM    7  C2  UNL     1      -8.307   1.886  23.048  1.00  0.00     0.265 C 
HETATM    8  O1  UNL     1      -7.100   1.572  23.122  1.00  0.00    -0.283 OA
BRANCH   7   9
HETATM    9  C1  UNL     1      -8.839   3.080  22.335  1.00  0.00     0.373 C 
BRANCH   9  10
HETATM   10  N2  UNL     1      -8.147   4.289  22.657  1.00  0.00    -0.106 NA
BRANCH  10  11
HETATM   11  N1  UNL     1      -6.823   4.236  22.249  1.00  0.00    -0.346 N 
ATOM     12  H12 UNL     1      -6.530   3.899  21.332  1.00  0.00     0.172 HD
ATOM     13  H11 UNL     1      -6.196   4.574  22.979  1.00  0.00     0.172 HD
ENDBRANCH  10  11
ENDBRANCH   9  10
BRANCH   9  14
HETATM   14  N3  UNL     1      -8.694   2.763  20.903  1.00  0.00    -0.052 N 
ATOM     15  H33 UNL     1      -7.845   3.167  20.510  1.00  0.00     0.276 HD
ATOM     16  H32 UNL     1      -8.477   1.777  20.754  1.00  0.00     0.276 HD
ATOM     17  H31 UNL     1      -9.525   3.050  20.385  1.00  0.00     0.276 HD
ENDBRANCH   9  14
ENDBRANCH   7   9
ENDBRANCH   4   7
ENDBRANCH   1   3
BRANCH   1  18
HETATM   18  C4  UNL     1      -9.862  -1.478  25.765  1.00  0.00     0.205 C 
HETATM   19  S1  UNL     1     -10.872  -0.886  26.905  1.00  0.00    -0.038 SA
BRANCH  18  20
HETATM   20  N6  UNL     1      -8.790  -2.308  26.159  1.00  0.00    -0.275 N 
ATOM     21  H6  UNL     1      -8.956  -3.285  26.399  1.00  0.00     0.189 HD
BRANCH  20  22
HETATM   22  N7  UNL     1      -7.508  -1.779  26.215  1.00  0.00    -0.309 N 
HETATM   23  C5  UNL     1      -7.143  -0.990  27.197  1.00  0.00     0.118 C 
ATOM     24  H7  UNL     1      -6.839  -2.008  25.480  1.00  0.00     0.186 HD
BRANCH  23  25
HETATM   25  C6  UNL     1      -5.774  -0.498  27.147  1.00  0.00    -0.017 A 
HETATM   26  C7  UNL     1      -4.940  -0.770  28.205  1.00  0.00     0.016 A 
HETATM   27  C8  UNL     1      -3.628  -0.325  28.206  1.00  0.00     0.040 A 
HETATM   28  C9  UNL     1      -3.120   0.404  27.144  1.00  0.00     0.105 A 
HETATM   29  C10 UNL     1      -3.954   0.677  26.081  1.00  0.00     0.105 A 
HETATM   30  O4  UNL     1      -1.874   0.957  26.894  1.00  0.00    -0.323 OA
HETATM   31  C11 UNL     1      -5.255   0.230  26.092  1.00  0.00     0.052 A 
HETATM   32  O3  UNL     1      -3.206   1.407  25.173  1.00  0.00    -0.323 OA
HETATM   33  C12 UNL     1      -1.878   1.558  25.635  1.00  0.00     0.352 A 
ENDBRANCH  23  25
ENDBRANCH  20  22
ENDBRANCH  18  20
ENDBRANCH   1  18
TORSDOF 10
ENDMDL
MODEL 2
REMARK VINA RESULT: -7.750177012      0.926      1.275
REMARK  10 active torsions:
REMARK  status: ('A' for Active; 'I' for Inactive)
REMARK    1  A    between atoms: N1_1  and  N2_4 
REMARK    2  A    between atoms: N2_4  and  C1_5 
REMARK    3  A    between atoms: C1_5  and  N3_6 
REMARK    4  A    between atoms: C1_5  and  C2_10 
REMARK    5  A    between atoms: C2_10  and  C3_12 
REMARK       I    between atoms: C3_12  and  N4_14 
REMARK    6  A    between atoms: N4_14  and  N5_16 
REMARK    7  A    between atoms: N5_16  and  C4_18 
REMARK    8  A    between atoms: C4_18  and  N6_20 
REMARK    9  A    between atoms: N6_20  and  N7_22 
REMARK   10  A    between atoms: C5_24  and  C6_25 
ROOT
HETATM    1  N5  UNL     1     -10.023  -0.593  23.593  1.00  0.00    -0.272 N 
ATOM      2  H5  UNL     1      -9.615  -1.163  22.853  1.00  0.00     0.189 HD
ENDROOT
BRANCH   1   3
HETATM    3  N4  UNL     1     -10.427   0.712  23.344  1.00  0.00    -0.261 N 
HETATM    4  C3  UNL     1      -9.480   1.758  23.450  1.00  0.00     0.309 C 
HETATM    5  O2  UNL     1      -8.297   1.466  23.768  1.00  0.00    -0.263 OA
ATOM      6  H4  UNL     1     -11.394   0.914  23.088  1.00  0.00     0.190 HD
BRANCH   4   7
HETATM    7  C2  UNL     1      -9.866   3.150  23.196  1.00  0.00     0.265 C 
HETATM    8  O1  UNL     1     -10.819   3.622  23.853  1.00  0.00    -0.283 OA
BRANCH   7   9
HETATM    9  C1  UNL     1      -9.085   3.891  22.168  1.00  0.00     0.373 C 
BRANCH   9  10
HETATM   10  N2  UNL     1      -7.947   4.573  22.702  1.00  0.00    -0.106 NA
BRANCH  10  11
HETATM   11  N1  UNL     1      -6.765   3.964  22.311  1.00  0.00    -0.346 N 
ATOM     12  H12 UNL     1      -6.609   3.586  21.377  1.00  0.00     0.172 HD
ATOM     13  H11 UNL     1      -6.087   3.947  23.073  1.00  0.00     0.172 HD
ENDBRANCH  10  11
ENDBRANCH   9  10
BRANCH   9  14
HETATM   14  N3  UNL     1      -8.667   2.865  21.196  1.00  0.00    -0.052 N 
ATOM     15  H33 UNL     1      -8.071   2.158  21.625  1.00  0.00     0.276 HD
ATOM     16  H32 UNL     1      -9.445   2.264  20.923  1.00  0.00     0.276 HD
ATOM     17  H31 UNL     1      -8.221   3.296  20.387  1.00  0.00     0.276 HD
ENDBRANCH   9  14
ENDBRANCH   7   9
ENDBRANCH   4   7
ENDBRANCH   1   3
BRANCH   1  18
HETATM   18  C4  UNL     1     -10.191  -1.116  24.901  1.00  0.00     0.205 C 
HETATM   19  S1  UNL     1     -11.583  -0.887  25.726  1.00  0.00    -0.038 SA
BRANCH  18  20
HETATM   20  N6  UNL     1      -9.146  -1.848  25.504  1.00  0.00    -0.275 N 
ATOM     21  H6  UNL     1      -9.290  -2.818  25.784  1.00  0.00     0.189 HD
BRANCH  20  22
HETATM   22  N7  UNL     1      -7.919  -1.233  25.711  1.00  0.00    -0.309 N 
HETATM   23  C5  UNL     1      -7.156  -1.566  26.726  1.00  0.00     0.118 C 
ATOM     24  H7  UNL     1      -7.605  -0.511  25.064  1.00  0.00     0.186 HD
BRANCH  23  25
HETATM   25  C6  UNL     1      -5.894  -0.851  26.838  1.00  0.00    -0.017 A 
HETATM   26  C7  UNL     1      -5.229  -0.878  28.041  1.00  0.00     0.016 A 
HETATM   27  C8  UNL     1      -4.023  -0.215  28.200  1.00  0.00     0.040 A 
HETATM   28  C9  UNL     1      -3.454   0.493  27.154  1.00  0.00     0.105 A 
HETATM   29  C10 UNL     1      -4.118   0.521  25.947  1.00  0.00     0.105 A 
HETATM   30  O4  UNL     1      -2.285   1.229  27.043  1.00  0.00    -0.323 OA
HETATM   31  C11 UNL     1      -5.315  -0.142  25.802  1.00  0.00     0.052 A 
HETATM   32  O3  UNL     1      -3.343   1.285  25.090  1.00  0.00    -0.323 OA
HETATM   33  C12 UNL     1      -2.159   1.704  25.739  1.00  0.00     0.352 A 
ENDBRANCH  23  25
ENDBRANCH  20  22
ENDBRANCH  18  20
ENDBRANCH   1  18
TORSDOF 10
ENDMDL
MODEL 3
REMARK VINA RESULT: -7.506966931      1.557      2.068
REMARK  10 active torsions:
REMARK  status: ('A' for Active; 'I' for Inactive)
REMARK    1  A    between atoms: N1_1  and  N2_4 
REMARK    2  A    between atoms: N2_4  and  C1_5 
REMARK    3  A    between atoms: C1_5  and  N3_6 
REMARK    4  A    between atoms: C1_5  and  C2_10 
REMARK    5  A    between atoms: C2_10  and  C3_12 
REMARK       I    between atoms: C3_12  and  N4_14 
REMARK    6  A    between atoms: N4_14  and  N5_16 
REMARK    7  A    between atoms: N5_16  and  C4_18 
REMARK    8  A    between atoms: C4_18  and  N6_20 
REMARK    9  A    between atoms: N6_20  and  N7_22 
REMARK   10  A    between atoms: C5_24  and  C6_25 
ROOT
HETATM    1  N5  UNL     1      -9.904  -0.582  22.694  1.00  0.00    -0.272 N 
ATOM      2  H5  UNL     1      -9.077  -0.889  22.183  1.00  0.00     0.189 HD
ENDROOT
BRANCH   1   3
HETATM    3  N4  UNL     1     -10.322   0.741  22.642  1.00  0.00    -0.261 N 
HETATM    4  C3  UNL     1      -9.485   1.748  23.177  1.00  0.00     0.309 C 
HETATM    5  O2  UNL     1      -8.384   1.406  23.685  1.00  0.00    -0.263 OA
ATOM      6  H4  UNL     1     -11.220   0.983  22.222  1.00  0.00     0.190 HD
BRANCH   4   7
HETATM    7  C2  UNL     1      -9.890   3.158  23.142  1.00  0.00     0.265 C 
HETATM    8  O1  UNL     1     -10.822   3.518  23.892  1.00  0.00    -0.283 OA
BRANCH   7   9
HETATM    9  C1  UNL     1      -9.150   4.050  22.208  1.00  0.00     0.373 C 
BRANCH   9  10
HETATM   10  N2  UNL     1      -7.991   4.650  22.793  1.00  0.00    -0.106 NA
BRANCH  10  11
HETATM   11  N1  UNL     1      -6.828   4.041  22.348  1.00  0.00    -0.346 N 
ATOM     12  H12 UNL     1      -6.024   3.857  22.948  1.00  0.00     0.172 HD
ATOM     13  H11 UNL     1      -6.888   3.807  21.357  1.00  0.00     0.172 HD
ENDBRANCH  10  11
ENDBRANCH   9  10
BRANCH   9  14
HETATM   14  N3  UNL     1      -8.772   3.185  21.076  1.00  0.00    -0.052 N 
ATOM     15  H33 UNL     1      -8.733   2.203  21.347  1.00  0.00     0.276 HD
ATOM     16  H32 UNL     1      -9.517   3.123  20.382  1.00  0.00     0.276 HD
ATOM     17  H31 UNL     1      -7.894   3.499  20.661  1.00  0.00     0.276 HD
ENDBRANCH   9  14
ENDBRANCH   7   9
ENDBRANCH   4   7
ENDBRANCH   1   3
BRANCH   1  18
HETATM   18  C4  UNL     1     -10.654  -1.499  23.475  1.00  0.00     0.205 C 
HETATM   19  S1  UNL     1     -11.908  -2.324  22.830  1.00  0.00    -0.038 SA
BRANCH  18  20
HETATM   20  N6  UNL     1     -10.316  -1.709  24.829  1.00  0.00    -0.275 N 
ATOM     21  H6  UNL     1     -10.968  -2.180  25.456  1.00  0.00     0.189 HD
BRANCH  20  22
HETATM   22  N7  UNL     1      -9.086  -1.267  25.297  1.00  0.00    -0.309 N 
HETATM   23  C5  UNL     1      -8.605  -1.689  26.443  1.00  0.00     0.118 C 
ATOM     24  H7  UNL     1      -8.547  -0.604  24.741  1.00  0.00     0.186 HD
BRANCH  23  25
HETATM   25  C6  UNL     1      -7.307  -1.156  26.827  1.00  0.00    -0.017 A 
HETATM   26  C7  UNL     1      -7.027  -1.011  28.165  1.00  0.00     0.016 A 
HETATM   27  C8  UNL     1      -5.806  -0.508  28.583  1.00  0.00     0.040 A 
HETATM   28  C9  UNL     1      -4.834  -0.138  27.668  1.00  0.00     0.105 A 
HETATM   29  C10 UNL     1      -5.112  -0.283  26.326  1.00  0.00     0.105 A 
HETATM   30  O4  UNL     1      -3.557   0.380  27.811  1.00  0.00    -0.323 OA
HETATM   31  C11 UNL     1      -6.329  -0.784  25.923  1.00  0.00     0.052 A 
HETATM   32  O3  UNL     1      -3.990   0.153  25.643  1.00  0.00    -0.323 OA
HETATM   33  C12 UNL     1      -2.976   0.532  26.553  1.00  0.00     0.352 A 
ENDBRANCH  23  25
ENDBRANCH  20  22
ENDBRANCH  18  20
ENDBRANCH   1  18
TORSDOF 10
ENDMDL
MODEL 4
REMARK VINA RESULT: -7.495701171      1.378      1.482
REMARK  10 active torsions:
REMARK  status: ('A' for Active; 'I' for Inactive)
REMARK    1  A    between atoms: N1_1  and  N2_4 
REMARK    2  A    between atoms: N2_4  and  C1_5 
REMARK    3  A    between atoms: C1_5  and  N3_6 
REMARK    4  A    between atoms: C1_5  and  C2_10 
REMARK    5  A    between atoms: C2_10  and  C3_12 
REMARK       I    between atoms: C3_12  and  N4_14 
REMARK    6  A    between atoms: N4_14  and  N5_16 
REMARK    7  A    between atoms: N5_16  and  C4_18 
REMARK    8  A    between atoms: C4_18  and  N6_20 
REMARK    9  A    between atoms: N6_20  and  N7_22 
REMARK   10  A    between atoms: C5_24  and  C6_25 
ROOT
HETATM    1  N5  UNL     1     -10.304   0.518  24.894  1.00  0.00    -0.272 N 
ATOM      2  H5  UNL     1     -10.377   0.854  25.854  1.00  0.00     0.189 HD
ENDROOT
BRANCH   1   3
HETATM    3  N4  UNL     1     -10.358   1.403  23.826  1.00  0.00    -0.261 N 
HETATM    4  C3  UNL     1      -9.151   1.867  23.253  1.00  0.00     0.309 C 
HETATM    5  O2  UNL     1      -8.061   1.457  23.737  1.00  0.00    -0.263 OA
ATOM      6  H4  UNL     1     -11.258   1.714  23.458  1.00  0.00     0.190 HD
BRANCH   4   7
HETATM    7  C2  UNL     1      -9.165   2.804  22.124  1.00  0.00     0.265 C 
HETATM    8  O1  UNL     1      -9.094   2.330  20.970  1.00  0.00    -0.283 OA
BRANCH   7   9
HETATM    9  C1  UNL     1      -9.261   4.253  22.451  1.00  0.00     0.373 C 
BRANCH   9  10
HETATM   10  N2  UNL     1      -8.001   4.846  22.778  1.00  0.00    -0.106 NA
BRANCH  10  11
HETATM   11  N1  UNL     1      -6.947   4.107  22.263  1.00  0.00    -0.346 N 
ATOM     12  H12 UNL     1      -5.988   4.185  22.601  1.00  0.00     0.172 HD
ATOM     13  H11 UNL     1      -7.259   3.488  21.515  1.00  0.00     0.172 HD
ENDBRANCH  10  11
ENDBRANCH   9  10
BRANCH   9  14
HETATM   14  N3  UNL     1      -9.832   4.878  21.243  1.00  0.00    -0.052 N 
ATOM     15  H33 UNL     1      -9.358   4.565  20.396  1.00  0.00     0.276 HD
ATOM     16  H32 UNL     1     -10.764   4.520  21.038  1.00  0.00     0.276 HD
ATOM     17  H31 UNL     1      -9.826   5.894  21.327  1.00  0.00     0.276 HD
ENDBRANCH   9  14
ENDBRANCH   7   9
ENDBRANCH   4   7
ENDBRANCH   1   3
BRANCH   1  18
HETATM   18  C4  UNL     1     -10.143  -0.864  24.621  1.00  0.00     0.205 C 
HETATM   19  S1  UNL     1     -11.085  -1.619  23.519  1.00  0.00    -0.038 SA
BRANCH  18  20
HETATM   20  N6  UNL     1      -9.157  -1.606  25.306  1.00  0.00    -0.275 N 
ATOM     21  H6  UNL     1      -9.338  -2.569  25.589  1.00  0.00     0.189 HD
BRANCH  20  22
HETATM   22  N7  UNL     1      -7.936  -1.010  25.590  1.00  0.00    -0.309 N 
HETATM   23  C5  UNL     1      -7.094  -1.556  26.435  1.00  0.00     0.118 C 
ATOM     24  H7  UNL     1      -7.688  -0.132  25.133  1.00  0.00     0.186 HD
BRANCH  23  25
HETATM   25  C6  UNL     1      -5.847  -0.838  26.650  1.00  0.00    -0.017 A 
HETATM   26  C7  UNL     1      -5.299  -0.839  27.910  1.00  0.00     0.016 A 
HETATM   27  C8  UNL     1      -4.112  -0.171  28.168  1.00  0.00     0.040 A 
HETATM   28  C9  UNL     1      -3.446   0.515  27.166  1.00  0.00     0.105 A 
HETATM   29  C10 UNL     1      -3.994   0.517  25.901  1.00  0.00     0.105 A 
HETATM   30  O4  UNL     1      -2.272   1.250  27.150  1.00  0.00    -0.323 OA
HETATM   31  C11 UNL     1      -5.173  -0.150  25.659  1.00  0.00     0.052 A 
HETATM   32  O3  UNL     1      -3.142   1.264  25.106  1.00  0.00    -0.323 OA
HETATM   33  C12 UNL     1      -2.023   1.698  25.854  1.00  0.00     0.352 A 
ENDBRANCH  23  25
ENDBRANCH  20  22
ENDBRANCH  18  20
ENDBRANCH   1  18
TORSDOF 10
ENDMDL
MODEL 5
REMARK VINA RESULT: -7.491739366      1.305      1.378
REMARK  10 active torsions:
REMARK  status: ('A' for Active; 'I' for Inactive)
REMARK    1  A    between atoms: N1_1  and  N2_4 
REMARK    2  A    between atoms: N2_4  and  C1_5 
REMARK    3  A    between atoms: C1_5  and  N3_6 
REMARK    4  A    between atoms: C1_5  and  C2_10 
REMARK    5  A    between atoms: C2_10  and  C3_12 
REMARK       I    between atoms: C3_12  and  N4_14 
REMARK    6  A    between atoms: N4_14  and  N5_16 
REMARK    7  A    between atoms: N5_16  and  C4_18 
REMARK    8  A    between atoms: C4_18  and  N6_20 
REMARK    9  A    between atoms: N6_20  and  N7_22 
REMARK   10  A    between atoms: C5_24  and  C6_25 
ROOT
HETATM    1  N5  UNL     1     -10.062  -1.102  24.338  1.00  0.00    -0.272 N 
ATOM      2  H5  UNL     1     -10.502  -1.749  23.685  1.00  0.00     0.189 HD
ENDROOT
BRANCH   1   3
HETATM    3  N4  UNL     1      -9.598   0.134  23.908  1.00  0.00    -0.261 N 
HETATM    4  C3  UNL     1      -9.447   0.369  22.521  1.00  0.00     0.309 C 
HETATM    5  O2  UNL     1      -9.742  -0.559  21.721  1.00  0.00    -0.263 OA
ATOM      6  H4  UNL     1      -9.369   0.864  24.584  1.00  0.00     0.190 HD
BRANCH   4   7
HETATM    7  C2  UNL     1      -8.959   1.660  22.026  1.00  0.00     0.265 C 
HETATM    8  O1  UNL     1      -9.396   2.069  20.929  1.00  0.00    -0.283 OA
BRANCH   7   9
HETATM    9  C1  UNL     1      -7.974   2.382  22.878  1.00  0.00     0.373 C 
BRANCH   9  10
HETATM   10  N2  UNL     1      -6.854   1.577  23.257  1.00  0.00    -0.106 NA
BRANCH  10  11
HETATM   11  N1  UNL     1      -5.665   2.281  23.141  1.00  0.00    -0.346 N 
ATOM     12  H12 UNL     1      -5.553   3.101  22.546  1.00  0.00     0.172 HD
ATOM     13  H11 UNL     1      -4.934   1.871  23.722  1.00  0.00     0.172 HD
ENDBRANCH  10  11
ENDBRANCH   9  10
BRANCH   9  14
HETATM   14  N3  UNL     1      -7.537   3.531  22.064  1.00  0.00    -0.052 N 
ATOM     15  H33 UNL     1      -7.887   4.413  22.437  1.00  0.00     0.276 HD
ATOM     16  H32 UNL     1      -6.538   3.707  22.165  1.00  0.00     0.276 HD
ATOM     17  H31 UNL     1      -7.802   3.401  21.087  1.00  0.00     0.276 HD
ENDBRANCH   9  14
ENDBRANCH   7   9
ENDBRANCH   4   7
ENDBRANCH   1   3
BRANCH   1  18
HETATM   18  C4  UNL     1      -9.910  -1.444  25.706  1.00  0.00     0.205 C 
HETATM   19  S1  UNL     1     -10.972  -0.914  26.829  1.00  0.00    -0.038 SA
BRANCH  18  20
HETATM   20  N6  UNL     1      -8.830  -2.258  26.111  1.00  0.00    -0.275 N 
ATOM     21  H6  UNL     1      -8.984  -3.235  26.360  1.00  0.00     0.189 HD
BRANCH  20  22
HETATM   22  N7  UNL     1      -7.554  -1.713  26.165  1.00  0.00    -0.309 N 
HETATM   23  C5  UNL     1      -7.138  -1.064  27.227  1.00  0.00     0.118 C 
ATOM     24  H7  UNL     1      -6.929  -1.819  25.366  1.00  0.00     0.186 HD
BRANCH  23  25
HETATM   25  C6  UNL     1      -5.783  -0.539  27.165  1.00  0.00    -0.017 A 
HETATM   26  C7  UNL     1      -4.934  -0.788  28.218  1.00  0.00     0.016 A 
HETATM   27  C8  UNL     1      -3.633  -0.312  28.208  1.00  0.00     0.040 A 
HETATM   28  C9  UNL     1      -3.151   0.427  27.140  1.00  0.00     0.105 A 
HETATM   29  C10 UNL     1      -3.999   0.677  26.083  1.00  0.00     0.105 A 
HETATM   30  O4  UNL     1      -1.921   1.010  26.880  1.00  0.00    -0.323 OA
HETATM   31  C11 UNL     1      -5.290   0.198  26.105  1.00  0.00     0.052 A 
HETATM   32  O3  UNL     1      -3.277   1.423  25.168  1.00  0.00    -0.323 OA
HETATM   33  C12 UNL     1      -1.950   1.608  25.620  1.00  0.00     0.352 A 
ENDBRANCH  23  25
ENDBRANCH  20  22
ENDBRANCH  18  20
ENDBRANCH   1  18
TORSDOF 10
ENDMDL
