MODEL 1
REMARK VINA RESULT: -8.477473439      0.000      0.000
REMARK  14 active torsions:
REMARK  status: ('A' for Active; 'I' for Inactive)
REMARK    1  A    between atoms: C2_2  and  O1_4 
REMARK    2  A    between atoms: C2_2  and  C4_6 
REMARK    3  A    between atoms: C6_12  and  N3_13 
REMARK    4  A    between atoms: C8_15  and  C9_16 
REMARK    5  A    between atoms: C9_16  and  O2_17 
REMARK    6  A    between atoms: O2_17  and  C10_18 
REMARK    7  A    between atoms: C13_21  and  N4_22 
REMARK       I    between atoms: N4_22  and  C14_24 
REMARK    8  A    between atoms: C14_24  and  C15_26 
REMARK    9  A    between atoms: C15_26  and  N5_27 
REMARK   10  A    between atoms: C15_26  and  C16_31 
REMARK   11  A    between atoms: C16_31  and  O4_32 
REMARK   12  A    between atoms: C18_35  and  S1_36 
REMARK   13  A    between atoms: S1_36  and  N6_37 
REMARK   14  A    between atoms: C19_46  and  N10_47 
ROOT
HETATM    1  N3  UNL     1      27.116  29.277  23.006  1.00  0.00    -0.080 N 
HETATM    2  C7  UNL     1      27.261  28.573  24.140  1.00  0.00     0.165 A 
HETATM    3  C8  UNL     1      28.292  27.645  23.960  1.00  0.00     0.069 A 
HETATM    4  N7  UNL     1      28.718  27.838  22.719  1.00  0.00    -0.286 N 
ATOM      5  H7  UNL     1      29.471  27.324  22.261  1.00  0.00     0.188 HD
HETATM    6  N8  UNL     1      27.993  28.828  22.166  1.00  0.00    -0.222 N 
ATOM      7  H8  UNL     1      28.116  29.176  21.215  1.00  0.00     0.209 HD
ENDROOT
BRANCH   3   8
HETATM    8  C9  UNL     1      28.741  26.666  25.010  1.00  0.00     0.236 C 
BRANCH   8   9
HETATM    9  O2  UNL     1      28.044  26.511  26.078  1.00  0.00    -0.344 OA
BRANCH   9  10
HETATM   10  C10 UNL     1      27.342  26.361  27.150  1.00  0.00     0.087 A 
HETATM   11  C11 UNL     1      27.184  27.370  28.110  1.00  0.00     0.040 A 
HETATM   12  C12 UNL     1      26.429  27.124  29.227  1.00  0.00     0.032 A 
HETATM   13  C13 UNL     1      25.815  25.919  29.443  1.00  0.00     0.036 A 
HETATM   14  C17 UNL     1      25.958  24.930  28.517  1.00  0.00     0.052 A 
HETATM   15  C18 UNL     1      26.699  25.122  27.388  1.00  0.00     0.056 A 
BRANCH  13  16
HETATM   16  N4  UNL     1      25.084  25.723  30.663  1.00  0.00    -0.325 N 
HETATM   17  C14 UNL     1      23.672  25.641  30.571  1.00  0.00     0.255 C 
HETATM   18  O3  UNL     1      23.149  25.740  29.410  1.00  0.00    -0.271 OA
ATOM     19  H4  UNL     1      25.562  25.647  31.561  1.00  0.00     0.169 HD
BRANCH  17  20
HETATM   20  C15 UNL     1      22.745  25.452  31.699  1.00  0.00     0.298 C 
BRANCH  20  21
HETATM   21  N5  UNL     1      21.764  26.464  31.880  1.00  0.00    -0.064 N 
ATOM     22  H53 UNL     1      22.181  27.270  32.345  1.00  0.00     0.275 HD
ATOM     23  H52 UNL     1      21.523  26.876  30.979  1.00  0.00     0.275 HD
ATOM     24  H51 UNL     1      20.915  26.184  32.369  1.00  0.00     0.275 HD
ENDBRANCH  20  21
BRANCH  20  25
HETATM   25  C16 UNL     1      22.089  24.092  31.527  1.00  0.00     0.206 C 
BRANCH  25  26
HETATM   26  O4  UNL     1      23.054  23.092  31.489  1.00  0.00    -0.398 OA
ATOM     27  H4  UNL     1      23.379  22.914  32.363  1.00  0.00     0.209 HD
ENDBRANCH  25  26
ENDBRANCH  20  25
ENDBRANCH  17  20
ENDBRANCH  13  16
BRANCH  15  28
HETATM   28  S1  UNL     1      26.887  23.840  26.147  1.00  0.00    -0.019 SA
BRANCH  28  29
HETATM   29  N6  UNL     1      27.299  22.347  26.976  1.00  0.00    -0.370 N 
ATOM     30  H62 UNL     1      28.018  22.249  27.693  1.00  0.00     0.164 HD
ATOM     31  H61 UNL     1      26.695  21.611  26.611  1.00  0.00     0.164 HD
ENDBRANCH  28  29
ENDBRANCH  15  28
ENDBRANCH   9  10
ENDBRANCH   8   9
ENDBRANCH   3   8
BRANCH   1  32
HETATM   32  C6  UNL     1      26.137  30.309  22.837  1.00  0.00     0.733 A 
HETATM   33  N2  UNL     1      25.018  30.360  23.564  1.00  0.00    -0.017 N 
HETATM   34  C5  UNL     1      24.088  31.331  23.404  1.00  0.00     0.734 A 
ATOM     35  H2  UNL     1      24.857  29.639  24.268  1.00  0.00     0.203 HD
HETATM   36  N1  UNL     1      22.894  31.630  23.976  1.00  0.00    -0.173 N 
HETATM   37  N11 UNL     1      24.318  32.267  22.475  1.00  0.00     0.092 N 
HETATM   38  C4  UNL     1      22.377  32.740  23.417  1.00  0.00     0.147 A 
ATOM     39  H1  UNL     1      22.452  31.091  24.721  1.00  0.00     0.185 HD
HETATM   40  N12 UNL     1      23.280  33.111  22.493  1.00  0.00    -0.250 N 
ATOM     41  H12 UNL     1      23.186  33.926  21.887  1.00  0.00     0.190 HD
HETATM   42  C19 UNL     1      25.445  32.257  21.710  1.00  0.00     0.727 A 
HETATM   43  N9  UNL     1      26.324  31.281  21.909  1.00  0.00    -0.018 N 
ATOM     44  H9  UNL     1      27.172  31.261  21.343  1.00  0.00     0.203 HD
BRANCH  38  45
HETATM   45  C2  UNL     1      21.096  33.440  23.715  1.00  0.00     0.110 C 
HETATM   46  C1  UNL     1      20.041  32.439  24.110  1.00  0.00     0.054 C 
HETATM   47  C3  UNL     1      20.658  34.305  22.560  1.00  0.00     0.054 C 
BRANCH  45  48
HETATM   48  O1  UNL     1      21.294  34.287  24.801  1.00  0.00    -0.383 OA
ATOM     49  H1  UNL     1      21.428  35.162  24.458  1.00  0.00     0.211 HD
ENDBRANCH  45  48
ENDBRANCH  38  45
BRANCH  42  50
HETATM   50  N10 UNL     1      25.569  33.192  20.851  1.00  0.00    -0.232 N 
ATOM     51 2H10 UNL     1      26.493  33.321  20.439  1.00  0.00     0.174 HD
ATOM     52 1H10 UNL     1      24.820  33.816  20.552  1.00  0.00     0.174 HD
ENDBRANCH  42  50
ENDBRANCH   1  32
TORSDOF 14
ENDMDL
MODEL 2
REMARK VINA RESULT: -8.381244521      1.934      2.314
REMARK  14 active torsions:
REMARK  status: ('A' for Active; 'I' for Inactive)
REMARK    1  A    between atoms: C2_2  and  O1_4 
REMARK    2  A    between atoms: C2_2  and  C4_6 
REMARK    3  A    between atoms: C6_12  and  N3_13 
REMARK    4  A    between atoms: C8_15  and  C9_16 
REMARK    5  A    between atoms: C9_16  and  O2_17 
REMARK    6  A    between atoms: O2_17  and  C10_18 
REMARK    7  A    between atoms: C13_21  and  N4_22 
REMARK       I    between atoms: N4_22  and  C14_24 
REMARK    8  A    between atoms: C14_24  and  C15_26 
REMARK    9  A    between atoms: C15_26  and  N5_27 
REMARK   10  A    between atoms: C15_26  and  C16_31 
REMARK   11  A    between atoms: C16_31  and  O4_32 
REMARK   12  A    between atoms: C18_35  and  S1_36 
REMARK   13  A    between atoms: S1_36  and  N6_37 
REMARK   14  A    between atoms: C19_46  and  N10_47 
ROOT
HETATM    1  N3  UNL     1      27.847  28.571  22.646  1.00  0.00    -0.080 N 
HETATM    2  C7  UNL     1      28.044  28.112  23.891  1.00  0.00     0.165 A 
HETATM    3  C8  UNL     1      28.822  26.951  23.821  1.00  0.00     0.069 A 
HETATM    4  N7  UNL     1      29.056  26.769  22.528  1.00  0.00    -0.286 N 
ATOM      5  H7  UNL     1      29.599  26.007  22.123  1.00  0.00     0.188 HD
HETATM    6  N8  UNL     1      28.457  27.760  21.841  1.00  0.00    -0.222 N 
ATOM      7  H8  UNL     1      28.480  27.858  20.826  1.00  0.00     0.209 HD
ENDROOT
BRANCH   3   8
HETATM    8  C9  UNL     1      29.242  26.141  25.018  1.00  0.00     0.236 C 
BRANCH   8   9
HETATM    9  O2  UNL     1      28.491  26.103  26.057  1.00  0.00    -0.344 OA
BRANCH   9  10
HETATM   10  C10 UNL     1      27.739  26.064  27.106  1.00  0.00     0.087 A 
HETATM   11  C11 UNL     1      27.632  27.128  28.012  1.00  0.00     0.040 A 
HETATM   12  C12 UNL     1      26.818  27.000  29.108  1.00  0.00     0.032 A 
HETATM   13  C13 UNL     1      26.097  25.862  29.353  1.00  0.00     0.036 A 
HETATM   14  C17 UNL     1      26.190  24.821  28.480  1.00  0.00     0.052 A 
HETATM   15  C18 UNL     1      26.985  24.895  27.374  1.00  0.00     0.056 A 
BRANCH  13  16
HETATM   16  N4  UNL     1      25.308  25.788  30.549  1.00  0.00    -0.325 N 
HETATM   17  C14 UNL     1      23.899  25.731  30.399  1.00  0.00     0.255 C 
HETATM   18  O3  UNL     1      23.432  25.744  29.211  1.00  0.00    -0.271 OA
ATOM     19  H4  UNL     1      25.743  25.777  31.472  1.00  0.00     0.169 HD
BRANCH  17  20
HETATM   20  C15 UNL     1      22.918  25.660  31.494  1.00  0.00     0.298 C 
BRANCH  20  21
HETATM   21  N5  UNL     1      21.915  26.666  31.503  1.00  0.00    -0.064 N 
ATOM     22  H53 UNL     1      22.208  27.451  30.921  1.00  0.00     0.275 HD
ATOM     23  H52 UNL     1      21.100  26.344  30.982  1.00  0.00     0.275 HD
ATOM     24  H51 UNL     1      21.627  27.005  32.421  1.00  0.00     0.275 HD
ENDBRANCH  20  21
BRANCH  20  25
HETATM   25  C16 UNL     1      22.292  24.276  31.457  1.00  0.00     0.206 C 
BRANCH  25  26
HETATM   26  O4  UNL     1      23.267  23.311  31.233  1.00  0.00    -0.398 OA
ATOM     27  H4  UNL     1      22.868  22.505  30.928  1.00  0.00     0.209 HD
ENDBRANCH  25  26
ENDBRANCH  20  25
ENDBRANCH  17  20
ENDBRANCH  13  16
BRANCH  15  28
HETATM   28  S1  UNL     1      27.110  23.542  26.201  1.00  0.00    -0.019 SA
BRANCH  28  29
HETATM   29  N6  UNL     1      27.351  22.062  27.114  1.00  0.00    -0.370 N 
ATOM     30  H62 UNL     1      28.097  21.901  27.792  1.00  0.00     0.164 HD
ATOM     31  H61 UNL     1      26.619  21.406  26.844  1.00  0.00     0.164 HD
ENDBRANCH  28  29
ENDBRANCH  15  28
ENDBRANCH   9  10
ENDBRANCH   8   9
ENDBRANCH   3   8
BRANCH   1  32
HETATM   32  C6  UNL     1      27.079  29.743  22.348  1.00  0.00     0.733 A 
HETATM   33  N2  UNL     1      26.199  29.786  21.344  1.00  0.00    -0.017 N 
HETATM   34  C5  UNL     1      25.474  30.892  21.056  1.00  0.00     0.734 A 
ATOM     35  H2  UNL     1      26.067  28.952  20.772  1.00  0.00     0.203 HD
HETATM   36  N1  UNL     1      24.539  31.222  20.129  1.00  0.00    -0.173 N 
HETATM   37  N11 UNL     1      25.662  31.976  21.820  1.00  0.00     0.092 N 
HETATM   38  C4  UNL     1      24.140  32.495  20.306  1.00  0.00     0.147 A 
ATOM     39  H1  UNL     1      24.189  30.595  19.404  1.00  0.00     0.185 HD
HETATM   40  N12 UNL     1      24.852  32.935  21.357  1.00  0.00    -0.250 N 
ATOM     41  H12 UNL     1      24.784  33.874  21.749  1.00  0.00     0.190 HD
HETATM   42  C19 UNL     1      26.547  31.980  22.854  1.00  0.00     0.727 A 
HETATM   43  N9  UNL     1      27.233  30.866  23.092  1.00  0.00    -0.018 N 
ATOM     44  H9  UNL     1      27.899  30.856  23.864  1.00  0.00     0.203 HD
BRANCH  38  45
HETATM   45  C2  UNL     1      23.142  33.289  19.535  1.00  0.00     0.110 C 
HETATM   46  C1  UNL     1      23.817  34.461  18.870  1.00  0.00     0.054 C 
HETATM   47  C3  UNL     1      21.985  33.713  20.403  1.00  0.00     0.054 C 
BRANCH  45  48
HETATM   48  O1  UNL     1      22.618  32.486  18.527  1.00  0.00    -0.383 OA
ATOM     49  H1  UNL     1      21.682  32.419  18.674  1.00  0.00     0.211 HD
ENDBRANCH  45  48
ENDBRANCH  38  45
BRANCH  42  50
HETATM   50  N10 UNL     1      26.655  33.063  23.519  1.00  0.00    -0.232 N 
ATOM     51 2H10 UNL     1      26.293  33.058  24.473  1.00  0.00     0.174 HD
ATOM     52 1H10 UNL     1      27.069  33.927  23.169  1.00  0.00     0.174 HD
ENDBRANCH  42  50
ENDBRANCH   1  32
TORSDOF 14
ENDMDL
MODEL 3
REMARK VINA RESULT: -8.243466060      2.193      2.562
REMARK  14 active torsions:
REMARK  status: ('A' for Active; 'I' for Inactive)
REMARK    1  A    between atoms: C2_2  and  O1_4 
REMARK    2  A    between atoms: C2_2  and  C4_6 
REMARK    3  A    between atoms: C6_12  and  N3_13 
REMARK    4  A    between atoms: C8_15  and  C9_16 
REMARK    5  A    between atoms: C9_16  and  O2_17 
REMARK    6  A    between atoms: O2_17  and  C10_18 
REMARK    7  A    between atoms: C13_21  and  N4_22 
REMARK       I    between atoms: N4_22  and  C14_24 
REMARK    8  A    between atoms: C14_24  and  C15_26 
REMARK    9  A    between atoms: C15_26  and  N5_27 
REMARK   10  A    between atoms: C15_26  and  C16_31 
REMARK   11  A    between atoms: C16_31  and  O4_32 
REMARK   12  A    between atoms: C18_35  and  S1_36 
REMARK   13  A    between atoms: S1_36  and  N6_37 
REMARK   14  A    between atoms: C19_46  and  N10_47 
ROOT
HETATM    1  N3  UNL     1      27.833  28.728  22.168  1.00  0.00    -0.080 N 
HETATM    2  C7  UNL     1      28.059  28.207  23.384  1.00  0.00     0.165 A 
HETATM    3  C8  UNL     1      28.869  27.075  23.242  1.00  0.00     0.069 A 
HETATM    4  N7  UNL     1      29.091  26.971  21.938  1.00  0.00    -0.286 N 
ATOM      5  H7  UNL     1      29.651  26.248  21.486  1.00  0.00     0.188 HD
HETATM    6  N8  UNL     1      28.456  27.980  21.313  1.00  0.00    -0.222 N 
ATOM      7  H8  UNL     1      28.463  28.134  20.305  1.00  0.00     0.209 HD
ENDROOT
BRANCH   3   8
HETATM    8  C9  UNL     1      29.327  26.214  24.387  1.00  0.00     0.236 C 
BRANCH   8   9
HETATM    9  O2  UNL     1      28.551  26.023  25.392  1.00  0.00    -0.344 OA
BRANCH   9  10
HETATM   10  C10 UNL     1      27.769  25.835  26.401  1.00  0.00     0.087 A 
HETATM   11  C11 UNL     1      27.606  26.775  27.428  1.00  0.00     0.040 A 
HETATM   12  C12 UNL     1      26.762  26.492  28.472  1.00  0.00     0.032 A 
HETATM   13  C13 UNL     1      26.066  25.315  28.550  1.00  0.00     0.036 A 
HETATM   14  C17 UNL     1      26.214  24.394  27.557  1.00  0.00     0.052 A 
HETATM   15  C18 UNL     1      27.041  24.624  26.497  1.00  0.00     0.056 A 
BRANCH  13  16
HETATM   16  N4  UNL     1      25.244  25.073  29.700  1.00  0.00    -0.325 N 
HETATM   17  C14 UNL     1      23.850  25.296  29.565  1.00  0.00     0.255 C 
HETATM   18  O3  UNL     1      23.423  25.689  28.427  1.00  0.00    -0.271 OA
ATOM     19  H4  UNL     1      25.645  24.754  30.582  1.00  0.00     0.169 HD
BRANCH  17  20
HETATM   20  C15 UNL     1      22.842  25.115  30.621  1.00  0.00     0.298 C 
BRANCH  20  21
HETATM   21  N5  UNL     1      22.910  23.897  31.351  1.00  0.00    -0.064 N 
ATOM     22  H53 UNL     1      23.405  23.193  30.803  1.00  0.00     0.275 HD
ATOM     23  H52 UNL     1      23.550  24.002  32.138  1.00  0.00     0.275 HD
ATOM     24  H51 UNL     1      22.021  23.518  31.677  1.00  0.00     0.275 HD
ENDBRANCH  20  21
BRANCH  20  25
HETATM   25  C16 UNL     1      22.940  26.308  31.556  1.00  0.00     0.206 C 
BRANCH  25  26
HETATM   26  O4  UNL     1      24.270  26.569  31.866  1.00  0.00    -0.398 OA
ATOM     27  H4  UNL     1      24.760  25.758  31.926  1.00  0.00     0.209 HD
ENDBRANCH  25  26
ENDBRANCH  20  25
ENDBRANCH  17  20
ENDBRANCH  13  16
BRANCH  15  28
HETATM   28  S1  UNL     1      27.239  23.432  25.170  1.00  0.00    -0.019 SA
BRANCH  28  29
HETATM   29  N6  UNL     1      27.616  21.879  25.897  1.00  0.00    -0.370 N 
ATOM     30  H62 UNL     1      28.321  21.720  26.618  1.00  0.00     0.164 HD
ATOM     31  H61 UNL     1      27.008  21.180  25.471  1.00  0.00     0.164 HD
ENDBRANCH  28  29
ENDBRANCH  15  28
ENDBRANCH   9  10
ENDBRANCH   8   9
ENDBRANCH   3   8
BRANCH   1  32
HETATM   32  C6  UNL     1      27.028  29.891  21.943  1.00  0.00     0.733 A 
HETATM   33  N2  UNL     1      26.107  29.949  20.978  1.00  0.00    -0.017 N 
HETATM   34  C5  UNL     1      25.348  31.048  20.759  1.00  0.00     0.734 A 
ATOM     35  H2  UNL     1      25.971  29.133  20.381  1.00  0.00     0.203 HD
HETATM   36  N1  UNL     1      24.368  31.388  19.882  1.00  0.00    -0.173 N 
HETATM   37  N11 UNL     1      25.542  32.108  21.553  1.00  0.00     0.092 N 
HETATM   38  C4  UNL     1      23.950  32.645  20.120  1.00  0.00     0.147 A 
ATOM     39  H1  UNL     1      24.003  30.779  19.150  1.00  0.00     0.185 HD
HETATM   40  N12 UNL     1      24.694  33.064  21.158  1.00  0.00    -0.250 N 
ATOM     41  H12 UNL     1      24.621  33.986  21.586  1.00  0.00     0.190 HD
HETATM   42  C19 UNL     1      26.468  32.096  22.551  1.00  0.00     0.727 A 
HETATM   43  N9  UNL     1      27.187  30.991  22.721  1.00  0.00    -0.018 N 
ATOM     44  H9  UNL     1      27.885  30.969  23.465  1.00  0.00     0.203 HD
BRANCH  38  45
HETATM   45  C2  UNL     1      22.904  33.441  19.419  1.00  0.00     0.110 C 
HETATM   46  C1  UNL     1      23.536  34.610  18.707  1.00  0.00     0.054 C 
HETATM   47  C3  UNL     1      21.812  33.872  20.364  1.00  0.00     0.054 C 
BRANCH  45  48
HETATM   48  O1  UNL     1      22.308  32.639  18.451  1.00  0.00    -0.383 OA
ATOM     49  H1  UNL     1      22.567  31.742  18.627  1.00  0.00     0.211 HD
ENDBRANCH  45  48
ENDBRANCH  38  45
BRANCH  42  50
HETATM   50  N10 UNL     1      26.579  33.157  23.250  1.00  0.00    -0.232 N 
ATOM     51 2H10 UNL     1      26.999  33.060  24.175  1.00  0.00     0.174 HD
ATOM     52 1H10 UNL     1      26.278  34.086  22.957  1.00  0.00     0.174 HD
ENDBRANCH  42  50
ENDBRANCH   1  32
TORSDOF 14
ENDMDL
MODEL 4
REMARK VINA RESULT: -8.033753024      2.910      3.686
REMARK  14 active torsions:
REMARK  status: ('A' for Active; 'I' for Inactive)
REMARK    1  A    between atoms: C2_2  and  O1_4 
REMARK    2  A    between atoms: C2_2  and  C4_6 
REMARK    3  A    between atoms: C6_12  and  N3_13 
REMARK    4  A    between atoms: C8_15  and  C9_16 
REMARK    5  A    between atoms: C9_16  and  O2_17 
REMARK    6  A    between atoms: O2_17  and  C10_18 
REMARK    7  A    between atoms: C13_21  and  N4_22 
REMARK       I    between atoms: N4_22  and  C14_24 
REMARK    8  A    between atoms: C14_24  and  C15_26 
REMARK    9  A    between atoms: C15_26  and  N5_27 
REMARK   10  A    between atoms: C15_26  and  C16_31 
REMARK   11  A    between atoms: C16_31  and  O4_32 
REMARK   12  A    between atoms: C18_35  and  S1_36 
REMARK   13  A    between atoms: S1_36  and  N6_37 
REMARK   14  A    between atoms: C19_46  and  N10_47 
ROOT
HETATM    1  N3  UNL     1      27.700  28.592  22.192  1.00  0.00    -0.080 N 
HETATM    2  C7  UNL     1      28.211  28.215  23.374  1.00  0.00     0.165 A 
HETATM    3  C8  UNL     1      28.271  26.818  23.411  1.00  0.00     0.069 A 
HETATM    4  N7  UNL     1      27.790  26.421  22.239  1.00  0.00    -0.286 N 
ATOM      5  H7  UNL     1      27.693  25.453  21.933  1.00  0.00     0.188 HD
HETATM    6  N8  UNL     1      27.454  27.510  21.523  1.00  0.00    -0.222 N 
ATOM      7  H8  UNL     1      27.059  27.487  20.583  1.00  0.00     0.209 HD
ENDROOT
BRANCH   3   8
HETATM    8  C9  UNL     1      28.778  26.023  24.583  1.00  0.00     0.236 C 
BRANCH   8   9
HETATM    9  O2  UNL     1      28.100  25.992  25.673  1.00  0.00    -0.344 OA
BRANCH   9  10
HETATM   10  C10 UNL     1      27.415  25.964  26.767  1.00  0.00     0.087 A 
HETATM   11  C11 UNL     1      27.225  27.090  27.580  1.00  0.00     0.040 A 
HETATM   12  C12 UNL     1      26.491  26.971  28.733  1.00  0.00     0.032 A 
HETATM   13  C13 UNL     1      25.931  25.784  29.123  1.00  0.00     0.036 A 
HETATM   14  C17 UNL     1      26.106  24.683  28.340  1.00  0.00     0.052 A 
HETATM   15  C18 UNL     1      26.827  24.745  27.184  1.00  0.00     0.056 A 
BRANCH  13  16
HETATM   16  N4  UNL     1      25.221  25.730  30.369  1.00  0.00    -0.325 N 
HETATM   17  C14 UNL     1      23.805  25.685  30.312  1.00  0.00     0.255 C 
HETATM   18  O3  UNL     1      23.261  25.688  29.156  1.00  0.00    -0.271 OA
ATOM     19  H4  UNL     1      25.715  25.726  31.261  1.00  0.00     0.169 HD
BRANCH  17  20
HETATM   20  C15 UNL     1      22.897  25.635  31.469  1.00  0.00     0.298 C 
BRANCH  20  21
HETATM   21  N5  UNL     1      21.908  26.653  31.533  1.00  0.00    -0.064 N 
ATOM     22  H53 UNL     1      22.164  27.423  30.916  1.00  0.00     0.275 HD
ATOM     23  H52 UNL     1      21.052  26.331  31.081  1.00  0.00     0.275 HD
ATOM     24  H51 UNL     1      21.693  27.012  32.463  1.00  0.00     0.275 HD
ENDBRANCH  20  21
BRANCH  20  25
HETATM   25  C16 UNL     1      22.254  24.258  31.486  1.00  0.00     0.206 C 
BRANCH  25  26
HETATM   26  O4  UNL     1      23.218  23.273  31.304  1.00  0.00    -0.398 OA
ATOM     27  H4  UNL     1      22.904  22.440  31.634  1.00  0.00     0.209 HD
ENDBRANCH  25  26
ENDBRANCH  20  25
ENDBRANCH  17  20
ENDBRANCH  13  16
BRANCH  15  28
HETATM   28  S1  UNL     1      27.057  23.312  26.130  1.00  0.00    -0.019 SA
BRANCH  28  29
HETATM   29  N6  UNL     1      27.372  21.929  27.165  1.00  0.00    -0.370 N 
ATOM     30  H62 UNL     1      27.850  21.963  28.066  1.00  0.00     0.164 HD
ATOM     31  H61 UNL     1      26.993  21.102  26.704  1.00  0.00     0.164 HD
ENDBRANCH  28  29
ENDBRANCH  15  28
ENDBRANCH   9  10
ENDBRANCH   8   9
ENDBRANCH   3   8
BRANCH   1  32
HETATM   32  C6  UNL     1      27.487  29.959  21.822  1.00  0.00     0.733 A 
HETATM   33  N2  UNL     1      27.655  30.397  20.571  1.00  0.00    -0.017 N 
HETATM   34  C5  UNL     1      27.459  31.689  20.218  1.00  0.00     0.734 A 
ATOM     35  H2  UNL     1      27.942  29.731  19.853  1.00  0.00     0.203 HD
HETATM   36  N1  UNL     1      27.552  32.401  19.066  1.00  0.00    -0.173 N 
HETATM   37  N11 UNL     1      27.083  32.546  21.175  1.00  0.00     0.092 N 
HETATM   38  C4  UNL     1      27.237  33.690  19.292  1.00  0.00     0.147 A 
ATOM     39  H1  UNL     1      27.821  32.016  18.161  1.00  0.00     0.185 HD
HETATM   40  N12 UNL     1      26.953  33.749  20.604  1.00  0.00    -0.250 N 
ATOM     41  H12 UNL     1      26.674  34.597  21.098  1.00  0.00     0.190 HD
HETATM   42  C19 UNL     1      26.899  32.147  22.464  1.00  0.00     0.727 A 
HETATM   43  N9  UNL     1      27.105  30.866  22.755  1.00  0.00    -0.018 N 
ATOM     44  H9  UNL     1      26.971  30.554  23.717  1.00  0.00     0.203 HD
BRANCH  38  45
HETATM   45  C2  UNL     1      27.201  34.835  18.340  1.00  0.00     0.110 C 
HETATM   46  C1  UNL     1      25.850  35.503  18.388  1.00  0.00     0.054 C 
HETATM   47  C3  UNL     1      27.575  34.404  16.944  1.00  0.00     0.054 C 
BRANCH  45  48
HETATM   48  O1  UNL     1      28.144  35.776  18.739  1.00  0.00    -0.383 OA
ATOM     49  H1  UNL     1      27.738  36.632  18.669  1.00  0.00     0.211 HD
ENDBRANCH  45  48
ENDBRANCH  38  45
BRANCH  42  50
HETATM   50  N10 UNL     1      26.543  33.040  23.301  1.00  0.00    -0.232 N 
ATOM     51 2H10 UNL     1      26.029  32.725  24.124  1.00  0.00     0.174 HD
ATOM     52 1H10 UNL     1      26.729  34.039  23.207  1.00  0.00     0.174 HD
ENDBRANCH  42  50
ENDBRANCH   1  32
TORSDOF 14
ENDMDL
MODEL 5
REMARK VINA RESULT: -8.011137443      2.298      2.934
REMARK  14 active torsions:
REMARK  status: ('A' for Active; 'I' for Inactive)
REMARK    1  A    between atoms: C2_2  and  O1_4 
REMARK    2  A    between atoms: C2_2  and  C4_6 
REMARK    3  A    between atoms: C6_12  and  N3_13 
REMARK    4  A    between atoms: C8_15  and  C9_16 
REMARK    5  A    between atoms: C9_16  and  O2_17 
REMARK    6  A    between atoms: O2_17  and  C10_18 
REMARK    7  A    between atoms: C13_21  and  N4_22 
REMARK       I    between atoms: N4_22  and  C14_24 
REMARK    8  A    between atoms: C14_24  and  C15_26 
REMARK    9  A    between atoms: C15_26  and  N5_27 
REMARK   10  A    between atoms: C15_26  and  C16_31 
REMARK   11  A    between atoms: C16_31  and  O4_32 
REMARK   12  A    between atoms: C18_35  and  S1_36 
REMARK   13  A    between atoms: S1_36  and  N6_37 
REMARK   14  A    between atoms: C19_46  and  N10_47 
ROOT
HETATM    1  N3  UNL     1      27.771  27.654  21.578  1.00  0.00    -0.080 N 
HETATM    2  C7  UNL     1      28.165  27.779  22.854  1.00  0.00     0.165 A 
HETATM    3  C8  UNL     1      28.735  26.570  23.266  1.00  0.00     0.069 A 
HETATM    4  N7  UNL     1      28.656  25.773  22.208  1.00  0.00    -0.286 N 
ATOM      5  H7  UNL     1      28.984  24.808  22.164  1.00  0.00     0.188 HD
HETATM    6  N8  UNL     1      28.070  26.451  21.204  1.00  0.00    -0.222 N 
ATOM      7  H8  UNL     1      27.887  26.070  20.276  1.00  0.00     0.209 HD
ENDROOT
BRANCH   3   8
HETATM    8  C9  UNL     1      29.285  26.319  24.644  1.00  0.00     0.236 C 
BRANCH   8   9
HETATM    9  O2  UNL     1      28.480  26.119  25.624  1.00  0.00    -0.344 OA
BRANCH   9  10
HETATM   10  C10 UNL     1      27.673  25.923  26.612  1.00  0.00     0.087 A 
HETATM   11  C11 UNL     1      27.504  26.841  27.657  1.00  0.00     0.040 A 
HETATM   12  C12 UNL     1      26.632  26.549  28.675  1.00  0.00     0.032 A 
HETATM   13  C13 UNL     1      25.913  25.385  28.709  1.00  0.00     0.036 A 
HETATM   14  C17 UNL     1      26.065  24.485  27.698  1.00  0.00     0.052 A 
HETATM   15  C18 UNL     1      26.919  24.725  26.662  1.00  0.00     0.056 A 
BRANCH  13  16
HETATM   16  N4  UNL     1      25.060  25.131  29.835  1.00  0.00    -0.325 N 
HETATM   17  C14 UNL     1      23.671  25.364  29.668  1.00  0.00     0.255 C 
HETATM   18  O3  UNL     1      23.276  25.777  28.525  1.00  0.00    -0.271 OA
ATOM     19  H4  UNL     1      25.437  24.797  30.721  1.00  0.00     0.169 HD
BRANCH  17  20
HETATM   20  C15 UNL     1      22.636  25.174  30.696  1.00  0.00     0.298 C 
BRANCH  20  21
HETATM   21  N5  UNL     1      22.660  23.934  31.388  1.00  0.00    -0.064 N 
ATOM     22  H53 UNL     1      22.245  23.205  30.807  1.00  0.00     0.275 HD
ATOM     23  H52 UNL     1      23.619  23.593  31.452  1.00  0.00     0.275 HD
ATOM     24  H51 UNL     1      22.229  23.926  32.312  1.00  0.00     0.275 HD
ENDBRANCH  20  21
BRANCH  20  25
HETATM   25  C16 UNL     1      22.740  26.335  31.670  1.00  0.00     0.206 C 
BRANCH  25  26
HETATM   26  O4  UNL     1      24.071  26.576  31.993  1.00  0.00    -0.398 OA
ATOM     27  H4  UNL     1      24.187  27.480  32.260  1.00  0.00     0.209 HD
ENDBRANCH  25  26
ENDBRANCH  20  25
ENDBRANCH  17  20
ENDBRANCH  13  16
BRANCH  15  28
HETATM   28  S1  UNL     1      27.125  23.561  25.311  1.00  0.00    -0.019 SA
BRANCH  28  29
HETATM   29  N6  UNL     1      27.460  21.984  26.008  1.00  0.00    -0.370 N 
ATOM     30  H62 UNL     1      27.987  21.818  26.867  1.00  0.00     0.164 HD
ATOM     31  H61 UNL     1      27.037  21.280  25.405  1.00  0.00     0.164 HD
ENDBRANCH  28  29
ENDBRANCH  15  28
ENDBRANCH   9  10
ENDBRANCH   8   9
ENDBRANCH   3   8
BRANCH   1  32
HETATM   32  C6  UNL     1      27.132  28.705  20.842  1.00  0.00     0.733 A 
HETATM   33  N2  UNL     1      26.149  29.445  21.359  1.00  0.00    -0.017 N 
HETATM   34  C5  UNL     1      25.540  30.435  20.666  1.00  0.00     0.734 A 
ATOM     35  H2  UNL     1      25.844  29.257  22.315  1.00  0.00     0.203 HD
HETATM   36  N1  UNL     1      24.544  31.323  20.920  1.00  0.00    -0.173 N 
HETATM   37  N11 UNL     1      25.954  30.665  19.414  1.00  0.00     0.092 N 
HETATM   38  C4  UNL     1      24.334  32.103  19.844  1.00  0.00     0.147 A 
ATOM     39  H1  UNL     1      24.030  31.389  21.799  1.00  0.00     0.185 HD
HETATM   40  N12 UNL     1      25.219  31.673  18.929  1.00  0.00    -0.250 N 
ATOM     41  H12 UNL     1      25.318  32.063  17.992  1.00  0.00     0.190 HD
HETATM   42  C19 UNL     1      26.953  29.937  18.844  1.00  0.00     0.727 A 
HETATM   43  N9  UNL     1      27.517  28.977  19.570  1.00  0.00    -0.018 N 
ATOM     44  H9  UNL     1      28.266  28.423  19.155  1.00  0.00     0.203 HD
BRANCH  38  45
HETATM   45  C2  UNL     1      23.351  33.207  19.654  1.00  0.00     0.110 C 
HETATM   46  C1  UNL     1      24.003  34.361  18.936  1.00  0.00     0.054 C 
HETATM   47  C3  UNL     1      22.733  33.626  20.964  1.00  0.00     0.054 C 
BRANCH  45  48
HETATM   48  O1  UNL     1      22.315  32.747  18.847  1.00  0.00    -0.383 OA
ATOM     49  H1  UNL     1      21.542  33.256  19.060  1.00  0.00     0.211 HD
ENDBRANCH  45  48
ENDBRANCH  38  45
BRANCH  42  50
HETATM   50  N10 UNL     1      27.273  30.232  17.645  1.00  0.00    -0.232 N 
ATOM     51 2H10 UNL     1      26.511  30.454  17.004  1.00  0.00     0.174 HD
ATOM     52 1H10 UNL     1      28.226  30.260  17.282  1.00  0.00     0.174 HD
ENDBRANCH  42  50
ENDBRANCH   1  32
TORSDOF 14
ENDMDL
