MODEL 1
REMARK VINA RESULT: -8.360016706      0.000      0.000
REMARK  10 active torsions:
REMARK  status: ('A' for Active; 'I' for Inactive)
REMARK    1  A    between atoms: S1_2  and  C2_3 
REMARK    2  A    between atoms: C2_3  and  C3_4 
REMARK    3  A    between atoms: C3_4  and  C4_5 
REMARK    4  A    between atoms: C4_5  and  N1_6 
REMARK    5  A    between atoms: C4_5  and  C5_10 
REMARK       I    between atoms: C5_10  and  N2_12 
REMARK    6  A    between atoms: N2_12  and  N3_14 
REMARK       I    between atoms: N3_14  and  C6_15 
REMARK    7  A    between atoms: C6_15  and  C7_17 
REMARK    8  A    between atoms: N6_22  and  C8_23 
REMARK    9  A    between atoms: C9_29  and  N9_30 
REMARK   10  A    between atoms: C10_33  and  N10_34 
ROOT
HETATM    1  C7  UNL     1      27.640  27.213  22.805  1.00  0.00     0.182 A 
HETATM    2  N4  UNL     1      28.267  25.991  22.928  1.00  0.00    -0.276 N 
ATOM      3  H4  UNL     1      28.395  25.462  23.790  1.00  0.00     0.189 HD
HETATM    4  N5  UNL     1      28.668  25.635  21.731  1.00  0.00    -0.232 N 
ATOM      5  H5  UNL     1      29.160  24.766  21.525  1.00  0.00     0.209 HD
HETATM    6  N6  UNL     1      28.357  26.533  20.837  1.00  0.00    -0.199 N 
HETATM    7  C10 UNL     1      27.695  27.549  21.545  1.00  0.00     0.189 A 
ENDROOT
BRANCH   1   8
HETATM    8  C6  UNL     1      27.054  27.974  23.976  1.00  0.00     0.367 C 
HETATM    9  N3  UNL     1      27.297  27.430  25.201  1.00  0.00    -0.277 NA
HETATM   10  O2  UNL     1      26.403  29.009  23.773  1.00  0.00    -0.247 OA
BRANCH   9  11
HETATM   11  N2  UNL     1      27.521  26.922  26.381  1.00  0.00    -0.197 N 
HETATM   12  C5  UNL     1      27.681  25.585  26.872  1.00  0.00     0.277 C 
HETATM   13  O1  UNL     1      27.601  24.611  26.093  1.00  0.00    -0.269 OA
ATOM     14  H2  UNL     1      27.598  27.628  27.113  1.00  0.00     0.205 HD
BRANCH  12  15
HETATM   15  C4  UNL     1      27.940  25.395  28.317  1.00  0.00     0.278 C 
BRANCH  15  16
HETATM   16  C3  UNL     1      27.981  26.644  29.106  1.00  0.00     0.053 C 
BRANCH  16  17
HETATM   17  C2  UNL     1      26.920  26.827  30.132  1.00  0.00     0.076 C 
BRANCH  17  18
HETATM   18  S1  UNL     1      25.366  26.041  29.600  1.00  0.00    -0.173 SA
HETATM   19  C1  UNL     1      24.187  25.984  30.935  1.00  0.00     0.089 C 
ENDBRANCH  17  18
ENDBRANCH  16  17
ENDBRANCH  15  16
BRANCH  15  20
HETATM   20  N1  UNL     1      29.224  24.672  28.495  1.00  0.00    -0.066 N 
ATOM     21  H13 UNL     1      29.461  24.097  27.687  1.00  0.00     0.275 HD
ATOM     22  H12 UNL     1      30.029  25.297  28.465  1.00  0.00     0.275 HD
ATOM     23  H11 UNL     1      29.181  24.132  29.359  1.00  0.00     0.275 HD
ENDBRANCH  15  20
ENDBRANCH  12  15
ENDBRANCH   9  11
ENDBRANCH   1   8
BRANCH   7  24
HETATM   24  N10 UNL     1      27.288  28.751  20.837  1.00  0.00    -0.217 N 
HETATM   25  N11 UNL     1      27.940  29.905  20.981  1.00  0.00    -0.275 N 
HETATM   26  C11 UNL     1      27.479  30.822  20.168  1.00  0.00     0.135 A 
ATOM     27  H11 UNL     1      28.702  30.055  21.641  1.00  0.00     0.189 HD
HETATM   28  N12 UNL     1      27.800  32.140  19.914  1.00  0.00    -0.344 N 
HETATM   29  C17 UNL     1      26.467  30.267  19.442  1.00  0.00     0.061 A 
HETATM   30  C12 UNL     1      27.150  32.867  18.973  1.00  0.00     0.007 A 
ATOM     31  H12 UNL     1      28.548  32.580  20.450  1.00  0.00     0.167 HD
HETATM   32  C13 UNL     1      27.526  34.314  18.694  1.00  0.00     0.068 C 
HETATM   33  C14 UNL     1      26.137  32.294  18.252  1.00  0.00     0.032 A 
HETATM   34  C15 UNL     1      25.789  30.949  18.500  1.00  0.00    -0.042 A 
HETATM   35  C16 UNL     1      24.689  30.330  17.719  1.00  0.00     0.049 C 
HETATM   36  C18 UNL     1      26.380  28.873  19.930  1.00  0.00     0.137 A 
HETATM   37  N13 UNL     1      25.434  28.232  19.359  1.00  0.00    -0.383 N 
ATOM     38 2H13 UNL     1      25.374  27.271  19.696  1.00  0.00     0.157 HD
ATOM     39 1H13 UNL     1      24.716  28.329  18.641  1.00  0.00     0.157 HD
ENDBRANCH   7  24
BRANCH   6  40
HETATM   40  C8  UNL     1      28.569  26.590  19.438  1.00  0.00     0.198 A 
HETATM   41  N7  UNL     1      27.843  25.890  18.552  1.00  0.00    -0.220 N 
HETATM   42  O3  UNL     1      28.268  26.162  17.339  1.00  0.00    -0.153 OA
ATOM     43  H7  UNL     1      27.082  25.250  18.783  1.00  0.00     0.198 HD
HETATM   44  N8  UNL     1      29.257  27.022  17.394  1.00  0.00    -0.222 N 
HETATM   45  C9  UNL     1      29.468  27.315  18.716  1.00  0.00     0.169 A 
ATOM     46  H8  UNL     1      29.772  27.402  16.600  1.00  0.00     0.198 HD
BRANCH  45  47
HETATM   47  N9  UNL     1      30.353  28.164  19.111  1.00  0.00    -0.381 N 
ATOM     48  H92 UNL     1      30.247  29.171  18.986  1.00  0.00     0.157 HD
ATOM     49  H91 UNL     1      31.232  28.012  19.607  1.00  0.00     0.157 HD
ENDBRANCH  45  47
ENDBRANCH   6  40
TORSDOF 10
ENDMDL
MODEL 2
REMARK VINA RESULT: -8.353068280      3.603      9.965
REMARK  10 active torsions:
REMARK  status: ('A' for Active; 'I' for Inactive)
REMARK    1  A    between atoms: S1_2  and  C2_3 
REMARK    2  A    between atoms: C2_3  and  C3_4 
REMARK    3  A    between atoms: C3_4  and  C4_5 
REMARK    4  A    between atoms: C4_5  and  N1_6 
REMARK    5  A    between atoms: C4_5  and  C5_10 
REMARK       I    between atoms: C5_10  and  N2_12 
REMARK    6  A    between atoms: N2_12  and  N3_14 
REMARK       I    between atoms: N3_14  and  C6_15 
REMARK    7  A    between atoms: C6_15  and  C7_17 
REMARK    8  A    between atoms: N6_22  and  C8_23 
REMARK    9  A    between atoms: C9_29  and  N9_30 
REMARK   10  A    between atoms: C10_33  and  N10_34 
ROOT
HETATM    1  C7  UNL     1      27.636  26.722  25.756  1.00  0.00     0.182 A 
HETATM    2  N4  UNL     1      27.038  27.913  26.110  1.00  0.00    -0.276 N 
ATOM      3  H4  UNL     1      27.257  28.835  25.731  1.00  0.00     0.189 HD
HETATM    4  N5  UNL     1      26.137  27.642  27.023  1.00  0.00    -0.232 N 
ATOM      5  H5  UNL     1      25.537  28.340  27.463  1.00  0.00     0.209 HD
HETATM    6  N6  UNL     1      26.105  26.367  27.298  1.00  0.00    -0.199 N 
HETATM    7  C10 UNL     1      27.080  25.785  26.473  1.00  0.00     0.189 A 
ENDROOT
BRANCH   1   8
HETATM    8  C6  UNL     1      28.753  26.617  24.738  1.00  0.00     0.367 C 
HETATM    9  N3  UNL     1      28.350  26.587  23.437  1.00  0.00    -0.277 NA
HETATM   10  O2  UNL     1      29.930  26.558  25.121  1.00  0.00    -0.247 OA
BRANCH   9  11
HETATM   11  N2  UNL     1      27.981  26.557  22.187  1.00  0.00    -0.197 N 
HETATM   12  C5  UNL     1      28.625  26.893  20.952  1.00  0.00     0.277 C 
HETATM   13  O1  UNL     1      29.797  27.329  20.948  1.00  0.00    -0.269 OA
ATOM     14  H2  UNL     1      27.026  26.221  22.060  1.00  0.00     0.205 HD
BRANCH  12  15
HETATM   15  C4  UNL     1      27.868  26.712  19.693  1.00  0.00     0.278 C 
BRANCH  15  16
HETATM   16  C3  UNL     1      26.586  27.446  19.633  1.00  0.00     0.053 C 
BRANCH  16  17
HETATM   17  C2  UNL     1      26.656  28.899  19.323  1.00  0.00     0.076 C 
BRANCH  17  18
HETATM   18  S1  UNL     1      26.126  29.889  20.757  1.00  0.00    -0.173 SA
HETATM   19  C1  UNL     1      27.527  30.412  21.726  1.00  0.00     0.089 C 
ENDBRANCH  17  18
ENDBRANCH  16  17
ENDBRANCH  15  16
BRANCH  15  20
HETATM   20  N1  UNL     1      27.604  25.267  19.482  1.00  0.00    -0.066 N 
ATOM     21  H13 UNL     1      27.753  24.717  20.328  1.00  0.00     0.275 HD
ATOM     22  H12 UNL     1      26.612  25.067  19.356  1.00  0.00     0.275 HD
ATOM     23  H11 UNL     1      28.170  24.939  18.700  1.00  0.00     0.275 HD
ENDBRANCH  15  20
ENDBRANCH  12  15
ENDBRANCH   9  11
ENDBRANCH   1   8
BRANCH   7  24
HETATM   24  N10 UNL     1      27.354  24.363  26.602  1.00  0.00    -0.217 N 
HETATM   25  N11 UNL     1      27.417  23.765  27.793  1.00  0.00    -0.275 N 
HETATM   26  C11 UNL     1      27.558  22.470  27.673  1.00  0.00     0.135 A 
ATOM     27  H11 UNL     1      27.363  24.257  28.685  1.00  0.00     0.189 HD
HETATM   28  N12 UNL     1      27.659  21.420  28.564  1.00  0.00    -0.344 N 
HETATM   29  C17 UNL     1      27.594  22.174  26.342  1.00  0.00     0.061 A 
HETATM   30  C12 UNL     1      27.779  20.137  28.148  1.00  0.00     0.007 A 
ATOM     31  H12 UNL     1      27.642  21.617  29.565  1.00  0.00     0.167 HD
HETATM   32  C13 UNL     1      27.874  18.989  29.143  1.00  0.00     0.068 C 
HETATM   33  C14 UNL     1      27.813  19.857  26.808  1.00  0.00     0.032 A 
HETATM   34  C15 UNL     1      27.717  20.915  25.880  1.00  0.00    -0.042 A 
HETATM   35  C16 UNL     1      27.757  20.611  24.428  1.00  0.00     0.049 C 
HETATM   36  C18 UNL     1      27.453  23.483  25.666  1.00  0.00     0.137 A 
HETATM   37  N13 UNL     1      27.510  23.364  24.396  1.00  0.00    -0.383 N 
ATOM     38 2H13 UNL     1      27.412  24.267  23.930  1.00  0.00     0.157 HD
ATOM     39 1H13 UNL     1      27.587  22.668  23.656  1.00  0.00     0.157 HD
ENDBRANCH   7  24
BRANCH   6  40
HETATM   40  C8  UNL     1      25.308  25.611  28.193  1.00  0.00     0.198 A 
HETATM   41  N7  UNL     1      24.404  24.704  27.791  1.00  0.00    -0.220 N 
HETATM   42  O3  UNL     1      23.839  24.165  28.847  1.00  0.00    -0.153 OA
ATOM     43  H7  UNL     1      24.190  24.471  26.821  1.00  0.00     0.198 HD
HETATM   44  N8  UNL     1      24.343  24.688  29.940  1.00  0.00    -0.222 N 
HETATM   45  C9  UNL     1      25.282  25.609  29.554  1.00  0.00     0.169 A 
ATOM     46  H8  UNL     1      24.083  24.453  30.898  1.00  0.00     0.198 HD
BRANCH  45  47
HETATM   47  N9  UNL     1      25.992  26.277  30.397  1.00  0.00    -0.381 N 
ATOM     48  H92 UNL     1      26.853  25.913  30.805  1.00  0.00     0.157 HD
ATOM     49  H91 UNL     1      25.862  27.222  30.759  1.00  0.00     0.157 HD
ENDBRANCH  45  47
ENDBRANCH   6  40
TORSDOF 10
ENDMDL
MODEL 3
REMARK VINA RESULT: -8.116497230      1.510      1.898
REMARK  10 active torsions:
REMARK  status: ('A' for Active; 'I' for Inactive)
REMARK    1  A    between atoms: S1_2  and  C2_3 
REMARK    2  A    between atoms: C2_3  and  C3_4 
REMARK    3  A    between atoms: C3_4  and  C4_5 
REMARK    4  A    between atoms: C4_5  and  N1_6 
REMARK    5  A    between atoms: C4_5  and  C5_10 
REMARK       I    between atoms: C5_10  and  N2_12 
REMARK    6  A    between atoms: N2_12  and  N3_14 
REMARK       I    between atoms: N3_14  and  C6_15 
REMARK    7  A    between atoms: C6_15  and  C7_17 
REMARK    8  A    between atoms: N6_22  and  C8_23 
REMARK    9  A    between atoms: C9_29  and  N9_30 
REMARK   10  A    between atoms: C10_33  and  N10_34 
ROOT
HETATM    1  C7  UNL     1      27.797  26.957  22.918  1.00  0.00     0.182 A 
HETATM    2  N4  UNL     1      28.450  25.743  22.964  1.00  0.00    -0.276 N 
ATOM      3  H4  UNL     1      28.622  25.181  23.797  1.00  0.00     0.189 HD
HETATM    4  N5  UNL     1      28.808  25.445  21.738  1.00  0.00    -0.232 N 
ATOM      5  H5  UNL     1      29.307  24.595  21.476  1.00  0.00     0.209 HD
HETATM    6  N6  UNL     1      28.446  26.374  20.896  1.00  0.00    -0.199 N 
HETATM    7  C10 UNL     1      27.796  27.346  21.672  1.00  0.00     0.189 A 
ENDROOT
BRANCH   1   8
HETATM    8  C6  UNL     1      27.246  27.657  24.143  1.00  0.00     0.367 C 
HETATM    9  N3  UNL     1      27.531  27.057  25.331  1.00  0.00    -0.277 NA
HETATM   10  O2  UNL     1      26.584  28.696  24.010  1.00  0.00    -0.247 OA
BRANCH   9  11
HETATM   11  N2  UNL     1      27.794  26.493  26.478  1.00  0.00    -0.197 N 
HETATM   12  C5  UNL     1      27.330  26.701  27.817  1.00  0.00     0.277 C 
HETATM   13  O1  UNL     1      26.495  27.597  28.065  1.00  0.00    -0.269 OA
ATOM     14  H2  UNL     1      28.480  25.740  26.404  1.00  0.00     0.205 HD
BRANCH  12  15
HETATM   15  C4  UNL     1      27.867  25.832  28.889  1.00  0.00     0.278 C 
BRANCH  15  16
HETATM   16  C3  UNL     1      28.237  24.469  28.450  1.00  0.00     0.053 C 
BRANCH  16  17
HETATM   17  C2  UNL     1      27.126  23.568  28.044  1.00  0.00     0.076 C 
BRANCH  17  18
HETATM   18  S1  UNL     1      27.528  21.835  28.433  1.00  0.00    -0.173 SA
HETATM   19  C1  UNL     1      27.531  20.832  26.959  1.00  0.00     0.089 C 
ENDBRANCH  17  18
ENDBRANCH  16  17
ENDBRANCH  15  16
BRANCH  15  20
HETATM   20  N1  UNL     1      26.870  25.730  29.983  1.00  0.00    -0.066 N 
ATOM     21  H13 UNL     1      26.051  25.186  29.714  1.00  0.00     0.275 HD
ATOM     22  H12 UNL     1      27.191  25.135  30.747  1.00  0.00     0.275 HD
ATOM     23  H11 UNL     1      26.627  26.669  30.297  1.00  0.00     0.275 HD
ENDBRANCH  15  20
ENDBRANCH  12  15
ENDBRANCH   9  11
ENDBRANCH   1   8
BRANCH   7  24
HETATM   24  N10 UNL     1      27.340  28.568  21.032  1.00  0.00    -0.217 N 
HETATM   25  N11 UNL     1      27.932  29.742  21.257  1.00  0.00    -0.275 N 
HETATM   26  C11 UNL     1      27.438  30.684  20.495  1.00  0.00     0.135 A 
ATOM     27  H11 UNL     1      28.677  29.887  21.939  1.00  0.00     0.189 HD
HETATM   28  N12 UNL     1      27.696  32.029  20.327  1.00  0.00    -0.344 N 
HETATM   29  C17 UNL     1      26.464  30.126  19.719  1.00  0.00     0.061 A 
HETATM   30  C12 UNL     1      27.025  32.780  19.422  1.00  0.00     0.007 A 
ATOM     31  H12 UNL     1      28.414  32.471  20.902  1.00  0.00     0.167 HD
HETATM   32  C13 UNL     1      27.332  34.259  19.239  1.00  0.00     0.068 C 
HETATM   33  C14 UNL     1      26.051  32.205  18.651  1.00  0.00     0.032 A 
HETATM   34  C15 UNL     1      25.766  30.832  18.810  1.00  0.00    -0.042 A 
HETATM   35  C16 UNL     1      24.709  30.210  17.974  1.00  0.00     0.049 C 
HETATM   36  C18 UNL     1      26.439  28.702  20.120  1.00  0.00     0.137 A 
HETATM   37  N13 UNL     1      25.534  28.054  19.495  1.00  0.00    -0.383 N 
ATOM     38 2H13 UNL     1      25.517  27.071  19.771  1.00  0.00     0.157 HD
ATOM     39 1H13 UNL     1      24.822  28.159  18.772  1.00  0.00     0.157 HD
ENDBRANCH   7  24
BRANCH   6  40
HETATM   40  C8  UNL     1      28.600  26.492  19.493  1.00  0.00     0.198 A 
HETATM   41  N7  UNL     1      27.879  25.786  18.608  1.00  0.00    -0.220 N 
HETATM   42  O3  UNL     1      28.243  26.125  17.392  1.00  0.00    -0.153 OA
ATOM     43  H7  UNL     1      27.164  25.097  18.843  1.00  0.00     0.198 HD
HETATM   44  N8  UNL     1      29.185  27.036  17.444  1.00  0.00    -0.222 N 
HETATM   45  C9  UNL     1      29.431  27.292  18.768  1.00  0.00     0.169 A 
ATOM     46  H8  UNL     1      29.647  27.473  16.647  1.00  0.00     0.198 HD
BRANCH  45  47
HETATM   47  N9  UNL     1      30.283  28.174  19.161  1.00  0.00    -0.381 N 
ATOM     48  H92 UNL     1      30.066  28.873  19.873  1.00  0.00     0.157 HD
ATOM     49  H91 UNL     1      31.256  28.312  18.890  1.00  0.00     0.157 HD
ENDBRANCH  45  47
ENDBRANCH   6  40
TORSDOF 10
ENDMDL
MODEL 4
REMARK VINA RESULT: -8.076903678      0.845      1.761
REMARK  10 active torsions:
REMARK  status: ('A' for Active; 'I' for Inactive)
REMARK    1  A    between atoms: S1_2  and  C2_3 
REMARK    2  A    between atoms: C2_3  and  C3_4 
REMARK    3  A    between atoms: C3_4  and  C4_5 
REMARK    4  A    between atoms: C4_5  and  N1_6 
REMARK    5  A    between atoms: C4_5  and  C5_10 
REMARK       I    between atoms: C5_10  and  N2_12 
REMARK    6  A    between atoms: N2_12  and  N3_14 
REMARK       I    between atoms: N3_14  and  C6_15 
REMARK    7  A    between atoms: C6_15  and  C7_17 
REMARK    8  A    between atoms: N6_22  and  C8_23 
REMARK    9  A    between atoms: C9_29  and  N9_30 
REMARK   10  A    between atoms: C10_33  and  N10_34 
ROOT
HETATM    1  C7  UNL     1      27.642  27.238  22.884  1.00  0.00     0.182 A 
HETATM    2  N4  UNL     1      28.393  26.093  23.042  1.00  0.00    -0.276 N 
ATOM      3  H4  UNL     1      28.592  25.617  23.922  1.00  0.00     0.189 HD
HETATM    4  N5  UNL     1      28.806  25.729  21.852  1.00  0.00    -0.232 N 
ATOM      5  H5  UNL     1      29.382  24.906  21.670  1.00  0.00     0.209 HD
HETATM    6  N6  UNL     1      28.388  26.551  20.929  1.00  0.00    -0.199 N 
HETATM    7  C10 UNL     1      27.639  27.523  21.611  1.00  0.00     0.189 A 
ENDROOT
BRANCH   1   8
HETATM    8  C6  UNL     1      27.003  27.986  24.036  1.00  0.00     0.367 C 
HETATM    9  N3  UNL     1      27.242  27.462  25.271  1.00  0.00    -0.277 NA
HETATM   10  O2  UNL     1      26.317  28.992  23.811  1.00  0.00    -0.247 OA
BRANCH   9  11
HETATM   11  N2  UNL     1      27.460  26.971  26.459  1.00  0.00    -0.197 N 
HETATM   12  C5  UNL     1      27.831  25.676  26.946  1.00  0.00     0.277 C 
HETATM   13  O1  UNL     1      28.002  24.726  26.152  1.00  0.00    -0.269 OA
ATOM     14  H2  UNL     1      27.342  27.659  27.203  1.00  0.00     0.205 HD
BRANCH  12  15
HETATM   15  C4  UNL     1      28.002  25.497  28.406  1.00  0.00     0.278 C 
BRANCH  15  16
HETATM   16  C3  UNL     1      27.949  26.749  29.191  1.00  0.00     0.053 C 
BRANCH  16  17
HETATM   17  C2  UNL     1      26.908  26.836  30.250  1.00  0.00     0.076 C 
BRANCH  17  18
HETATM   18  S1  UNL     1      25.360  26.054  29.697  1.00  0.00    -0.173 SA
HETATM   19  C1  UNL     1      24.155  26.020  31.011  1.00  0.00     0.089 C 
ENDBRANCH  17  18
ENDBRANCH  16  17
ENDBRANCH  15  16
BRANCH  15  20
HETATM   20  N1  UNL     1      29.296  24.820  28.670  1.00  0.00    -0.066 N 
ATOM     21  H13 UNL     1      29.553  24.844  29.656  1.00  0.00     0.275 HD
ATOM     22  H12 UNL     1      29.234  23.808  28.563  1.00  0.00     0.275 HD
ATOM     23  H11 UNL     1      30.012  25.232  28.071  1.00  0.00     0.275 HD
ENDBRANCH  15  20
ENDBRANCH  12  15
ENDBRANCH   9  11
ENDBRANCH   1   8
BRANCH   7  24
HETATM   24  N10 UNL     1      27.097  28.646  20.863  1.00  0.00    -0.217 N 
HETATM   25  N11 UNL     1      26.233  28.473  19.863  1.00  0.00    -0.275 N 
HETATM   26  C11 UNL     1      25.788  29.616  19.408  1.00  0.00     0.135 A 
ATOM     27  H11 UNL     1      25.953  27.562  19.498  1.00  0.00     0.189 HD
HETATM   28  N12 UNL     1      24.897  29.985  18.421  1.00  0.00    -0.344 N 
HETATM   29  C17 UNL     1      26.379  30.612  20.129  1.00  0.00     0.061 A 
HETATM   30  C12 UNL     1      24.600  31.283  18.172  1.00  0.00     0.007 A 
ATOM     31  H12 UNL     1      24.448  29.259  17.862  1.00  0.00     0.167 HD
HETATM   32  C13 UNL     1      23.603  31.673  17.091  1.00  0.00     0.068 C 
HETATM   33  C14 UNL     1      25.201  32.270  18.906  1.00  0.00     0.032 A 
HETATM   34  C15 UNL     1      26.120  31.916  19.917  1.00  0.00    -0.042 A 
HETATM   35  C16 UNL     1      26.773  32.987  20.710  1.00  0.00     0.049 C 
HETATM   36  C18 UNL     1      27.249  29.905  21.095  1.00  0.00     0.137 A 
HETATM   37  N13 UNL     1      27.906  30.723  21.823  1.00  0.00    -0.383 N 
ATOM     38 2H13 UNL     1      28.506  30.236  22.488  1.00  0.00     0.157 HD
ATOM     39 1H13 UNL     1      28.026  31.719  22.006  1.00  0.00     0.157 HD
ENDBRANCH   7  24
BRANCH   6  40
HETATM   40  C8  UNL     1      28.567  26.568  19.524  1.00  0.00     0.198 A 
HETATM   41  N7  UNL     1      27.880  25.780  18.683  1.00  0.00    -0.220 N 
HETATM   42  O3  UNL     1      28.259  26.036  17.451  1.00  0.00    -0.153 OA
ATOM     43  H7  UNL     1      27.178  25.092  18.955  1.00  0.00     0.198 HD
HETATM   44  N8  UNL     1      29.178  26.972  17.450  1.00  0.00    -0.222 N 
HETATM   45  C9  UNL     1      29.392  27.332  18.756  1.00  0.00     0.169 A 
ATOM     46  H8  UNL     1      29.645  27.360  16.631  1.00  0.00     0.198 HD
BRANCH  45  47
HETATM   47  N9  UNL     1      30.215  28.263  19.097  1.00  0.00    -0.381 N 
ATOM     48  H92 UNL     1      31.215  28.213  18.907  1.00  0.00     0.157 HD
ATOM     49  H91 UNL     1      30.038  29.160  19.549  1.00  0.00     0.157 HD
ENDBRANCH  45  47
ENDBRANCH   6  40
TORSDOF 10
ENDMDL
MODEL 5
REMARK VINA RESULT: -8.059099374      3.151      9.629
REMARK  10 active torsions:
REMARK  status: ('A' for Active; 'I' for Inactive)
REMARK    1  A    between atoms: S1_2  and  C2_3 
REMARK    2  A    between atoms: C2_3  and  C3_4 
REMARK    3  A    between atoms: C3_4  and  C4_5 
REMARK    4  A    between atoms: C4_5  and  N1_6 
REMARK    5  A    between atoms: C4_5  and  C5_10 
REMARK       I    between atoms: C5_10  and  N2_12 
REMARK    6  A    between atoms: N2_12  and  N3_14 
REMARK       I    between atoms: N3_14  and  C6_15 
REMARK    7  A    between atoms: C6_15  and  C7_17 
REMARK    8  A    between atoms: N6_22  and  C8_23 
REMARK    9  A    between atoms: C9_29  and  N9_30 
REMARK   10  A    between atoms: C10_33  and  N10_34 
ROOT
HETATM    1  C7  UNL     1      27.690  24.597  24.607  1.00  0.00     0.182 A 
HETATM    2  N4  UNL     1      28.256  23.586  23.861  1.00  0.00    -0.276 N 
ATOM      3  H4  UNL     1      28.629  23.669  22.914  1.00  0.00     0.189 HD
HETATM    4  N5  UNL     1      28.227  22.497  24.591  1.00  0.00    -0.232 N 
ATOM      5  H5  UNL     1      28.587  21.592  24.287  1.00  0.00     0.209 HD
HETATM    6  N6  UNL     1      27.679  22.717  25.754  1.00  0.00    -0.199 N 
HETATM    7  C10 UNL     1      27.335  24.078  25.750  1.00  0.00     0.189 A 
ENDROOT
BRANCH   1   8
HETATM    8  C6  UNL     1      27.518  26.015  24.102  1.00  0.00     0.367 C 
HETATM    9  N3  UNL     1      27.510  26.150  22.747  1.00  0.00    -0.277 NA
HETATM   10  O2  UNL     1      27.404  26.946  24.911  1.00  0.00    -0.247 OA
BRANCH   9  11
HETATM   11  N2  UNL     1      27.501  26.296  21.451  1.00  0.00    -0.197 N 
HETATM   12  C5  UNL     1      28.458  26.778  20.499  1.00  0.00     0.277 C 
HETATM   13  O1  UNL     1      29.579  27.181  20.876  1.00  0.00    -0.269 OA
ATOM     14  H2  UNL     1      26.623  26.004  21.022  1.00  0.00     0.205 HD
BRANCH  12  15
HETATM   15  C4  UNL     1      28.081  26.785  19.067  1.00  0.00     0.278 C 
BRANCH  15  16
HETATM   16  C3  UNL     1      27.030  27.762  18.711  1.00  0.00     0.053 C 
BRANCH  16  17
HETATM   17  C2  UNL     1      27.261  29.175  19.113  1.00  0.00     0.076 C 
BRANCH  17  18
HETATM   18  S1  UNL     1      26.049  29.693  20.370  1.00  0.00    -0.173 SA
HETATM   19  C1  UNL     1      26.809  29.823  21.977  1.00  0.00     0.089 C 
ENDBRANCH  17  18
ENDBRANCH  16  17
ENDBRANCH  15  16
BRANCH  15  20
HETATM   20  N1  UNL     1      27.629  25.428  18.672  1.00  0.00    -0.066 N 
ATOM     21  H13 UNL     1      28.391  24.751  18.666  1.00  0.00     0.275 HD
ATOM     22  H12 UNL     1      27.051  24.986  19.387  1.00  0.00     0.275 HD
ATOM     23  H11 UNL     1      27.155  25.488  17.771  1.00  0.00     0.275 HD
ENDBRANCH  15  20
ENDBRANCH  12  15
ENDBRANCH   9  11
ENDBRANCH   1   8
BRANCH   7  24
HETATM   24  N10 UNL     1      26.619  24.626  26.890  1.00  0.00    -0.217 N 
HETATM   25  N11 UNL     1      25.419  24.171  27.251  1.00  0.00    -0.275 N 
HETATM   26  C11 UNL     1      25.010  24.721  28.366  1.00  0.00     0.135 A 
ATOM     27  H11 UNL     1      24.886  23.479  26.723  1.00  0.00     0.189 HD
HETATM   28  N12 UNL     1      23.883  24.595  29.151  1.00  0.00    -0.344 N 
HETATM   29  C17 UNL     1      25.975  25.592  28.780  1.00  0.00     0.061 A 
HETATM   30  C12 UNL     1      23.728  25.295  30.301  1.00  0.00     0.007 A 
ATOM     31  H12 UNL     1      23.143  23.956  28.858  1.00  0.00     0.167 HD
HETATM   32  C13 UNL     1      22.486  25.134  31.164  1.00  0.00     0.068 C 
HETATM   33  C14 UNL     1      24.707  26.165  30.703  1.00  0.00     0.032 A 
HETATM   34  C15 UNL     1      25.866  26.313  29.911  1.00  0.00    -0.042 A 
HETATM   35  C16 UNL     1      26.924  27.258  30.348  1.00  0.00     0.049 C 
HETATM   36  C18 UNL     1      27.035  25.489  27.753  1.00  0.00     0.137 A 
HETATM   37  N13 UNL     1      28.000  26.290  27.992  1.00  0.00    -0.383 N 
ATOM     38 2H13 UNL     1      28.731  26.219  27.283  1.00  0.00     0.157 HD
ATOM     39 1H13 UNL     1      28.329  26.972  28.674  1.00  0.00     0.157 HD
ENDBRANCH   7  24
BRANCH   6  40
HETATM   40  C8  UNL     1      27.437  21.869  26.862  1.00  0.00     0.198 A 
HETATM   41  N7  UNL     1      26.738  20.727  26.779  1.00  0.00    -0.220 N 
HETATM   42  O3  UNL     1      26.698  20.162  27.965  1.00  0.00    -0.153 OA
ATOM     43  H7  UNL     1      26.308  20.356  25.932  1.00  0.00     0.198 HD
HETATM   44  N8  UNL     1      27.350  20.898  28.834  1.00  0.00    -0.222 N 
HETATM   45  C9  UNL     1      27.834  21.989  28.160  1.00  0.00     0.169 A 
ATOM     46  H8  UNL     1      27.474  20.695  29.825  1.00  0.00     0.198 HD
BRANCH  45  47
HETATM   47  N9  UNL     1      28.558  22.893  28.724  1.00  0.00    -0.381 N 
ATOM     48  H92 UNL     1      29.537  23.048  28.482  1.00  0.00     0.157 HD
ATOM     49  H91 UNL     1      28.308  23.586  29.430  1.00  0.00     0.157 HD
ENDBRANCH  45  47
ENDBRANCH   6  40
TORSDOF 10
ENDMDL
