MODEL 1
REMARK VINA RESULT: -8.857442142      0.000      0.000
REMARK  13 active torsions:
REMARK  status: ('A' for Active; 'I' for Inactive)
REMARK    1  A    between atoms: O1_2  and  C2_3 
REMARK    2  A    between atoms: C5_6  and  C6_7 
REMARK    3  A    between atoms: N1_11  and  C9_12 
REMARK    4  A    between atoms: C9_12  and  C10_13 
REMARK    5  A    between atoms: C10_13  and  O3_14 
REMARK    6  A    between atoms: C10_13  and  N2_16 
REMARK    7  A    between atoms: N2_16  and  N3_17 
REMARK       I    between atoms: N3_17  and  C11_19 
REMARK    8  A    between atoms: N5_21  and  N6_23 
REMARK    9  A    between atoms: C12_25  and  C13_26 
REMARK   10  A    between atoms: C16_29  and  N7_30 
REMARK   11  A    between atoms: C18_34  and  O6_35 
REMARK   12  A    between atoms: C19_37  and  N8_38 
REMARK   13  A    between atoms: N9_41  and  N10_42 
ROOT
HETATM    1  C10 UNL     1      28.375  26.613  21.452  1.00  0.00     0.250 C 
ENDROOT
BRANCH   1   2
HETATM    2  C9  UNL     1      29.070  27.302  22.598  1.00  0.00     0.202 C 
BRANCH   2   3
HETATM    3  N1  UNL     1      28.451  27.100  23.883  1.00  0.00    -0.142 N 
HETATM    4  C8  UNL     1      27.433  27.895  24.273  1.00  0.00     0.264 A 
HETATM    5  C7  UNL     1      26.791  27.783  25.487  1.00  0.00     0.108 A 
HETATM    6  O2  UNL     1      27.049  28.796  23.468  1.00  0.00    -0.267 OA
HETATM    7  C6  UNL     1      27.214  26.803  26.353  1.00  0.00     0.089 A 
HETATM    8  N9  UNL     1      28.225  26.012  25.971  1.00  0.00    -0.092 N 
HETATM    9  C19 UNL     1      28.837  26.146  24.771  1.00  0.00     0.702 A 
BRANCH   7  10
HETATM   10  C5  UNL     1      26.585  26.628  27.644  1.00  0.00    -0.006 A 
HETATM   11  C4  UNL     1      27.140  27.114  28.806  1.00  0.00     0.016 A 
HETATM   12  C3  UNL     1      26.484  26.913  30.019  1.00  0.00     0.037 A 
HETATM   13  C2  UNL     1      25.287  26.238  30.104  1.00  0.00     0.068 A 
HETATM   14  C21 UNL     1      24.738  25.754  28.931  1.00  0.00     0.037 A 
HETATM   15  C20 UNL     1      25.380  25.948  27.720  1.00  0.00     0.016 A 
BRANCH  13  16
HETATM   16  O1  UNL     1      24.618  26.025  31.281  1.00  0.00    -0.356 OA
HETATM   17  C1  UNL     1      23.244  26.151  31.489  1.00  0.00     0.210 C 
ENDBRANCH  13  16
ENDBRANCH   7  10
BRANCH   8  18
HETATM   18  N10 UNL     1      28.632  25.019  26.883  1.00  0.00    -0.324 N 
ATOM     19 2H10 UNL     1      28.193  24.940  27.800  1.00  0.00     0.178 HD
ATOM     20 1H10 UNL     1      29.378  24.394  26.578  1.00  0.00     0.178 HD
ENDBRANCH   8  18
BRANCH   9  21
HETATM   21  N8  UNL     1      29.816  25.370  24.444  1.00  0.00    -0.233 N 
ATOM     22  H82 UNL     1      30.038  25.201  23.464  1.00  0.00     0.174 HD
ATOM     23  H81 UNL     1      30.351  24.929  25.193  1.00  0.00     0.174 HD
ENDBRANCH   9  21
ENDBRANCH   2   3
ENDBRANCH   1   2
BRANCH   1  24
HETATM   24  O3  UNL     1      27.171  26.084  21.909  1.00  0.00    -0.376 OA
ATOM     25  H3  UNL     1      26.672  25.770  21.164  1.00  0.00     0.211 HD
ENDBRANCH   1  24
BRANCH   1  26
HETATM   26  N2  UNL     1      28.150  27.398  20.300  1.00  0.00    -0.105 NA
BRANCH  26  27
HETATM   27  N3  UNL     1      26.997  28.169  20.443  1.00  0.00    -0.274 N 
HETATM   28  C11 UNL     1      26.879  29.559  20.209  1.00  0.00     0.218 C 
HETATM   29  N4  UNL     1      26.351  30.127  19.018  1.00  0.00    -0.061 NA
HETATM   30  N5  UNL     1      27.264  30.368  21.132  1.00  0.00    -0.273 N 
ATOM     31  H5  UNL     1      27.629  29.926  21.975  1.00  0.00     0.189 HD
ATOM     32  H3  UNL     1      26.154  27.682  20.747  1.00  0.00     0.185 HD
BRANCH  30  33
HETATM   33  N6  UNL     1      27.254  31.692  21.147  1.00  0.00    -0.309 N 
HETATM   34  C12 UNL     1      26.604  32.668  21.542  1.00  0.00     0.121 C 
ATOM     35  H6  UNL     1      28.081  32.029  20.654  1.00  0.00     0.186 HD
BRANCH  34  36
HETATM   36  C13 UNL     1      25.346  32.619  22.297  1.00  0.00     0.014 A 
HETATM   37  C14 UNL     1      24.184  33.211  21.854  1.00  0.00     0.018 A 
HETATM   38  C15 UNL     1      22.988  33.166  22.566  1.00  0.00     0.037 A 
HETATM   39  C16 UNL     1      22.926  32.511  23.770  1.00  0.00     0.105 A 
HETATM   40  C17 UNL     1      24.077  31.917  24.222  1.00  0.00     0.073 A 
HETATM   41  C18 UNL     1      25.263  31.965  23.509  1.00  0.00     0.079 A 
BRANCH  39  42
HETATM   42  N7  UNL     1      21.705  32.452  24.522  1.00  0.00    -0.116 N 
HETATM   43  O4  UNL     1      21.513  33.304  25.391  1.00  0.00    -0.532 OA
HETATM   44  O5  UNL     1      20.776  31.476  24.281  1.00  0.00    -0.532 OA
ENDBRANCH  39  42
BRANCH  41  45
HETATM   45  O6  UNL     1      26.342  31.340  24.055  1.00  0.00    -0.360 OA
ATOM     46  H6  UNL     1      26.244  30.677  24.729  1.00  0.00     0.217 HD
ENDBRANCH  41  45
ENDBRANCH  34  36
ENDBRANCH  30  33
ENDBRANCH  26  27
ENDBRANCH   1  26
TORSDOF 13
ENDMDL
MODEL 2
REMARK VINA RESULT: -8.851146042      0.920      1.331
REMARK  13 active torsions:
REMARK  status: ('A' for Active; 'I' for Inactive)
REMARK    1  A    between atoms: O1_2  and  C2_3 
REMARK    2  A    between atoms: C5_6  and  C6_7 
REMARK    3  A    between atoms: N1_11  and  C9_12 
REMARK    4  A    between atoms: C9_12  and  C10_13 
REMARK    5  A    between atoms: C10_13  and  O3_14 
REMARK    6  A    between atoms: C10_13  and  N2_16 
REMARK    7  A    between atoms: N2_16  and  N3_17 
REMARK       I    between atoms: N3_17  and  C11_19 
REMARK    8  A    between atoms: N5_21  and  N6_23 
REMARK    9  A    between atoms: C12_25  and  C13_26 
REMARK   10  A    between atoms: C16_29  and  N7_30 
REMARK   11  A    between atoms: C18_34  and  O6_35 
REMARK   12  A    between atoms: C19_37  and  N8_38 
REMARK   13  A    between atoms: N9_41  and  N10_42 
ROOT
HETATM    1  C10 UNL     1      28.456  26.384  21.797  1.00  0.00     0.250 C 
ENDROOT
BRANCH   1   2
HETATM    2  C9  UNL     1      29.125  26.899  23.046  1.00  0.00     0.202 C 
BRANCH   2   3
HETATM    3  N1  UNL     1      28.365  26.710  24.255  1.00  0.00    -0.142 N 
HETATM    4  C8  UNL     1      27.694  27.747  24.799  1.00  0.00     0.264 A 
HETATM    5  C7  UNL     1      26.953  27.661  25.957  1.00  0.00     0.108 A 
HETATM    6  O2  UNL     1      27.753  28.864  24.201  1.00  0.00    -0.267 OA
HETATM    7  C6  UNL     1      26.895  26.447  26.598  1.00  0.00     0.089 A 
HETATM    8  N9  UNL     1      27.559  25.415  26.062  1.00  0.00    -0.092 N 
HETATM    9  C19 UNL     1      28.280  25.529  24.922  1.00  0.00     0.702 A 
BRANCH   7  10
HETATM   10  C5  UNL     1      26.135  26.284  27.818  1.00  0.00    -0.006 A 
HETATM   11  C4  UNL     1      24.894  25.689  27.841  1.00  0.00     0.016 A 
HETATM   12  C3  UNL     1      24.213  25.561  29.050  1.00  0.00     0.037 A 
HETATM   13  C2  UNL     1      24.738  26.013  30.239  1.00  0.00     0.068 A 
HETATM   14  C21 UNL     1      25.984  26.609  30.206  1.00  0.00     0.037 A 
HETATM   15  C20 UNL     1      26.671  26.741  29.012  1.00  0.00     0.016 A 
BRANCH  13  16
HETATM   16  O1  UNL     1      24.092  25.902  31.444  1.00  0.00    -0.356 OA
HETATM   17  C1  UNL     1      22.824  26.392  31.753  1.00  0.00     0.210 C 
ENDBRANCH  13  16
ENDBRANCH   7  10
BRANCH   8  18
HETATM   18  N10 UNL     1      27.477  24.185  26.745  1.00  0.00    -0.324 N 
ATOM     19 2H10 UNL     1      26.742  24.017  27.432  1.00  0.00     0.178 HD
ATOM     20 1H10 UNL     1      28.183  23.486  26.517  1.00  0.00     0.178 HD
ENDBRANCH   8  18
BRANCH   9  21
HETATM   21  N8  UNL     1      28.916  24.512  24.444  1.00  0.00    -0.233 N 
ATOM     22  H82 UNL     1      29.337  24.554  23.517  1.00  0.00     0.174 HD
ATOM     23  H81 UNL     1      28.976  23.670  25.016  1.00  0.00     0.174 HD
ENDBRANCH   9  21
ENDBRANCH   2   3
ENDBRANCH   1   2
BRANCH   1  24
HETATM   24  O3  UNL     1      28.695  25.017  21.691  1.00  0.00    -0.376 OA
ATOM     25  H3  UNL     1      28.496  24.739  20.805  1.00  0.00     0.211 HD
ENDBRANCH   1  24
BRANCH   1  26
HETATM   26  N2  UNL     1      27.072  26.640  21.684  1.00  0.00    -0.105 NA
BRANCH  26  27
HETATM   27  N3  UNL     1      26.830  27.667  20.772  1.00  0.00    -0.274 N 
HETATM   28  C11 UNL     1      27.325  28.990  20.843  1.00  0.00     0.218 C 
HETATM   29  N4  UNL     1      28.451  29.461  20.115  1.00  0.00    -0.061 NA
HETATM   30  N5  UNL     1      26.719  29.829  21.606  1.00  0.00    -0.273 N 
ATOM     31  H5  UNL     1      25.911  29.458  22.106  1.00  0.00     0.189 HD
ATOM     32  H3  UNL     1      26.237  27.442  19.974  1.00  0.00     0.185 HD
BRANCH  30  33
HETATM   33  N6  UNL     1      26.990  31.104  21.836  1.00  0.00    -0.309 N 
HETATM   34  C12 UNL     1      26.500  32.152  22.275  1.00  0.00     0.121 C 
ATOM     35  H6  UNL     1      27.951  31.290  21.548  1.00  0.00     0.186 HD
BRANCH  34  36
HETATM   36  C13 UNL     1      25.137  32.316  22.795  1.00  0.00     0.014 A 
HETATM   37  C14 UNL     1      24.259  33.260  22.310  1.00  0.00     0.018 A 
HETATM   38  C15 UNL     1      22.965  33.418  22.799  1.00  0.00     0.037 A 
HETATM   39  C16 UNL     1      22.508  32.614  23.814  1.00  0.00     0.105 A 
HETATM   40  C17 UNL     1      23.373  31.670  24.306  1.00  0.00     0.073 A 
HETATM   41  C18 UNL     1      24.659  31.518  23.814  1.00  0.00     0.079 A 
BRANCH  39  42
HETATM   42  N7  UNL     1      21.179  32.759  24.334  1.00  0.00    -0.116 N 
HETATM   43  O4  UNL     1      20.306  31.990  23.930  1.00  0.00    -0.532 OA
HETATM   44  O5  UNL     1      20.886  33.727  25.258  1.00  0.00    -0.532 OA
ENDBRANCH  39  42
BRANCH  41  45
HETATM   45  O6  UNL     1      25.429  30.548  24.379  1.00  0.00    -0.360 OA
ATOM     46  H6  UNL     1      25.085  29.966  25.046  1.00  0.00     0.217 HD
ENDBRANCH  41  45
ENDBRANCH  34  36
ENDBRANCH  30  33
ENDBRANCH  26  27
ENDBRANCH   1  26
TORSDOF 13
ENDMDL
MODEL 3
REMARK VINA RESULT: -8.716652004      1.128      1.689
REMARK  13 active torsions:
REMARK  status: ('A' for Active; 'I' for Inactive)
REMARK    1  A    between atoms: O1_2  and  C2_3 
REMARK    2  A    between atoms: C5_6  and  C6_7 
REMARK    3  A    between atoms: N1_11  and  C9_12 
REMARK    4  A    between atoms: C9_12  and  C10_13 
REMARK    5  A    between atoms: C10_13  and  O3_14 
REMARK    6  A    between atoms: C10_13  and  N2_16 
REMARK    7  A    between atoms: N2_16  and  N3_17 
REMARK       I    between atoms: N3_17  and  C11_19 
REMARK    8  A    between atoms: N5_21  and  N6_23 
REMARK    9  A    between atoms: C12_25  and  C13_26 
REMARK   10  A    between atoms: C16_29  and  N7_30 
REMARK   11  A    between atoms: C18_34  and  O6_35 
REMARK   12  A    between atoms: C19_37  and  N8_38 
REMARK   13  A    between atoms: N9_41  and  N10_42 
ROOT
HETATM    1  C10 UNL     1      28.489  26.728  21.428  1.00  0.00     0.250 C 
ENDROOT
BRANCH   1   2
HETATM    2  C9  UNL     1      29.325  27.159  22.605  1.00  0.00     0.202 C 
BRANCH   2   3
HETATM    3  N1  UNL     1      28.669  27.043  23.881  1.00  0.00    -0.142 N 
HETATM    4  C8  UNL     1      28.702  25.874  24.554  1.00  0.00     0.264 A 
HETATM    5  C7  UNL     1      28.093  25.669  25.773  1.00  0.00     0.108 A 
HETATM    6  O2  UNL     1      29.335  24.910  24.026  1.00  0.00    -0.267 OA
HETATM    7  C6  UNL     1      27.409  26.719  26.337  1.00  0.00     0.089 A 
HETATM    8  N9  UNL     1      27.372  27.881  25.674  1.00  0.00    -0.092 N 
HETATM    9  C19 UNL     1      27.980  28.054  24.477  1.00  0.00     0.702 A 
BRANCH   7  10
HETATM   10  C5  UNL     1      26.746  26.576  27.615  1.00  0.00    -0.006 A 
HETATM   11  C4  UNL     1      27.313  27.010  28.792  1.00  0.00     0.016 A 
HETATM   12  C3  UNL     1      26.623  26.843  29.991  1.00  0.00     0.037 A 
HETATM   13  C2  UNL     1      25.380  26.253  30.047  1.00  0.00     0.068 A 
HETATM   14  C21 UNL     1      24.820  25.821  28.860  1.00  0.00     0.037 A 
HETATM   15  C20 UNL     1      25.495  25.981  27.663  1.00  0.00     0.016 A 
BRANCH  13  16
HETATM   16  O1  UNL     1      24.677  26.075  31.211  1.00  0.00    -0.356 OA
HETATM   17  C1  UNL     1      23.295  25.932  31.330  1.00  0.00     0.210 C 
ENDBRANCH  13  16
ENDBRANCH   7  10
BRANCH   8  18
HETATM   18  N10 UNL     1      26.663  28.936  26.282  1.00  0.00    -0.324 N 
ATOM     19 2H10 UNL     1      27.145  29.779  26.592  1.00  0.00     0.178 HD
ATOM     20 1H10 UNL     1      25.657  28.810  26.391  1.00  0.00     0.178 HD
ENDBRANCH   8  18
BRANCH   9  21
HETATM   21  N8  UNL     1      27.912  29.187  23.863  1.00  0.00    -0.233 N 
ATOM     22  H82 UNL     1      27.017  29.663  23.752  1.00  0.00     0.174 HD
ATOM     23  H81 UNL     1      28.773  29.585  23.488  1.00  0.00     0.174 HD
ENDBRANCH   9  21
ENDBRANCH   2   3
ENDBRANCH   1   2
BRANCH   1  24
HETATM   24  O3  UNL     1      28.544  25.340  21.321  1.00  0.00    -0.376 OA
ATOM     25  H3  UNL     1      29.399  25.092  20.991  1.00  0.00     0.211 HD
ENDBRANCH   1  24
BRANCH   1  26
HETATM   26  N2  UNL     1      27.144  27.157  21.431  1.00  0.00    -0.105 NA
BRANCH  26  27
HETATM   27  N3  UNL     1      26.915  28.081  20.413  1.00  0.00    -0.274 N 
HETATM   28  C11 UNL     1      27.279  29.448  20.420  1.00  0.00     0.218 C 
HETATM   29  N4  UNL     1      28.432  29.971  19.775  1.00  0.00    -0.061 NA
HETATM   30  N5  UNL     1      26.517  30.280  21.038  1.00  0.00    -0.273 N 
ATOM     31  H5  UNL     1      25.694  29.870  21.481  1.00  0.00     0.189 HD
ATOM     32  H3  UNL     1      26.438  27.738  19.579  1.00  0.00     0.185 HD
BRANCH  30  33
HETATM   33  N6  UNL     1      26.645  31.589  21.183  1.00  0.00    -0.309 N 
HETATM   34  C12 UNL     1      26.094  32.585  21.669  1.00  0.00     0.121 C 
ATOM     35  H6  UNL     1      27.511  31.884  20.731  1.00  0.00     0.186 HD
BRANCH  34  36
HETATM   36  C13 UNL     1      24.825  32.596  22.408  1.00  0.00     0.014 A 
HETATM   37  C14 UNL     1      23.780  33.434  22.088  1.00  0.00     0.018 A 
HETATM   38  C15 UNL     1      22.575  33.446  22.786  1.00  0.00     0.037 A 
HETATM   39  C16 UNL     1      22.382  32.598  23.847  1.00  0.00     0.105 A 
HETATM   40  C17 UNL     1      23.416  31.758  24.175  1.00  0.00     0.073 A 
HETATM   41  C18 UNL     1      24.613  31.750  23.477  1.00  0.00     0.079 A 
BRANCH  39  42
HETATM   42  N7  UNL     1      21.150  32.594  24.580  1.00  0.00    -0.116 N 
HETATM   43  O4  UNL     1      20.232  31.879  24.175  1.00  0.00    -0.532 OA
HETATM   44  O5  UNL     1      20.994  33.364  25.703  1.00  0.00    -0.532 OA
ENDBRANCH  39  42
BRANCH  41  45
HETATM   45  O6  UNL     1      25.568  30.874  23.892  1.00  0.00    -0.360 OA
ATOM     46  H6  UNL     1      26.253  31.135  24.496  1.00  0.00     0.217 HD
ENDBRANCH  41  45
ENDBRANCH  34  36
ENDBRANCH  30  33
ENDBRANCH  26  27
ENDBRANCH   1  26
TORSDOF 13
ENDMDL
MODEL 4
REMARK VINA RESULT: -8.583378503      2.093      2.755
REMARK  13 active torsions:
REMARK  status: ('A' for Active; 'I' for Inactive)
REMARK    1  A    between atoms: O1_2  and  C2_3 
REMARK    2  A    between atoms: C5_6  and  C6_7 
REMARK    3  A    between atoms: N1_11  and  C9_12 
REMARK    4  A    between atoms: C9_12  and  C10_13 
REMARK    5  A    between atoms: C10_13  and  O3_14 
REMARK    6  A    between atoms: C10_13  and  N2_16 
REMARK    7  A    between atoms: N2_16  and  N3_17 
REMARK       I    between atoms: N3_17  and  C11_19 
REMARK    8  A    between atoms: N5_21  and  N6_23 
REMARK    9  A    between atoms: C12_25  and  C13_26 
REMARK   10  A    between atoms: C16_29  and  N7_30 
REMARK   11  A    between atoms: C18_34  and  O6_35 
REMARK   12  A    between atoms: C19_37  and  N8_38 
REMARK   13  A    between atoms: N9_41  and  N10_42 
ROOT
HETATM    1  C10 UNL     1      28.498  27.303  22.921  1.00  0.00     0.250 C 
ENDROOT
BRANCH   1   2
HETATM    2  C9  UNL     1      29.015  27.477  24.325  1.00  0.00     0.202 C 
BRANCH   2   3
HETATM    3  N1  UNL     1      28.089  27.091  25.358  1.00  0.00    -0.142 N 
HETATM    4  C8  UNL     1      27.296  28.018  25.934  1.00  0.00     0.264 A 
HETATM    5  C7  UNL     1      26.391  27.742  26.936  1.00  0.00     0.108 A 
HETATM    6  O2  UNL     1      27.395  29.214  25.524  1.00  0.00    -0.267 OA
HETATM    7  C6  UNL     1      26.292  26.443  27.375  1.00  0.00     0.089 A 
HETATM    8  N9  UNL     1      27.076  25.520  26.807  1.00  0.00    -0.092 N 
HETATM    9  C19 UNL     1      27.957  25.820  25.824  1.00  0.00     0.702 A 
BRANCH   7  10
HETATM   10  C5  UNL     1      25.362  26.081  28.423  1.00  0.00    -0.006 A 
HETATM   11  C4  UNL     1      25.553  26.447  29.736  1.00  0.00     0.016 A 
HETATM   12  C3  UNL     1      24.620  26.068  30.700  1.00  0.00     0.037 A 
HETATM   13  C2  UNL     1      23.500  25.331  30.387  1.00  0.00     0.068 A 
HETATM   14  C21 UNL     1      23.317  24.969  29.066  1.00  0.00     0.037 A 
HETATM   15  C20 UNL     1      24.236  25.340  28.100  1.00  0.00     0.016 A 
BRANCH  13  16
HETATM   16  O1  UNL     1      22.565  24.943  31.312  1.00  0.00    -0.356 OA
HETATM   17  C1  UNL     1      21.890  23.723  31.346  1.00  0.00     0.210 C 
ENDBRANCH  13  16
ENDBRANCH   7  10
BRANCH   8  18
HETATM   18  N10 UNL     1      26.946  24.199  27.281  1.00  0.00    -0.324 N 
ATOM     19 2H10 UNL     1      26.958  24.000  28.281  1.00  0.00     0.178 HD
ATOM     20 1H10 UNL     1      26.843  23.468  26.578  1.00  0.00     0.178 HD
ENDBRANCH   8  18
BRANCH   9  21
HETATM   21  N8  UNL     1      28.704  24.903  25.309  1.00  0.00    -0.233 N 
ATOM     22  H82 UNL     1      29.433  24.456  25.865  1.00  0.00     0.174 HD
ATOM     23  H81 UNL     1      28.549  24.646  24.334  1.00  0.00     0.174 HD
ENDBRANCH   9  21
ENDBRANCH   2   3
ENDBRANCH   1   2
BRANCH   1  24
HETATM   24  O3  UNL     1      27.961  28.513  22.486  1.00  0.00    -0.376 OA
ATOM     25  H3  UNL     1      28.205  28.648  21.578  1.00  0.00     0.211 HD
ENDBRANCH   1  24
BRANCH   1  26
HETATM   26  N2  UNL     1      29.426  26.820  21.972  1.00  0.00    -0.105 NA
BRANCH  26  27
HETATM   27  N3  UNL     1      28.789  26.496  20.775  1.00  0.00    -0.274 N 
HETATM   28  C11 UNL     1      28.782  27.266  19.589  1.00  0.00     0.218 C 
HETATM   29  N4  UNL     1      29.627  27.022  18.473  1.00  0.00    -0.061 NA
HETATM   30  N5  UNL     1      27.953  28.246  19.502  1.00  0.00    -0.273 N 
ATOM     31  H5  UNL     1      27.357  28.386  20.318  1.00  0.00     0.189 HD
ATOM     32  H3  UNL     1      28.277  25.614  20.753  1.00  0.00     0.185 HD
BRANCH  30  33
HETATM   33  N6  UNL     1      27.762  29.099  18.509  1.00  0.00    -0.309 N 
HETATM   34  C12 UNL     1      27.158  30.135  18.202  1.00  0.00     0.121 C 
ATOM     35  H6  UNL     1      28.312  28.792  17.705  1.00  0.00     0.186 HD
BRANCH  34  36
HETATM   36  C13 UNL     1      26.258  30.900  19.073  1.00  0.00     0.014 A 
HETATM   37  C14 UNL     1      24.980  31.256  18.703  1.00  0.00     0.018 A 
HETATM   38  C15 UNL     1      24.123  31.980  19.527  1.00  0.00     0.037 A 
HETATM   39  C16 UNL     1      24.537  32.377  20.774  1.00  0.00     0.105 A 
HETATM   40  C17 UNL     1      25.808  32.028  21.155  1.00  0.00     0.073 A 
HETATM   41  C18 UNL     1      26.655  31.307  20.330  1.00  0.00     0.079 A 
BRANCH  39  42
HETATM   42  N7  UNL     1      23.672  33.125  21.640  1.00  0.00    -0.116 N 
HETATM   43  O4  UNL     1      24.157  33.638  22.650  1.00  0.00    -0.532 OA
HETATM   44  O5  UNL     1      22.340  33.267  21.354  1.00  0.00    -0.532 OA
ENDBRANCH  39  42
BRANCH  41  45
HETATM   45  O6  UNL     1      27.895  31.018  20.814  1.00  0.00    -0.360 OA
ATOM     46  H6  UNL     1      28.082  31.036  21.745  1.00  0.00     0.217 HD
ENDBRANCH  41  45
ENDBRANCH  34  36
ENDBRANCH  30  33
ENDBRANCH  26  27
ENDBRANCH   1  26
TORSDOF 13
ENDMDL
MODEL 5
REMARK VINA RESULT: -8.501264239      1.002      1.299
REMARK  13 active torsions:
REMARK  status: ('A' for Active; 'I' for Inactive)
REMARK    1  A    between atoms: O1_2  and  C2_3 
REMARK    2  A    between atoms: C5_6  and  C6_7 
REMARK    3  A    between atoms: N1_11  and  C9_12 
REMARK    4  A    between atoms: C9_12  and  C10_13 
REMARK    5  A    between atoms: C10_13  and  O3_14 
REMARK    6  A    between atoms: C10_13  and  N2_16 
REMARK    7  A    between atoms: N2_16  and  N3_17 
REMARK       I    between atoms: N3_17  and  C11_19 
REMARK    8  A    between atoms: N5_21  and  N6_23 
REMARK    9  A    between atoms: C12_25  and  C13_26 
REMARK   10  A    between atoms: C16_29  and  N7_30 
REMARK   11  A    between atoms: C18_34  and  O6_35 
REMARK   12  A    between atoms: C19_37  and  N8_38 
REMARK   13  A    between atoms: N9_41  and  N10_42 
ROOT
HETATM    1  C10 UNL     1      28.521  26.307  21.527  1.00  0.00     0.250 C 
ENDROOT
BRANCH   1   2
HETATM    2  C9  UNL     1      29.045  27.218  22.608  1.00  0.00     0.202 C 
BRANCH   2   3
HETATM    3  N1  UNL     1      28.430  27.035  23.897  1.00  0.00    -0.142 N 
HETATM    4  C8  UNL     1      27.393  27.815  24.267  1.00  0.00     0.264 A 
HETATM    5  C7  UNL     1      26.753  27.718  25.483  1.00  0.00     0.108 A 
HETATM    6  O2  UNL     1      26.988  28.686  23.439  1.00  0.00    -0.267 OA
HETATM    7  C6  UNL     1      27.198  26.771  26.374  1.00  0.00     0.089 A 
HETATM    8  N9  UNL     1      28.227  25.995  26.012  1.00  0.00    -0.092 N 
HETATM    9  C19 UNL     1      28.837  26.112  24.809  1.00  0.00     0.702 A 
BRANCH   7  10
HETATM   10  C5  UNL     1      26.573  26.614  27.669  1.00  0.00    -0.006 A 
HETATM   11  C4  UNL     1      27.120  27.133  28.820  1.00  0.00     0.016 A 
HETATM   12  C3  UNL     1      26.468  26.948  30.037  1.00  0.00     0.037 A 
HETATM   13  C2  UNL     1      25.281  26.257  30.137  1.00  0.00     0.068 A 
HETATM   14  C21 UNL     1      24.740  25.740  28.976  1.00  0.00     0.037 A 
HETATM   15  C20 UNL     1      25.378  25.917  27.760  1.00  0.00     0.016 A 
BRANCH  13  16
HETATM   16  O1  UNL     1      24.616  26.058  31.320  1.00  0.00    -0.356 OA
HETATM   17  C1  UNL     1      23.249  26.225  31.539  1.00  0.00     0.210 C 
ENDBRANCH  13  16
ENDBRANCH   7  10
BRANCH   8  18
HETATM   18  N10 UNL     1      28.657  25.034  26.949  1.00  0.00    -0.324 N 
ATOM     19 2H10 UNL     1      29.167  25.314  27.786  1.00  0.00     0.178 HD
ATOM     20 1H10 UNL     1      28.433  24.061  26.744  1.00  0.00     0.178 HD
ENDBRANCH   8  18
BRANCH   9  21
HETATM   21  N8  UNL     1      29.834  25.352  24.503  1.00  0.00    -0.233 N 
ATOM     22  H82 UNL     1      29.776  24.716  23.708  1.00  0.00     0.174 HD
ATOM     23  H81 UNL     1      30.673  25.402  25.081  1.00  0.00     0.174 HD
ENDBRANCH   9  21
ENDBRANCH   2   3
ENDBRANCH   1   2
BRANCH   1  24
HETATM   24  O3  UNL     1      28.658  24.987  21.947  1.00  0.00    -0.376 OA
ATOM     25  H3  UNL     1      29.446  24.623  21.561  1.00  0.00     0.211 HD
ENDBRANCH   1  24
BRANCH   1  26
HETATM   26  N2  UNL     1      27.194  26.543  21.106  1.00  0.00    -0.105 NA
BRANCH  26  27
HETATM   27  N3  UNL     1      27.162  27.453  20.051  1.00  0.00    -0.274 N 
HETATM   28  C11 UNL     1      27.655  28.778  20.067  1.00  0.00     0.218 C 
HETATM   29  N4  UNL     1      28.914  29.168  19.535  1.00  0.00    -0.061 NA
HETATM   30  N5  UNL     1      26.920  29.697  20.586  1.00  0.00    -0.273 N 
ATOM     31  H5  UNL     1      26.020  29.383  20.949  1.00  0.00     0.189 HD
ATOM     32  H3  UNL     1      26.740  27.131  19.180  1.00  0.00     0.185 HD
BRANCH  30  33
HETATM   33  N6  UNL     1      27.160  30.993  20.716  1.00  0.00    -0.309 N 
HETATM   34  C12 UNL     1      26.721  32.029  21.229  1.00  0.00     0.121 C 
ATOM     35  H6  UNL     1      28.018  31.217  20.211  1.00  0.00     0.186 HD
BRANCH  34  36
HETATM   36  C13 UNL     1      25.504  32.142  22.042  1.00  0.00     0.014 A 
HETATM   37  C14 UNL     1      25.329  31.461  23.226  1.00  0.00     0.018 A 
HETATM   38  C15 UNL     1      24.176  31.566  24.001  1.00  0.00     0.037 A 
HETATM   39  C16 UNL     1      23.145  32.376  23.597  1.00  0.00     0.105 A 
HETATM   40  C17 UNL     1      23.308  33.061  22.419  1.00  0.00     0.073 A 
HETATM   41  C18 UNL     1      24.457  32.952  21.653  1.00  0.00     0.079 A 
BRANCH  39  42
HETATM   42  N7  UNL     1      21.948  32.500  24.378  1.00  0.00    -0.116 N 
HETATM   43  O4  UNL     1      21.801  33.511  25.065  1.00  0.00    -0.532 OA
HETATM   44  O5  UNL     1      20.992  31.519  24.363  1.00  0.00    -0.532 OA
ENDBRANCH  39  42
BRANCH  41  45
HETATM   45  O6  UNL     1      24.507  33.678  20.503  1.00  0.00    -0.360 OA
ATOM     46  H6  UNL     1      23.965  33.461  19.754  1.00  0.00     0.217 HD
ENDBRANCH  41  45
ENDBRANCH  34  36
ENDBRANCH  30  33
ENDBRANCH  26  27
ENDBRANCH   1  26
TORSDOF 13
ENDMDL
