MODEL 1
REMARK VINA RESULT: -5.440750833      0.000      0.000
REMARK  5 active torsions:
REMARK  status: ('A' for Active; 'I' for Inactive)
REMARK       I    between atoms: C1_4  and  N3_6 
REMARK    1  A    between atoms: N3_6  and  C2_8 
REMARK    2  A    between atoms: C2_8  and  C3_9 
REMARK    3  A    between atoms: C3_9  and  N4_10 
REMARK    4  A    between atoms: C6_13  and  N5_14 
REMARK    5  A    between atoms: N5_14  and  C7_16 
ROOT
HETATM    1  N4  UNL     1      -1.408  14.548  17.483  1.00  0.00    -0.411 N 
HETATM    2  C4  UNL     1      -0.968  15.449  16.468  1.00  0.00     0.119 C 
HETATM    3  C5  UNL     1      -1.962  15.662  15.352  1.00  0.00     0.044 C 
HETATM    4  C6  UNL     1      -3.307  16.051  15.907  1.00  0.00     0.086 C 
HETATM    5  C8  UNL     1      -3.277  16.023  17.422  1.00  0.00     0.044 C 
HETATM    6  C9  UNL     1      -2.780  14.650  17.824  1.00  0.00     0.119 C 
ENDROOT
BRANCH   1   7
HETATM    7  C3  UNL     1      -0.862  13.232  17.424  1.00  0.00     0.136 C 
BRANCH   7   8
HETATM    8  C2  UNL     1      -1.816  12.168  17.005  1.00  0.00     0.141 C 
BRANCH   8   9
HETATM    9  N3  UNL     1      -1.570  11.848  15.618  1.00  0.00    -0.363 N 
HETATM   10  C1  UNL     1      -2.479  12.101  14.560  1.00  0.00     0.181 C 
HETATM   11  N1  UNL     1      -3.703  12.464  14.807  1.00  0.00    -0.374 N 
HETATM   12  N2  UNL     1      -2.083  11.957  13.211  1.00  0.00    -0.064 NA
ATOM     13  H12 UNL     1      -4.357  12.646  14.046  1.00  0.00     0.158 HD
ATOM     14  H11 UNL     1      -3.989  12.568  15.781  1.00  0.00     0.158 HD
ATOM     15  H3  UNL     1      -0.680  11.409  15.383  1.00  0.00     0.162 HD
ENDBRANCH   8   9
ENDBRANCH   7   8
ENDBRANCH   1   7
BRANCH   4  16
HETATM   16  N5  UNL     1      -3.767  17.319  15.425  1.00  0.00    -0.365 N 
ATOM     17  H5  UNL     1      -4.768  17.472  15.306  1.00  0.00     0.162 HD
BRANCH  16  18
HETATM   18  C7  UNL     1      -2.869  18.360  15.112  1.00  0.00     0.181 C 
HETATM   19  N6  UNL     1      -2.453  18.597  13.782  1.00  0.00    -0.070 NA
HETATM   20  S1  UNL     1      -2.291  19.318  16.301  1.00  0.00    -0.044 SA
ENDBRANCH  16  18
ENDBRANCH   4  16
TORSDOF 5
ENDMDL
MODEL 2
REMARK VINA RESULT: -5.368345945      1.586      1.861
REMARK  5 active torsions:
REMARK  status: ('A' for Active; 'I' for Inactive)
REMARK       I    between atoms: C1_4  and  N3_6 
REMARK    1  A    between atoms: N3_6  and  C2_8 
REMARK    2  A    between atoms: C2_8  and  C3_9 
REMARK    3  A    between atoms: C3_9  and  N4_10 
REMARK    4  A    between atoms: C6_13  and  N5_14 
REMARK    5  A    between atoms: N5_14  and  C7_16 
ROOT
HETATM    1  N4  UNL     1      -0.975  14.165  17.926  1.00  0.00    -0.411 N 
HETATM    2  C4  UNL     1      -1.002  15.073  16.826  1.00  0.00     0.119 C 
HETATM    3  C5  UNL     1      -2.388  15.510  16.414  1.00  0.00     0.044 C 
HETATM    4  C6  UNL     1      -3.152  16.038  17.600  1.00  0.00     0.086 C 
HETATM    5  C8  UNL     1      -2.328  15.888  18.863  1.00  0.00     0.044 C 
HETATM    6  C9  UNL     1      -1.920  14.431  18.948  1.00  0.00     0.119 C 
ENDROOT
BRANCH   1   7
HETATM    7  C3  UNL     1      -0.762  12.795  17.596  1.00  0.00     0.136 C 
BRANCH   7   8
HETATM    8  C2  UNL     1      -1.934  12.098  16.996  1.00  0.00     0.141 C 
BRANCH   8   9
HETATM    9  N3  UNL     1      -1.632  11.788  15.618  1.00  0.00    -0.363 N 
HETATM   10  C1  UNL     1      -2.489  12.064  14.524  1.00  0.00     0.181 C 
HETATM   11  N1  UNL     1      -3.717  12.443  14.721  1.00  0.00    -0.374 N 
HETATM   12  N2  UNL     1      -2.035  11.927  13.193  1.00  0.00    -0.064 NA
ATOM     13  H12 UNL     1      -4.334  12.642  13.933  1.00  0.00     0.158 HD
ATOM     14  H11 UNL     1      -4.044  12.542  15.682  1.00  0.00     0.158 HD
ATOM     15  H3  UNL     1      -0.738  11.338  15.419  1.00  0.00     0.162 HD
ENDBRANCH   8   9
ENDBRANCH   7   8
ENDBRANCH   1   7
BRANCH   4  16
HETATM   16  N5  UNL     1      -3.586  17.392  17.428  1.00  0.00    -0.365 N 
ATOM     17  H5  UNL     1      -3.011  18.149  17.796  1.00  0.00     0.162 HD
BRANCH  16  18
HETATM   18  C7  UNL     1      -4.790  17.703  16.762  1.00  0.00     0.181 C 
HETATM   19  N6  UNL     1      -6.039  17.274  17.263  1.00  0.00    -0.070 NA
HETATM   20  S1  UNL     1      -4.752  18.576  15.382  1.00  0.00    -0.044 SA
ENDBRANCH  16  18
ENDBRANCH   4  16
TORSDOF 5
ENDMDL
MODEL 3
REMARK VINA RESULT: -5.368190354      1.306      1.352
REMARK  5 active torsions:
REMARK  status: ('A' for Active; 'I' for Inactive)
REMARK       I    between atoms: C1_4  and  N3_6 
REMARK    1  A    between atoms: N3_6  and  C2_8 
REMARK    2  A    between atoms: C2_8  and  C3_9 
REMARK    3  A    between atoms: C3_9  and  N4_10 
REMARK    4  A    between atoms: C6_13  and  N5_14 
REMARK    5  A    between atoms: N5_14  and  C7_16 
ROOT
HETATM    1  N4  UNL     1      -0.880  14.392  18.248  1.00  0.00    -0.411 N 
HETATM    2  C4  UNL     1      -0.534  15.210  17.131  1.00  0.00     0.119 C 
HETATM    3  C5  UNL     1      -1.715  15.679  16.315  1.00  0.00     0.044 C 
HETATM    4  C6  UNL     1      -2.743  16.336  17.198  1.00  0.00     0.086 C 
HETATM    5  C8  UNL     1      -2.319  16.247  18.651  1.00  0.00     0.044 C 
HETATM    6  C9  UNL     1      -2.054  14.784  18.940  1.00  0.00     0.119 C 
ENDROOT
BRANCH   1   7
HETATM    7  C3  UNL     1      -0.678  12.991  18.078  1.00  0.00     0.136 C 
BRANCH   7   8
HETATM    8  C2  UNL     1      -1.885  12.222  17.664  1.00  0.00     0.141 C 
BRANCH   8   9
HETATM    9  N3  UNL     1      -1.692  11.754  16.312  1.00  0.00    -0.363 N 
HETATM   10  C1  UNL     1      -2.462  12.171  15.197  1.00  0.00     0.181 C 
HETATM   11  N1  UNL     1      -3.546  12.869  15.362  1.00  0.00    -0.374 N 
HETATM   12  N2  UNL     1      -2.077  11.833  13.880  1.00  0.00    -0.064 NA
ATOM     13  H12 UNL     1      -4.100  13.170  14.560  1.00  0.00     0.158 HD
ATOM     14  H11 UNL     1      -3.823  13.114  16.313  1.00  0.00     0.158 HD
ATOM     15  H3  UNL     1      -0.949  11.074  16.147  1.00  0.00     0.162 HD
ENDBRANCH   8   9
ENDBRANCH   7   8
ENDBRANCH   1   7
BRANCH   4  16
HETATM   16  N5  UNL     1      -3.017  17.691  16.825  1.00  0.00    -0.365 N 
ATOM     17  H5  UNL     1      -2.626  18.450  17.384  1.00  0.00     0.162 HD
BRANCH  16  18
HETATM   18  C7  UNL     1      -3.815  18.003  15.705  1.00  0.00     0.181 C 
HETATM   19  N6  UNL     1      -3.240  18.455  14.496  1.00  0.00    -0.070 NA
HETATM   20  S1  UNL     1      -5.438  17.842  15.793  1.00  0.00    -0.044 SA
ENDBRANCH  16  18
ENDBRANCH   4  16
TORSDOF 5
ENDMDL
MODEL 4
REMARK VINA RESULT: -5.329540892      0.868      1.033
REMARK  5 active torsions:
REMARK  status: ('A' for Active; 'I' for Inactive)
REMARK       I    between atoms: C1_4  and  N3_6 
REMARK    1  A    between atoms: N3_6  and  C2_8 
REMARK    2  A    between atoms: C2_8  and  C3_9 
REMARK    3  A    between atoms: C3_9  and  N4_10 
REMARK    4  A    between atoms: C6_13  and  N5_14 
REMARK    5  A    between atoms: N5_14  and  C7_16 
ROOT
HETATM    1  N4  UNL     1      -1.046  14.237  17.781  1.00  0.00    -0.411 N 
HETATM    2  C4  UNL     1      -1.188  15.042  16.612  1.00  0.00     0.119 C 
HETATM    3  C5  UNL     1      -2.614  15.410  16.278  1.00  0.00     0.044 C 
HETATM    4  C6  UNL     1      -3.297  16.023  17.472  1.00  0.00     0.086 C 
HETATM    5  C8  UNL     1      -2.372  16.004  18.672  1.00  0.00     0.044 C 
HETATM    6  C9  UNL     1      -1.916  14.570  18.850  1.00  0.00     0.119 C 
ENDROOT
BRANCH   1   7
HETATM    7  C3  UNL     1      -0.820  12.848  17.554  1.00  0.00     0.136 C 
BRANCH   7   8
HETATM    8  C2  UNL     1      -1.969  12.105  16.964  1.00  0.00     0.141 C 
BRANCH   8   9
HETATM    9  N3  UNL     1      -1.625  11.720  15.615  1.00  0.00    -0.363 N 
HETATM   10  C1  UNL     1      -2.445  11.943  14.480  1.00  0.00     0.181 C 
HETATM   11  N1  UNL     1      -3.675  12.340  14.617  1.00  0.00    -0.374 N 
HETATM   12  N2  UNL     1      -1.950  11.731  13.173  1.00  0.00    -0.064 NA
ATOM     13  H12 UNL     1      -4.265  12.501  13.800  1.00  0.00     0.158 HD
ATOM     14  H11 UNL     1      -4.032  12.493  15.560  1.00  0.00     0.158 HD
ATOM     15  H3  UNL     1      -0.730  11.254  15.469  1.00  0.00     0.162 HD
ENDBRANCH   8   9
ENDBRANCH   7   8
ENDBRANCH   1   7
BRANCH   4  16
HETATM   16  N5  UNL     1      -3.784  17.346  17.219  1.00  0.00    -0.365 N 
ATOM     17  H5  UNL     1      -4.544  17.714  17.792  1.00  0.00     0.162 HD
BRANCH  16  18
HETATM   18  C7  UNL     1      -3.239  18.153  16.199  1.00  0.00     0.181 C 
HETATM   19  N6  UNL     1      -3.826  18.211  14.915  1.00  0.00    -0.070 NA
HETATM   20  S1  UNL     1      -1.902  19.043  16.495  1.00  0.00    -0.044 SA
ENDBRANCH  16  18
ENDBRANCH   4  16
TORSDOF 5
ENDMDL
MODEL 5
REMARK VINA RESULT: -5.239112721      1.387      1.417
REMARK  5 active torsions:
REMARK  status: ('A' for Active; 'I' for Inactive)
REMARK       I    between atoms: C1_4  and  N3_6 
REMARK    1  A    between atoms: N3_6  and  C2_8 
REMARK    2  A    between atoms: C2_8  and  C3_9 
REMARK    3  A    between atoms: C3_9  and  N4_10 
REMARK    4  A    between atoms: C6_13  and  N5_14 
REMARK    5  A    between atoms: N5_14  and  C7_16 
ROOT
HETATM    1  N4  UNL     1      -0.933  14.853  18.335  1.00  0.00    -0.411 N 
HETATM    2  C4  UNL     1      -0.092  15.729  17.586  1.00  0.00     0.119 C 
HETATM    3  C5  UNL     1      -0.738  16.305  16.349  1.00  0.00     0.044 C 
HETATM    4  C6  UNL     1      -2.058  16.944  16.687  1.00  0.00     0.086 C 
HETATM    5  C8  UNL     1      -2.380  16.737  18.153  1.00  0.00     0.044 C 
HETATM    6  C9  UNL     1      -2.292  15.247  18.414  1.00  0.00     0.119 C 
ENDROOT
BRANCH   1   7
HETATM    7  C3  UNL     1      -0.683  13.460  18.168  1.00  0.00     0.136 C 
BRANCH   7   8
HETATM    8  C2  UNL     1      -1.897  12.598  18.119  1.00  0.00     0.141 C 
BRANCH   8   9
HETATM    9  N3  UNL     1      -1.828  11.771  16.937  1.00  0.00    -0.363 N 
HETATM   10  C1  UNL     1      -2.432  12.089  15.694  1.00  0.00     0.181 C 
HETATM   11  N1  UNL     1      -3.272  13.076  15.598  1.00  0.00    -0.374 N 
HETATM   12  N2  UNL     1      -2.142  11.340  14.532  1.00  0.00    -0.064 NA
ATOM     13  H12 UNL     1      -3.707  13.306  14.704  1.00  0.00     0.158 HD
ATOM     14  H11 UNL     1      -3.481  13.618  16.437  1.00  0.00     0.158 HD
ATOM     15  H3  UNL     1      -1.308  10.895  17.001  1.00  0.00     0.162 HD
ENDBRANCH   8   9
ENDBRANCH   7   8
ENDBRANCH   1   7
BRANCH   4  16
HETATM   16  N5  UNL     1      -2.114  18.332  16.339  1.00  0.00    -0.365 N 
ATOM     17  H5  UNL     1      -2.458  19.003  17.026  1.00  0.00     0.162 HD
BRANCH  16  18
HETATM   18  C7  UNL     1      -1.704  18.794  15.071  1.00  0.00     0.181 C 
HETATM   19  N6  UNL     1      -2.411  18.446  13.899  1.00  0.00    -0.070 NA
HETATM   20  S1  UNL     1      -0.388  19.752  14.943  1.00  0.00    -0.044 SA
ENDBRANCH  16  18
ENDBRANCH   4  16
TORSDOF 5
ENDMDL
