MODEL 1
REMARK VINA RESULT: -5.839065521      0.000      0.000
REMARK  5 active torsions:
REMARK  status: ('A' for Active; 'I' for Inactive)
REMARK    1  A    between atoms: C3_5  and  N2_6 
REMARK    2  A    between atoms: N2_6  and  C4_8 
REMARK    3  A    between atoms: C4_8  and  C5_9 
REMARK    4  A    between atoms: C5_9  and  C6_10 
REMARK    5  A    between atoms: C6_10  and  N3_11 
ROOT
HETATM    1  C4  UNL     1      -2.035  17.346  15.532  1.00  0.00     0.139 C 
ENDROOT
BRANCH   1   2
HETATM    2  N2  UNL     1      -0.682  17.000  15.285  1.00  0.00    -0.226 N 
ATOM      3  H2  UNL     1      -0.467  16.404  14.485  1.00  0.00     0.177 HD
BRANCH   2   4
HETATM    4  C3  UNL     1       0.285  17.405  16.028  1.00  0.00     0.679 A 
HETATM    5  N1  UNL     1       0.743  16.956  17.206  1.00  0.00    -0.191 N 
HETATM    6  C2  UNL     1       1.793  17.698  17.635  1.00  0.00     0.066 A 
ATOM      7  H1  UNL     1       0.353  16.160  17.711  1.00  0.00     0.184 HD
HETATM    8  C1  UNL     1       2.468  17.523  18.746  1.00  0.00     0.046 C 
HETATM    9  C11 UNL     1       2.004  18.657  16.684  1.00  0.00     0.066 A 
HETATM   10  N6  UNL     1       1.082  18.457  15.728  1.00  0.00    -0.191 N 
HETATM   11  C12 UNL     1       2.945  19.591  16.724  1.00  0.00     0.046 C 
ATOM     12  H6  UNL     1       0.993  19.025  14.886  1.00  0.00     0.184 HD
ENDBRANCH   2   4
ENDBRANCH   1   2
BRANCH   1  13
HETATM   13  C5  UNL     1      -2.842  16.301  16.203  1.00  0.00     0.041 C 
BRANCH  13  14
HETATM   14  C6  UNL     1      -3.010  14.988  15.567  1.00  0.00     0.143 C 
BRANCH  14  15
HETATM   15  N3  UNL     1      -2.237  13.889  16.028  1.00  0.00    -0.218 N 
HETATM   16  C7  UNL     1      -1.254  13.877  17.075  1.00  0.00     0.143 C 
HETATM   17  C8  UNL     1      -1.159  12.527  17.766  1.00  0.00     0.041 C 
HETATM   18  C9  UNL     1      -0.738  11.447  16.786  1.00  0.00     0.139 C 
HETATM   19  N4  UNL     1      -1.447  11.605  15.528  1.00  0.00    -0.227 N 
HETATM   20  C10 UNL     1      -2.457  12.607  15.387  1.00  0.00     0.669 C 
ATOM     21  H4  UNL     1      -1.222  10.997  14.740  1.00  0.00     0.177 HD
HETATM   22  N5  UNL     1      -3.501  12.312  14.718  1.00  0.00    -0.235 N 
ATOM     23  H52 UNL     1      -4.221  13.027  14.617  1.00  0.00     0.174 HD
ATOM     24  H51 UNL     1      -3.655  11.411  14.266  1.00  0.00     0.174 HD
ENDBRANCH  14  15
ENDBRANCH  13  14
ENDBRANCH   1  13
TORSDOF 5
ENDMDL
MODEL 2
REMARK VINA RESULT: -5.837562191      0.241      1.312
REMARK  5 active torsions:
REMARK  status: ('A' for Active; 'I' for Inactive)
REMARK    1  A    between atoms: C3_5  and  N2_6 
REMARK    2  A    between atoms: N2_6  and  C4_8 
REMARK    3  A    between atoms: C4_8  and  C5_9 
REMARK    4  A    between atoms: C5_9  and  C6_10 
REMARK    5  A    between atoms: C6_10  and  N3_11 
ROOT
HETATM    1  C4  UNL     1      -2.011  17.509  15.594  1.00  0.00     0.139 C 
ENDROOT
BRANCH   1   2
HETATM    2  N2  UNL     1      -0.669  17.208  15.245  1.00  0.00    -0.226 N 
ATOM      3  H2  UNL     1      -0.495  16.638  14.417  1.00  0.00     0.177 HD
BRANCH   2   4
HETATM    4  C3  UNL     1       0.336  17.623  15.930  1.00  0.00     0.679 A 
HETATM    5  N1  UNL     1       1.188  18.638  15.725  1.00  0.00    -0.191 N 
HETATM    6  C2  UNL     1       2.111  18.707  16.715  1.00  0.00     0.066 A 
ATOM      7  H1  UNL     1       1.147  19.273  14.928  1.00  0.00     0.184 HD
HETATM    8  C1  UNL     1       3.083  19.582  16.814  1.00  0.00     0.046 C 
HETATM    9  C11 UNL     1       1.825  17.690  17.583  1.00  0.00     0.066 A 
HETATM   10  N6  UNL     1       0.752  17.054  17.086  1.00  0.00    -0.191 N 
HETATM   11  C12 UNL     1       2.496  17.411  18.693  1.00  0.00     0.046 C 
ATOM     12  H6  UNL     1       0.308  16.246  17.522  1.00  0.00     0.184 HD
ENDBRANCH   2   4
ENDBRANCH   1   2
BRANCH   1  13
HETATM   13  C5  UNL     1      -2.860  16.338  15.908  1.00  0.00     0.041 C 
BRANCH  13  14
HETATM   14  C6  UNL     1      -2.662  15.077  15.180  1.00  0.00     0.143 C 
BRANCH  14  15
HETATM   15  N3  UNL     1      -2.026  13.989  15.836  1.00  0.00    -0.218 N 
HETATM   16  C7  UNL     1      -1.159  14.032  16.979  1.00  0.00     0.143 C 
HETATM   17  C8  UNL     1      -1.238  12.765  17.815  1.00  0.00     0.041 C 
HETATM   18  C9  UNL     1      -0.804  11.556  17.007  1.00  0.00     0.139 C 
HETATM   19  N4  UNL     1      -1.367  11.617  15.669  1.00  0.00    -0.227 N 
HETATM   20  C10 UNL     1      -2.278  12.660  15.313  1.00  0.00     0.669 C 
ATOM     21  H4  UNL     1      -1.110  10.911  14.979  1.00  0.00     0.177 HD
HETATM   22  N5  UNL     1      -3.267  12.360  14.569  1.00  0.00    -0.235 N 
ATOM     23  H52 UNL     1      -3.917  13.104  14.315  1.00  0.00     0.174 HD
ATOM     24  H51 UNL     1      -3.444  11.425  14.201  1.00  0.00     0.174 HD
ENDBRANCH  14  15
ENDBRANCH  13  14
ENDBRANCH   1  13
TORSDOF 5
ENDMDL
MODEL 3
REMARK VINA RESULT: -5.834154680      1.739      2.546
REMARK  5 active torsions:
REMARK  status: ('A' for Active; 'I' for Inactive)
REMARK    1  A    between atoms: C3_5  and  N2_6 
REMARK    2  A    between atoms: N2_6  and  C4_8 
REMARK    3  A    between atoms: C4_8  and  C5_9 
REMARK    4  A    between atoms: C5_9  and  C6_10 
REMARK    5  A    between atoms: C6_10  and  N3_11 
ROOT
HETATM    1  C4  UNL     1      -0.308  16.465  17.382  1.00  0.00     0.139 C 
ENDROOT
BRANCH   1   2
HETATM    2  N2  UNL     1       0.993  16.336  17.935  1.00  0.00    -0.226 N 
ATOM      3  H2  UNL     1       1.308  15.413  18.234  1.00  0.00     0.177 HD
BRANCH   2   4
HETATM    4  C3  UNL     1       1.788  17.335  18.076  1.00  0.00     0.679 A 
HETATM    5  N1  UNL     1       2.602  17.683  19.084  1.00  0.00    -0.191 N 
HETATM    6  C2  UNL     1       3.263  18.832  18.802  1.00  0.00     0.066 A 
ATOM      7  H1  UNL     1       2.709  17.152  19.948  1.00  0.00     0.184 HD
HETATM    8  C1  UNL     1       4.130  19.441  19.574  1.00  0.00     0.046 C 
HETATM    9  C11 UNL     1       2.847  19.224  17.560  1.00  0.00     0.066 A 
HETATM   10  N6  UNL     1       1.959  18.304  17.147  1.00  0.00    -0.191 N 
HETATM   11  C12 UNL     1       3.257  20.307  16.914  1.00  0.00     0.046 C 
ATOM     12  H6  UNL     1       1.475  18.333  16.249  1.00  0.00     0.184 HD
ENDBRANCH   2   4
ENDBRANCH   1   2
BRANCH   1  13
HETATM   13  C5  UNL     1      -1.421  16.357  18.353  1.00  0.00     0.041 C 
BRANCH  13  14
HETATM   14  C6  UNL     1      -2.035  15.049  18.617  1.00  0.00     0.143 C 
BRANCH  14  15
HETATM   15  N3  UNL     1      -2.129  14.100  17.564  1.00  0.00    -0.218 N 
HETATM   16  C7  UNL     1      -2.938  14.172  16.380  1.00  0.00     0.143 C 
HETATM   17  C8  UNL     1      -2.314  13.437  15.205  1.00  0.00     0.041 C 
HETATM   18  C9  UNL     1      -2.156  11.959  15.515  1.00  0.00     0.139 C 
HETATM   19  N4  UNL     1      -1.663  11.779  16.869  1.00  0.00    -0.227 N 
HETATM   20  C10 UNL     1      -1.306  12.910  17.667  1.00  0.00     0.669 C 
ATOM     21  H4  UNL     1      -1.571  10.838  17.253  1.00  0.00     0.177 HD
HETATM   22  N5  UNL     1      -0.278  12.815  18.413  1.00  0.00    -0.235 N 
ATOM     23  H52 UNL     1      -0.024  13.622  18.982  1.00  0.00     0.174 HD
ATOM     24  H51 UNL     1       0.300  11.977  18.486  1.00  0.00     0.174 HD
ENDBRANCH  14  15
ENDBRANCH  13  14
ENDBRANCH   1  13
TORSDOF 5
ENDMDL
MODEL 4
REMARK VINA RESULT: -5.830841511      1.736      2.803
REMARK  5 active torsions:
REMARK  status: ('A' for Active; 'I' for Inactive)
REMARK    1  A    between atoms: C3_5  and  N2_6 
REMARK    2  A    between atoms: N2_6  and  C4_8 
REMARK    3  A    between atoms: C4_8  and  C5_9 
REMARK    4  A    between atoms: C5_9  and  C6_10 
REMARK    5  A    between atoms: C6_10  and  N3_11 
ROOT
HETATM    1  C4  UNL     1      -0.307  16.446  17.380  1.00  0.00     0.139 C 
ENDROOT
BRANCH   1   2
HETATM    2  N2  UNL     1       0.997  16.369  17.935  1.00  0.00    -0.226 N 
ATOM      3  H2  UNL     1       1.326  15.471  18.288  1.00  0.00     0.177 HD
BRANCH   2   4
HETATM    4  C3  UNL     1       1.778  17.386  18.011  1.00  0.00     0.679 A 
HETATM    5  N1  UNL     1       2.038  18.370  17.138  1.00  0.00    -0.191 N 
HETATM    6  C2  UNL     1       2.944  19.242  17.641  1.00  0.00     0.066 A 
ATOM      7  H1  UNL     1       1.609  18.451  16.216  1.00  0.00     0.184 HD
HETATM    8  C1  UNL     1       3.412  20.312  17.043  1.00  0.00     0.046 C 
HETATM    9  C11 UNL     1       3.269  18.787  18.889  1.00  0.00     0.066 A 
HETATM   10  N6  UNL     1       2.553  17.668  19.085  1.00  0.00    -0.191 N 
HETATM   11  C12 UNL     1       4.129  19.359  19.721  1.00  0.00     0.046 C 
ATOM     12  H6  UNL     1       2.588  17.103  19.934  1.00  0.00     0.184 HD
ENDBRANCH   2   4
ENDBRANCH   1   2
BRANCH   1  13
HETATM   13  C5  UNL     1      -1.416  16.335  18.355  1.00  0.00     0.041 C 
BRANCH  13  14
HETATM   14  C6  UNL     1      -2.036  15.028  18.610  1.00  0.00     0.143 C 
BRANCH  14  15
HETATM   15  N3  UNL     1      -2.125  14.083  17.552  1.00  0.00    -0.218 N 
HETATM   16  C7  UNL     1      -2.933  14.158  16.367  1.00  0.00     0.143 C 
HETATM   17  C8  UNL     1      -2.304  13.430  15.190  1.00  0.00     0.041 C 
HETATM   18  C9  UNL     1      -2.141  11.952  15.493  1.00  0.00     0.139 C 
HETATM   19  N4  UNL     1      -1.649  11.767  16.847  1.00  0.00    -0.227 N 
HETATM   20  C10 UNL     1      -1.298  12.896  17.651  1.00  0.00     0.669 C 
ATOM     21  H4  UNL     1      -1.554  10.825  17.226  1.00  0.00     0.177 HD
HETATM   22  N5  UNL     1      -0.271  12.800  18.397  1.00  0.00    -0.235 N 
ATOM     23  H52 UNL     1      -0.020  13.606  18.971  1.00  0.00     0.174 HD
ATOM     24  H51 UNL     1       0.311  11.965  18.467  1.00  0.00     0.174 HD
ENDBRANCH  14  15
ENDBRANCH  13  14
ENDBRANCH   1  13
TORSDOF 5
ENDMDL
MODEL 5
REMARK VINA RESULT: -5.795990910      1.167      1.479
REMARK  5 active torsions:
REMARK  status: ('A' for Active; 'I' for Inactive)
REMARK    1  A    between atoms: C3_5  and  N2_6 
REMARK    2  A    between atoms: N2_6  and  C4_8 
REMARK    3  A    between atoms: C4_8  and  C5_9 
REMARK    4  A    between atoms: C5_9  and  C6_10 
REMARK    5  A    between atoms: C6_10  and  N3_11 
ROOT
HETATM    1  C4  UNL     1      -1.476  17.629  15.922  1.00  0.00     0.139 C 
ENDROOT
BRANCH   1   2
HETATM    2  N2  UNL     1      -0.266  17.143  15.363  1.00  0.00    -0.226 N 
ATOM      3  H2  UNL     1      -0.266  16.226  14.916  1.00  0.00     0.177 HD
BRANCH   2   4
HETATM    4  C3  UNL     1       0.831  17.811  15.399  1.00  0.00     0.679 A 
HETATM    5  N1  UNL     1       1.361  18.591  16.353  1.00  0.00    -0.191 N 
HETATM    6  C2  UNL     1       2.549  19.107  15.956  1.00  0.00     0.066 A 
ATOM      7  H1  UNL     1       0.927  18.772  17.258  1.00  0.00     0.184 HD
HETATM    8  C1  UNL     1       3.323  19.907  16.650  1.00  0.00     0.046 C 
HETATM    9  C11 UNL     1       2.778  18.629  14.695  1.00  0.00     0.066 A 
HETATM   10  N6  UNL     1       1.727  17.852  14.386  1.00  0.00    -0.191 N 
HETATM   11  C12 UNL     1       3.840  18.898  13.947  1.00  0.00     0.046 C 
ATOM     12  H6  UNL     1       1.618  17.356  13.500  1.00  0.00     0.184 HD
ENDBRANCH   2   4
ENDBRANCH   1   2
BRANCH   1  13
HETATM   13  C5  UNL     1      -2.488  16.594  16.233  1.00  0.00     0.041 C 
BRANCH  13  14
HETATM   14  C6  UNL     1      -2.489  15.327  15.489  1.00  0.00     0.143 C 
BRANCH  14  15
HETATM   15  N3  UNL     1      -1.885  14.180  16.069  1.00  0.00    -0.218 N 
HETATM   16  C7  UNL     1      -0.939  14.131  17.149  1.00  0.00     0.143 C 
HETATM   17  C8  UNL     1      -1.046  12.847  17.955  1.00  0.00     0.041 C 
HETATM   18  C9  UNL     1      -0.752  11.637  17.086  1.00  0.00     0.139 C 
HETATM   19  N4  UNL     1      -1.402  11.776  15.795  1.00  0.00    -0.227 N 
HETATM   20  C10 UNL     1      -2.262  12.887  15.532  1.00  0.00     0.669 C 
ATOM     21  H4  UNL     1      -1.242  11.075  15.070  1.00  0.00     0.177 HD
HETATM   22  N5  UNL     1      -3.319  12.676  14.853  1.00  0.00    -0.235 N 
ATOM     23  H52 UNL     1      -3.932  13.469  14.665  1.00  0.00     0.174 HD
ATOM     24  H51 UNL     1      -3.584  11.766  14.474  1.00  0.00     0.174 HD
ENDBRANCH  14  15
ENDBRANCH  13  14
ENDBRANCH   1  13
TORSDOF 5
ENDMDL
