MODEL 1
REMARK VINA RESULT: -6.376355176      0.000      0.000
REMARK  5 active torsions:
REMARK  status: ('A' for Active; 'I' for Inactive)
REMARK    1  A    between atoms: C2_2  and  C3_3 
REMARK    2  A    between atoms: C3_3  and  N1_4 
REMARK    3  A    between atoms: N2_7  and  C6_8 
REMARK    4  A    between atoms: C6_8  and  C7_9 
REMARK    5  A    between atoms: C9_13  and  N4_14 
ROOT
HETATM    1  N1  UNL     1       0.286  17.767  17.071  1.00  0.00     0.121 N 
HETATM    2  C4  UNL     1      -0.256  16.837  18.021  1.00  0.00     0.320 C 
HETATM    3  C5  UNL     1      -1.749  16.793  18.091  1.00  0.00     0.098 C 
HETATM    4  N2  UNL     1      -2.376  15.749  17.399  1.00  0.00    -0.345 N 
HETATM    5  C10 UNL     1      -3.001  16.008  16.175  1.00  0.00     0.096 C 
HETATM    6  C11 UNL     1      -2.075  16.331  15.027  1.00  0.00     0.279 C 
HETATM    7  N6  UNL     1      -1.363  17.564  15.307  1.00  0.00    -0.044 N 
ATOM      8  H61 UNL     1      -1.856  18.117  16.008  1.00  0.00     0.279 HD
ATOM      9  H62 UNL     1      -1.424  18.205  14.515  1.00  0.00     0.279 HD
HETATM   10  C12 UNL     1      -0.008  17.354  15.687  1.00  0.00     0.503 C 
ENDROOT
BRANCH   4  11
HETATM   11  C6  UNL     1      -2.537  14.497  18.017  1.00  0.00     0.126 C 
BRANCH  11  12
HETATM   12  C7  UNL     1      -2.113  13.352  17.186  1.00  0.00     0.081 A 
HETATM   13  C8  UNL     1      -0.997  12.554  17.276  1.00  0.00     0.137 A 
HETATM   14  N3  UNL     1      -1.057  11.641  16.283  1.00  0.00    -0.200 N 
HETATM   15  C9  UNL     1      -2.171  11.839  15.573  1.00  0.00     0.676 A 
ATOM     16  H3  UNL     1      -0.363  10.916  16.105  1.00  0.00     0.183 HD
HETATM   17  N5  UNL     1      -2.807  12.880  16.128  1.00  0.00    -0.189 N 
ATOM     18  H5  UNL     1      -3.692  13.262  15.797  1.00  0.00     0.184 HD
BRANCH  15  19
HETATM   19  N4  UNL     1      -2.576  11.157  14.535  1.00  0.00    -0.234 N 
ATOM     20  H42 UNL     1      -2.114  10.338  14.139  1.00  0.00     0.174 HD
ATOM     21  H41 UNL     1      -3.404  11.334  13.967  1.00  0.00     0.174 HD
ENDBRANCH  15  19
ENDBRANCH  11  12
ENDBRANCH   4  11
BRANCH   1  22
HETATM   22  C3  UNL     1       1.739  17.738  17.149  1.00  0.00     0.301 C 
BRANCH  22  23
HETATM   23  C2  UNL     1       2.279  17.336  18.449  1.00  0.00    -0.007 C 
HETATM   24  C1  UNL     1       3.182  18.076  19.072  1.00  0.00     0.008 C 
ENDBRANCH  22  23
ENDBRANCH   1  22
TORSDOF 5
ENDMDL
MODEL 2
REMARK VINA RESULT: -6.238255915      1.665      2.446
REMARK  5 active torsions:
REMARK  status: ('A' for Active; 'I' for Inactive)
REMARK    1  A    between atoms: C2_2  and  C3_3 
REMARK    2  A    between atoms: C3_3  and  N1_4 
REMARK    3  A    between atoms: N2_7  and  C6_8 
REMARK    4  A    between atoms: C6_8  and  C7_9 
REMARK    5  A    between atoms: C9_13  and  N4_14 
ROOT
HETATM    1  N1  UNL     1       0.612  17.832  16.533  1.00  0.00     0.121 N 
HETATM    2  C4  UNL     1      -0.178  16.696  16.148  1.00  0.00     0.320 C 
HETATM    3  C5  UNL     1      -0.563  15.779  17.265  1.00  0.00     0.098 C 
HETATM    4  N2  UNL     1      -1.858  15.931  17.778  1.00  0.00    -0.345 N 
HETATM    5  C10 UNL     1      -2.045  16.586  19.000  1.00  0.00     0.096 C 
HETATM    6  C11 UNL     1      -1.781  18.071  18.989  1.00  0.00     0.279 C 
HETATM    7  N6  UNL     1      -0.382  18.316  18.690  1.00  0.00    -0.044 N 
ATOM      8  H61 UNL     1       0.181  17.488  18.886  1.00  0.00     0.279 HD
ATOM      9  H62 UNL     1       0.027  18.961  19.366  1.00  0.00     0.279 HD
HETATM   10  C12 UNL     1      -0.166  18.772  17.359  1.00  0.00     0.503 C 
ENDROOT
BRANCH   4  11
HETATM   11  C6  UNL     1      -2.935  15.268  17.166  1.00  0.00     0.126 C 
BRANCH  11  12
HETATM   12  C7  UNL     1      -2.647  13.873  16.779  1.00  0.00     0.081 A 
HETATM   13  C8  UNL     1      -2.115  12.837  17.511  1.00  0.00     0.137 A 
HETATM   14  N3  UNL     1      -2.043  11.754  16.710  1.00  0.00    -0.200 N 
HETATM   15  C9  UNL     1      -2.509  12.072  15.500  1.00  0.00     0.676 A 
ATOM     16  H3  UNL     1      -1.689  10.838  16.985  1.00  0.00     0.183 HD
HETATM   17  N5  UNL     1      -2.874  13.361  15.550  1.00  0.00    -0.189 N 
ATOM     18  H5  UNL     1      -3.269  13.882  14.767  1.00  0.00     0.184 HD
BRANCH  15  19
HETATM   19  N4  UNL     1      -2.598  11.289  14.458  1.00  0.00    -0.234 N 
ATOM     20  H42 UNL     1      -1.878  10.646  14.129  1.00  0.00     0.174 HD
ATOM     21  H41 UNL     1      -3.390  11.199  13.821  1.00  0.00     0.174 HD
ENDBRANCH  15  19
ENDBRANCH  11  12
ENDBRANCH   4  11
BRANCH   1  22
HETATM   22  C3  UNL     1       0.952  18.601  15.345  1.00  0.00     0.301 C 
BRANCH  22  23
HETATM   23  C2  UNL     1       2.329  18.432  14.874  1.00  0.00    -0.007 C 
HETATM   24  C1  UNL     1       2.676  18.772  13.644  1.00  0.00     0.008 C 
ENDBRANCH  22  23
ENDBRANCH   1  22
TORSDOF 5
ENDMDL
MODEL 3
REMARK VINA RESULT: -6.224784082      1.669      2.353
REMARK  5 active torsions:
REMARK  status: ('A' for Active; 'I' for Inactive)
REMARK    1  A    between atoms: C2_2  and  C3_3 
REMARK    2  A    between atoms: C3_3  and  N1_4 
REMARK    3  A    between atoms: N2_7  and  C6_8 
REMARK    4  A    between atoms: C6_8  and  C7_9 
REMARK    5  A    between atoms: C9_13  and  N4_14 
ROOT
HETATM    1  N1  UNL     1      -0.066  17.981  16.654  1.00  0.00     0.121 N 
HETATM    2  C4  UNL     1       0.384  16.638  16.889  1.00  0.00     0.320 C 
HETATM    3  C5  UNL     1       0.036  16.073  18.229  1.00  0.00     0.098 C 
HETATM    4  N2  UNL     1      -1.077  15.224  18.278  1.00  0.00    -0.345 N 
HETATM    5  C10 UNL     1      -2.289  15.700  18.788  1.00  0.00     0.096 C 
HETATM    6  C11 UNL     1      -2.997  16.722  17.933  1.00  0.00     0.279 C 
HETATM    7  N6  UNL     1      -2.184  17.919  17.830  1.00  0.00    -0.044 N 
ATOM      8  H61 UNL     1      -1.509  17.966  18.593  1.00  0.00     0.279 HD
ATOM      9  H62 UNL     1      -2.735  18.751  18.042  1.00  0.00     0.279 HD
HETATM   10  C12 UNL     1      -1.536  18.049  16.570  1.00  0.00     0.503 C 
ENDROOT
BRANCH   4  11
HETATM   11  C6  UNL     1      -0.925  13.856  17.995  1.00  0.00     0.126 C 
BRANCH  11  12
HETATM   12  C7  UNL     1      -1.533  13.431  16.717  1.00  0.00     0.081 A 
HETATM   13  C8  UNL     1      -2.005  14.179  15.664  1.00  0.00     0.137 A 
HETATM   14  N3  UNL     1      -2.469  13.329  14.725  1.00  0.00    -0.200 N 
HETATM   15  C9  UNL     1      -2.307  12.074  15.150  1.00  0.00     0.676 A 
ATOM     16  H3  UNL     1      -2.879  13.602  13.832  1.00  0.00     0.183 HD
HETATM   17  N5  UNL     1      -1.737  12.144  16.361  1.00  0.00    -0.189 N 
ATOM     18  H5  UNL     1      -1.491  11.337  16.934  1.00  0.00     0.184 HD
BRANCH  15  19
HETATM   19  N4  UNL     1      -2.635  10.978  14.520  1.00  0.00    -0.234 N 
ATOM     20  H42 UNL     1      -1.988  10.327  14.075  1.00  0.00     0.174 HD
ATOM     21  H41 UNL     1      -3.575  10.607  14.377  1.00  0.00     0.174 HD
ENDBRANCH  15  19
ENDBRANCH  11  12
ENDBRANCH   4  11
BRANCH   1  22
HETATM   22  C3  UNL     1       0.385  18.413  15.340  1.00  0.00     0.301 C 
BRANCH  22  23
HETATM   23  C2  UNL     1       1.838  18.524  15.191  1.00  0.00    -0.007 C 
HETATM   24  C1  UNL     1       2.403  18.542  13.995  1.00  0.00     0.008 C 
ENDBRANCH  22  23
ENDBRANCH   1  22
TORSDOF 5
ENDMDL
MODEL 4
REMARK VINA RESULT: -6.152594715      2.154      2.991
REMARK  5 active torsions:
REMARK  status: ('A' for Active; 'I' for Inactive)
REMARK    1  A    between atoms: C2_2  and  C3_3 
REMARK    2  A    between atoms: C3_3  and  N1_4 
REMARK    3  A    between atoms: N2_7  and  C6_8 
REMARK    4  A    between atoms: C6_8  and  C7_9 
REMARK    5  A    between atoms: C9_13  and  N4_14 
ROOT
HETATM    1  N1  UNL     1      -1.997  18.205  19.629  1.00  0.00     0.121 N 
HETATM    2  C4  UNL     1      -2.389  16.824  19.630  1.00  0.00     0.320 C 
HETATM    3  C5  UNL     1      -2.518  16.197  18.279  1.00  0.00     0.098 C 
HETATM    4  N2  UNL     1      -1.437  15.418  17.846  1.00  0.00    -0.345 N 
HETATM    5  C10 UNL     1      -0.546  15.936  16.900  1.00  0.00     0.096 C 
HETATM    6  C11 UNL     1       0.341  17.055  17.389  1.00  0.00     0.279 C 
HETATM    7  N6  UNL     1      -0.472  18.203  17.746  1.00  0.00    -0.044 N 
ATOM      8  H61 UNL     1      -1.384  18.156  17.292  1.00  0.00     0.279 HD
ATOM      9  H62 UNL     1      -0.112  19.053  17.312  1.00  0.00     0.279 HD
HETATM   10  C12 UNL     1      -0.613  18.372  19.152  1.00  0.00     0.503 C 
ENDROOT
BRANCH   4  11
HETATM   11  C6  UNL     1      -1.357  14.065  18.215  1.00  0.00     0.126 C 
BRANCH  11  12
HETATM   12  C7  UNL     1      -1.595  13.119  17.105  1.00  0.00     0.081 A 
HETATM   13  C8  UNL     1      -0.960  11.940  16.790  1.00  0.00     0.137 A 
HETATM   14  N3  UNL     1      -1.539  11.440  15.678  1.00  0.00    -0.200 N 
HETATM   15  C9  UNL     1      -2.513  12.264  15.283  1.00  0.00     0.676 A 
ATOM     16  H3  UNL     1      -1.275  10.572  15.214  1.00  0.00     0.183 HD
HETATM   17  N5  UNL     1      -2.541  13.281  16.155  1.00  0.00    -0.189 N 
ATOM     18  H5  UNL     1      -3.187  14.068  16.107  1.00  0.00     0.184 HD
BRANCH  15  19
HETATM   19  N4  UNL     1      -3.296  12.120  14.247  1.00  0.00    -0.234 N 
ATOM     20  H42 UNL     1      -3.232  12.639  13.371  1.00  0.00     0.174 HD
ATOM     21  H41 UNL     1      -4.081  11.476  14.153  1.00  0.00     0.174 HD
ENDBRANCH  15  19
ENDBRANCH  11  12
ENDBRANCH   4  11
BRANCH   1  22
HETATM   22  C3  UNL     1      -1.961  18.692  21.000  1.00  0.00     0.301 C 
BRANCH  22  23
HETATM   23  C2  UNL     1      -1.991  17.649  22.027  1.00  0.00    -0.007 C 
HETATM   24  C1  UNL     1      -1.152  17.673  23.050  1.00  0.00     0.008 C 
ENDBRANCH  22  23
ENDBRANCH   1  22
TORSDOF 5
ENDMDL
MODEL 5
REMARK VINA RESULT: -6.124418092      2.252      4.474
REMARK  5 active torsions:
REMARK  status: ('A' for Active; 'I' for Inactive)
REMARK    1  A    between atoms: C2_2  and  C3_3 
REMARK    2  A    between atoms: C3_3  and  N1_4 
REMARK    3  A    between atoms: N2_7  and  C6_8 
REMARK    4  A    between atoms: C6_8  and  C7_9 
REMARK    5  A    between atoms: C9_13  and  N4_14 
ROOT
HETATM    1  N1  UNL     1      -4.379  17.973  17.200  1.00  0.00     0.121 N 
HETATM    2  C4  UNL     1      -4.304  16.539  17.215  1.00  0.00     0.320 C 
HETATM    3  C5  UNL     1      -3.019  15.964  16.711  1.00  0.00     0.098 C 
HETATM    4  N2  UNL     1      -2.089  15.568  17.680  1.00  0.00    -0.345 N 
HETATM    5  C10 UNL     1      -0.975  16.373  17.940  1.00  0.00     0.096 C 
HETATM    6  C11 UNL     1      -1.267  17.685  18.627  1.00  0.00     0.279 C 
HETATM    7  N6  UNL     1      -2.087  18.516  17.765  1.00  0.00    -0.044 N 
ATOM      8  H61 UNL     1      -2.010  18.217  16.793  1.00  0.00     0.279 HD
ATOM      9  H62 UNL     1      -1.693  19.453  17.684  1.00  0.00     0.279 HD
HETATM   10  C12 UNL     1      -3.449  18.571  18.173  1.00  0.00     0.503 C 
ENDROOT
BRANCH   4  11
HETATM   11  C6  UNL     1      -2.175  14.287  18.251  1.00  0.00     0.126 C 
BRANCH  11  12
HETATM   12  C7  UNL     1      -1.881  13.185  17.313  1.00  0.00     0.081 A 
HETATM   13  C8  UNL     1      -0.831  12.297  17.284  1.00  0.00     0.137 A 
HETATM   14  N3  UNL     1      -1.007  11.477  16.227  1.00  0.00    -0.200 N 
HETATM   15  C9  UNL     1      -2.130  11.819  15.590  1.00  0.00     0.676 A 
ATOM     16  H3  UNL     1      -0.383  10.717  15.958  1.00  0.00     0.183 HD
HETATM   17  N5  UNL     1      -2.655  12.857  16.256  1.00  0.00    -0.189 N 
ATOM     18  H5  UNL     1      -3.519  13.334  15.999  1.00  0.00     0.184 HD
BRANCH  15  19
HETATM   19  N4  UNL     1      -2.633  11.260  14.521  1.00  0.00    -0.234 N 
ATOM     20  H42 UNL     1      -2.130  11.065  13.655  1.00  0.00     0.174 HD
ATOM     21  H41 UNL     1      -3.590  10.935  14.389  1.00  0.00     0.174 HD
ENDBRANCH  15  19
ENDBRANCH  11  12
ENDBRANCH   4  11
BRANCH   1  22
HETATM   22  C3  UNL     1      -5.695  18.386  17.667  1.00  0.00     0.301 C 
BRANCH  22  23
HETATM   23  C2  UNL     1      -6.781  17.454  17.357  1.00  0.00    -0.007 C 
HETATM   24  C1  UNL     1      -8.022  17.699  17.743  1.00  0.00     0.008 C 
ENDBRANCH  22  23
ENDBRANCH   1  22
TORSDOF 5
ENDMDL
