MODEL 1
REMARK VINA RESULT: -5.450490940      0.000      0.000
REMARK  8 active torsions:
REMARK  status: ('A' for Active; 'I' for Inactive)
REMARK    1  A    between atoms: C2_2  and  C3_3 
REMARK    2  A    between atoms: C4_4  and  C5_5 
REMARK    3  A    between atoms: C6_6  and  S1_7 
REMARK    4  A    between atoms: S1_7  and  C8_9 
REMARK    5  A    between atoms: C8_9  and  C9_10 
REMARK    6  A    between atoms: C9_10  and  N1_11 
REMARK    7  A    between atoms: C10_17  and  N3_18 
REMARK    8  A    between atoms: C11_23  and  N5_24 
ROOT
HETATM    1  C5  UNL     1      -1.915  14.283  18.100  1.00  0.00     0.095 A 
HETATM    2  C6  UNL     1      -1.817  14.610  16.756  1.00  0.00     0.099 A 
HETATM    3  N2  UNL     1      -1.736  13.671  15.807  1.00  0.00    -0.185 N 
ATOM      4  H2  UNL     1      -1.665  13.957  14.830  1.00  0.00     0.185 HD
HETATM    5  C10 UNL     1      -1.746  12.363  16.106  1.00  0.00     0.678 A 
HETATM    6  N4  UNL     1      -1.840  12.001  17.395  1.00  0.00    -0.176 N 
ATOM      7  H4  UNL     1      -1.849  11.011  17.639  1.00  0.00     0.186 HD
HETATM    8  C11 UNL     1      -1.922  12.922  18.371  1.00  0.00     0.136 A 
ENDROOT
BRANCH   2   9
HETATM    9  S1  UNL     1      -1.805  16.330  16.381  1.00  0.00    -0.170 SA
HETATM   10  C7  UNL     1      -2.625  16.542  14.803  1.00  0.00     0.085 C 
BRANCH   9  11
HETATM   11  C8  UNL     1      -0.109  16.800  16.145  1.00  0.00     0.096 C 
BRANCH  11  12
HETATM   12  C9  UNL     1       0.441  17.415  17.423  1.00  0.00     0.239 C 
BRANCH  12  13
HETATM   13  N1  UNL     1       1.352  16.485  18.052  1.00  0.00    -0.079 N 
ATOM     14  H13 UNL     1       0.952  16.058  18.887  1.00  0.00     0.274 HD
ATOM     15  H12 UNL     1       1.477  15.635  17.501  1.00  0.00     0.274 HD
ATOM     16  H11 UNL     1       2.237  16.953  18.244  1.00  0.00     0.274 HD
ENDBRANCH  12  13
ENDBRANCH  11  12
ENDBRANCH   9  11
ENDBRANCH   2   9
BRANCH   1  17
HETATM   17  C4  UNL     1      -2.001  15.298  19.110  1.00  0.00    -0.060 C 
HETATM   18  C3  UNL     1      -2.085  16.152  19.957  1.00  0.00    -0.101 C 
BRANCH  18  19
HETATM   19  C2  UNL     1      -2.166  17.210  20.992  1.00  0.00     0.090 C 
HETATM   20  C1  UNL     1      -2.393  18.505  20.249  1.00  0.00     0.018 C 
ENDBRANCH  18  19
ENDBRANCH   1  17
BRANCH   8  21
HETATM   21  N5  UNL     1      -2.013  12.570  19.622  1.00  0.00    -0.384 N 
ATOM     22  H52 UNL     1      -1.557  13.112  20.355  1.00  0.00     0.157 HD
ATOM     23  H51 UNL     1      -2.557  11.732  19.828  1.00  0.00     0.157 HD
ENDBRANCH   8  21
BRANCH   5  24
HETATM   24  N3  UNL     1      -1.669  11.451  15.200  1.00  0.00    -0.234 N 
ATOM     25  H32 UNL     1      -2.045  11.639  14.271  1.00  0.00     0.174 HD
ATOM     26  H31 UNL     1      -1.244  10.541  15.379  1.00  0.00     0.174 HD
ENDBRANCH   5  24
TORSDOF 8
ENDMDL
MODEL 2
REMARK VINA RESULT: -5.278437978      1.232      1.450
REMARK  8 active torsions:
REMARK  status: ('A' for Active; 'I' for Inactive)
REMARK    1  A    between atoms: C2_2  and  C3_3 
REMARK    2  A    between atoms: C4_4  and  C5_5 
REMARK    3  A    between atoms: C6_6  and  S1_7 
REMARK    4  A    between atoms: S1_7  and  C8_9 
REMARK    5  A    between atoms: C8_9  and  C9_10 
REMARK    6  A    between atoms: C9_10  and  N1_11 
REMARK    7  A    between atoms: C10_17  and  N3_18 
REMARK    8  A    between atoms: C11_23  and  N5_24 
ROOT
HETATM    1  C5  UNL     1      -2.295  14.658  18.109  1.00  0.00     0.095 A 
HETATM    2  C6  UNL     1      -2.641  14.982  16.806  1.00  0.00     0.099 A 
HETATM    3  N2  UNL     1      -2.746  14.051  15.852  1.00  0.00    -0.185 N 
ATOM      4  H2  UNL     1      -3.003  14.335  14.907  1.00  0.00     0.185 HD
HETATM    5  C10 UNL     1      -2.521  12.753  16.107  1.00  0.00     0.678 A 
HETATM    6  N4  UNL     1      -2.183  12.393  17.355  1.00  0.00    -0.176 N 
ATOM      7  H4  UNL     1      -2.009  11.411  17.564  1.00  0.00     0.186 HD
HETATM    8  C11 UNL     1      -2.070  13.308  18.334  1.00  0.00     0.136 A 
ENDROOT
BRANCH   2   9
HETATM    9  S1  UNL     1      -2.932  16.689  16.489  1.00  0.00    -0.170 SA
HETATM   10  C7  UNL     1      -4.527  16.823  15.685  1.00  0.00     0.085 C 
BRANCH   9  11
HETATM   11  C8  UNL     1      -1.715  17.215  15.307  1.00  0.00     0.096 C 
BRANCH  11  12
HETATM   12  C9  UNL     1      -0.319  17.037  15.886  1.00  0.00     0.239 C 
BRANCH  12  13
HETATM   13  N1  UNL     1       0.638  17.733  15.056  1.00  0.00    -0.079 N 
ATOM     14  H13 UNL     1       0.300  17.863  14.103  1.00  0.00     0.274 HD
ATOM     15  H12 UNL     1       0.728  18.717  15.313  1.00  0.00     0.274 HD
ATOM     16  H11 UNL     1       1.532  17.244  15.085  1.00  0.00     0.274 HD
ENDBRANCH  12  13
ENDBRANCH  11  12
ENDBRANCH   9  11
ENDBRANCH   2   9
BRANCH   1  17
HETATM   17  C4  UNL     1      -2.185  15.665  19.124  1.00  0.00    -0.060 C 
HETATM   18  C3  UNL     1      -2.101  16.505  19.985  1.00  0.00    -0.101 C 
BRANCH  18  19
HETATM   19  C2  UNL     1      -1.994  17.556  21.025  1.00  0.00     0.090 C 
HETATM   20  C1  UNL     1      -2.258  16.866  22.343  1.00  0.00     0.018 C 
ENDBRANCH  18  19
ENDBRANCH   1  17
BRANCH   8  21
HETATM   21  N5  UNL     1      -1.742  12.957  19.545  1.00  0.00    -0.384 N 
ATOM     22  H52 UNL     1      -0.961  13.403  20.028  1.00  0.00     0.157 HD
ATOM     23  H51 UNL     1      -2.299  12.222  19.981  1.00  0.00     0.157 HD
ENDBRANCH   8  21
BRANCH   5  24
HETATM   24  N3  UNL     1      -2.619  11.848  15.196  1.00  0.00    -0.234 N 
ATOM     25  H32 UNL     1      -3.409  11.873  14.551  1.00  0.00     0.174 HD
ATOM     26  H31 UNL     1      -1.931  11.101  15.094  1.00  0.00     0.174 HD
ENDBRANCH   5  24
TORSDOF 8
ENDMDL
MODEL 3
REMARK VINA RESULT: -5.203864985      1.040      1.078
REMARK  8 active torsions:
REMARK  status: ('A' for Active; 'I' for Inactive)
REMARK    1  A    between atoms: C2_2  and  C3_3 
REMARK    2  A    between atoms: C4_4  and  C5_5 
REMARK    3  A    between atoms: C6_6  and  S1_7 
REMARK    4  A    between atoms: S1_7  and  C8_9 
REMARK    5  A    between atoms: C8_9  and  C9_10 
REMARK    6  A    between atoms: C9_10  and  N1_11 
REMARK    7  A    between atoms: C10_17  and  N3_18 
REMARK    8  A    between atoms: C11_23  and  N5_24 
ROOT
HETATM    1  C5  UNL     1      -1.916  14.290  18.099  1.00  0.00     0.095 A 
HETATM    2  C6  UNL     1      -1.818  14.616  16.756  1.00  0.00     0.099 A 
HETATM    3  N2  UNL     1      -1.738  13.678  15.807  1.00  0.00    -0.185 N 
ATOM      4  H2  UNL     1      -1.667  13.964  14.830  1.00  0.00     0.185 HD
HETATM    5  C10 UNL     1      -1.750  12.370  16.107  1.00  0.00     0.678 A 
HETATM    6  N4  UNL     1      -1.844  12.008  17.396  1.00  0.00    -0.176 N 
ATOM      7  H4  UNL     1      -1.854  11.018  17.640  1.00  0.00     0.186 HD
HETATM    8  C11 UNL     1      -1.925  12.930  18.371  1.00  0.00     0.136 A 
ENDROOT
BRANCH   2   9
HETATM    9  S1  UNL     1      -1.804  16.336  16.380  1.00  0.00    -0.170 SA
HETATM   10  C7  UNL     1      -2.593  16.545  14.785  1.00  0.00     0.085 C 
BRANCH   9  11
HETATM   11  C8  UNL     1      -0.105  16.812  16.178  1.00  0.00     0.096 C 
BRANCH  11  12
HETATM   12  C9  UNL     1      -0.021  18.275  15.767  1.00  0.00     0.239 C 
BRANCH  12  13
HETATM   13  N1  UNL     1       0.787  18.393  14.573  1.00  0.00    -0.079 N 
ATOM     14  H13 UNL     1       1.250  19.299  14.509  1.00  0.00     0.274 HD
ATOM     15  H12 UNL     1       1.621  17.807  14.612  1.00  0.00     0.274 HD
ATOM     16  H11 UNL     1       0.213  18.194  13.754  1.00  0.00     0.274 HD
ENDBRANCH  12  13
ENDBRANCH  11  12
ENDBRANCH   9  11
ENDBRANCH   2   9
BRANCH   1  17
HETATM   17  C4  UNL     1      -2.001  15.306  19.109  1.00  0.00    -0.060 C 
HETATM   18  C3  UNL     1      -2.084  16.157  19.959  1.00  0.00    -0.101 C 
BRANCH  18  19
HETATM   19  C2  UNL     1      -2.168  17.217  20.992  1.00  0.00     0.090 C 
HETATM   20  C1  UNL     1      -2.406  18.509  20.247  1.00  0.00     0.018 C 
ENDBRANCH  18  19
ENDBRANCH   1  17
BRANCH   8  21
HETATM   21  N5  UNL     1      -2.016  12.578  19.622  1.00  0.00    -0.384 N 
ATOM     22  H52 UNL     1      -1.674  13.187  20.366  1.00  0.00     0.157 HD
ATOM     23  H51 UNL     1      -2.442  11.672  19.818  1.00  0.00     0.157 HD
ENDBRANCH   8  21
BRANCH   5  24
HETATM   24  N3  UNL     1      -1.674  11.457  15.201  1.00  0.00    -0.234 N 
ATOM     25  H32 UNL     1      -1.558  11.731  14.225  1.00  0.00     0.174 HD
ATOM     26  H31 UNL     1      -1.727  10.463  15.425  1.00  0.00     0.174 HD
ENDBRANCH   5  24
TORSDOF 8
ENDMDL
MODEL 4
REMARK VINA RESULT: -5.195756366      1.797      2.156
REMARK  8 active torsions:
REMARK  status: ('A' for Active; 'I' for Inactive)
REMARK    1  A    between atoms: C2_2  and  C3_3 
REMARK    2  A    between atoms: C4_4  and  C5_5 
REMARK    3  A    between atoms: C6_6  and  S1_7 
REMARK    4  A    between atoms: S1_7  and  C8_9 
REMARK    5  A    between atoms: C8_9  and  C9_10 
REMARK    6  A    between atoms: C9_10  and  N1_11 
REMARK    7  A    between atoms: C10_17  and  N3_18 
REMARK    8  A    between atoms: C11_23  and  N5_24 
ROOT
HETATM    1  C5  UNL     1      -2.361  14.755  17.962  1.00  0.00     0.095 A 
HETATM    2  C6  UNL     1      -2.725  15.037  16.655  1.00  0.00     0.099 A 
HETATM    3  N2  UNL     1      -2.819  14.078  15.728  1.00  0.00    -0.185 N 
ATOM      4  H2  UNL     1      -3.090  14.330  14.777  1.00  0.00     0.185 HD
HETATM    5  C10 UNL     1      -2.568  12.791  16.016  1.00  0.00     0.678 A 
HETATM    6  N4  UNL     1      -2.213  12.473  17.271  1.00  0.00    -0.176 N 
ATOM      7  H4  UNL     1      -2.018  11.500  17.506  1.00  0.00     0.186 HD
HETATM    8  C11 UNL     1      -2.109  13.416  18.223  1.00  0.00     0.136 A 
ENDROOT
BRANCH   2   9
HETATM    9  S1  UNL     1      -3.051  16.728  16.293  1.00  0.00    -0.170 SA
HETATM   10  C7  UNL     1      -4.785  16.863  15.865  1.00  0.00     0.085 C 
BRANCH   9  11
HETATM   11  C8  UNL     1      -2.128  17.136  14.831  1.00  0.00     0.096 C 
BRANCH  11  12
HETATM   12  C9  UNL     1      -2.205  18.634  14.570  1.00  0.00     0.239 C 
BRANCH  12  13
HETATM   13  N1  UNL     1      -1.498  18.946  13.348  1.00  0.00    -0.079 N 
ATOM     14  H13 UNL     1      -0.519  19.173  13.516  1.00  0.00     0.274 HD
ATOM     15  H12 UNL     1      -1.358  18.123  12.762  1.00  0.00     0.274 HD
ATOM     16  H11 UNL     1      -1.987  19.692  12.854  1.00  0.00     0.274 HD
ENDBRANCH  12  13
ENDBRANCH  11  12
ENDBRANCH   9  11
ENDBRANCH   2   9
BRANCH   1  17
HETATM   17  C4  UNL     1      -2.262  15.792  18.948  1.00  0.00    -0.060 C 
HETATM   18  C3  UNL     1      -2.189  16.659  19.783  1.00  0.00    -0.101 C 
BRANCH  18  19
HETATM   19  C2  UNL     1      -2.090  17.741  20.792  1.00  0.00     0.090 C 
HETATM   20  C1  UNL     1      -2.124  17.059  22.139  1.00  0.00     0.018 C 
ENDBRANCH  18  19
ENDBRANCH   1  17
BRANCH   8  21
HETATM   21  N5  UNL     1      -1.764  13.106  19.441  1.00  0.00    -0.384 N 
ATOM     22  H52 UNL     1      -0.801  13.216  19.758  1.00  0.00     0.157 HD
ATOM     23  H51 UNL     1      -2.498  12.752  20.054  1.00  0.00     0.157 HD
ENDBRANCH   8  21
BRANCH   5  24
HETATM   24  N3  UNL     1      -2.657  11.859  15.132  1.00  0.00    -0.234 N 
ATOM     25  H32 UNL     1      -2.827  12.111  14.158  1.00  0.00     0.174 HD
ATOM     26  H31 UNL     1      -2.562  10.872  15.370  1.00  0.00     0.174 HD
ENDBRANCH   5  24
TORSDOF 8
ENDMDL
MODEL 5
REMARK VINA RESULT: -5.072029389      0.985      1.127
REMARK  8 active torsions:
REMARK  status: ('A' for Active; 'I' for Inactive)
REMARK    1  A    between atoms: C2_2  and  C3_3 
REMARK    2  A    between atoms: C4_4  and  C5_5 
REMARK    3  A    between atoms: C6_6  and  S1_7 
REMARK    4  A    between atoms: S1_7  and  C8_9 
REMARK    5  A    between atoms: C8_9  and  C9_10 
REMARK    6  A    between atoms: C9_10  and  N1_11 
REMARK    7  A    between atoms: C10_17  and  N3_18 
REMARK    8  A    between atoms: C11_23  and  N5_24 
ROOT
HETATM    1  C5  UNL     1      -1.959  14.530  18.133  1.00  0.00     0.095 A 
HETATM    2  C6  UNL     1      -1.852  14.811  16.780  1.00  0.00     0.099 A 
HETATM    3  N2  UNL     1      -1.760  13.841  15.864  1.00  0.00    -0.185 N 
ATOM      4  H2  UNL     1      -1.682  14.094  14.879  1.00  0.00     0.185 HD
HETATM    5  C10 UNL     1      -1.769  12.544  16.208  1.00  0.00     0.678 A 
HETATM    6  N4  UNL     1      -1.873  12.226  17.507  1.00  0.00    -0.176 N 
ATOM      7  H4  UNL     1      -1.881  11.244  17.785  1.00  0.00     0.186 HD
HETATM    8  C11 UNL     1      -1.965  13.179  18.450  1.00  0.00     0.136 A 
ENDROOT
BRANCH   2   9
HETATM    9  S1  UNL     1      -1.841  16.517  16.346  1.00  0.00    -0.170 SA
HETATM   10  C7  UNL     1      -2.657  16.674  14.760  1.00  0.00     0.085 C 
BRANCH   9  11
HETATM   11  C8  UNL     1      -0.144  16.982  16.099  1.00  0.00     0.096 C 
BRANCH  11  12
HETATM   12  C9  UNL     1       0.011  18.486  16.268  1.00  0.00     0.239 C 
BRANCH  12  13
HETATM   13  N1  UNL     1      -0.818  18.935  17.365  1.00  0.00    -0.079 N 
ATOM     14  H13 UNL     1      -1.377  19.750  17.116  1.00  0.00     0.274 HD
ATOM     15  H12 UNL     1      -1.582  18.288  17.561  1.00  0.00     0.274 HD
ATOM     16  H11 UNL     1      -0.235  19.102  18.184  1.00  0.00     0.274 HD
ENDBRANCH  12  13
ENDBRANCH  11  12
ENDBRANCH   9  11
ENDBRANCH   2   9
BRANCH   1  17
HETATM   17  C4  UNL     1      -2.056  15.578  19.107  1.00  0.00    -0.060 C 
HETATM   18  C3  UNL     1      -2.138  16.451  19.936  1.00  0.00    -0.101 C 
BRANCH  18  19
HETATM   19  C2  UNL     1      -2.251  17.538  20.937  1.00  0.00     0.090 C 
HETATM   20  C1  UNL     1      -2.152  16.872  22.289  1.00  0.00     0.018 C 
ENDBRANCH  18  19
ENDBRANCH   1  17
BRANCH   8  21
HETATM   21  N5  UNL     1      -2.066  12.869  19.712  1.00  0.00    -0.384 N 
ATOM     22  H52 UNL     1      -2.961  12.595  20.116  1.00  0.00     0.157 HD
ATOM     23  H51 UNL     1      -1.212  12.915  20.269  1.00  0.00     0.157 HD
ENDBRANCH   8  21
BRANCH   5  24
HETATM   24  N3  UNL     1      -1.683  11.601  15.334  1.00  0.00    -0.234 N 
ATOM     25  H32 UNL     1      -1.464  11.838  14.366  1.00  0.00     0.174 HD
ATOM     26  H31 UNL     1      -1.825  10.621  15.576  1.00  0.00     0.174 HD
ENDBRANCH   5  24
TORSDOF 8
ENDMDL
