MODEL 1
REMARK VINA RESULT: -6.535325390      0.000      0.000
REMARK  10 active torsions:
REMARK  status: ('A' for Active; 'I' for Inactive)
REMARK    1  A    between atoms: C3_5  and  N2_6 
REMARK       I    between atoms: N2_6  and  C4_8 
REMARK       I    between atoms: C4_8  and  N4_12 
REMARK    2  A    between atoms: N4_12  and  C5_14 
REMARK    3  A    between atoms: N5_18  and  C10_20 
REMARK    4  A    between atoms: C10_20  and  C11_21 
REMARK    5  A    between atoms: C11_21  and  C12_22 
REMARK    6  A    between atoms: C12_22  and  C13_23 
REMARK       I    between atoms: C13_23  and  N6_25 
REMARK    7  A    between atoms: N6_25  and  N7_27 
REMARK    8  A    between atoms: N7_27  and  C14_29 
REMARK    9  A    between atoms: C14_29  and  N8_31 
REMARK   10  A    between atoms: N8_31  and  N9_33 
ROOT
HETATM    1  C1  UNL     1       0.897  22.683  17.788  1.00  0.00     0.188 C 
HETATM    2  N1  UNL     1       1.430  21.491  17.152  1.00  0.00    -0.179 N 
HETATM    3  C2  UNL     1       2.735  20.990  17.389  1.00  0.00     0.268 C 
HETATM    4  O1  UNL     1       3.448  21.088  18.421  1.00  0.00    -0.269 OA
HETATM    5  C3  UNL     1       3.131  20.288  16.124  1.00  0.00     0.221 C 
HETATM    6  C8  UNL     1       1.810  19.966  15.505  1.00  0.00     0.300 C 
HETATM    7  N5  UNL     1       0.778  20.664  16.236  1.00  0.00     0.015 N 
HETATM    8  C9  UNL     1      -0.030  21.480  15.354  1.00  0.00     0.302 C 
ENDROOT
BRANCH   7   9
HETATM    9  C10 UNL     1      -0.113  19.771  16.932  1.00  0.00     0.265 C 
BRANCH   9  10
HETATM   10  C11 UNL     1      -1.491  19.730  16.422  1.00  0.00     0.039 C 
BRANCH  10  11
HETATM   11  C12 UNL     1      -2.412  19.184  17.466  1.00  0.00     0.106 C 
BRANCH  11  12
HETATM   12  C13 UNL     1      -2.812  17.783  17.267  1.00  0.00     0.236 C 
HETATM   13  O2  UNL     1      -3.656  17.219  18.003  1.00  0.00    -0.272 OA
HETATM   14  N6  UNL     1      -2.270  16.973  16.224  1.00  0.00    -0.268 N 
ATOM     15  H6  UNL     1      -1.580  17.380  15.594  1.00  0.00     0.190 HD
BRANCH  14  16
HETATM   16  N7  UNL     1      -2.650  15.656  16.040  1.00  0.00    -0.273 N 
ATOM     17  H7  UNL     1      -3.568  15.496  15.623  1.00  0.00     0.189 HD
BRANCH  16  18
HETATM   18  C14 UNL     1      -1.896  14.510  16.371  1.00  0.00     0.205 C 
HETATM   19  S1  UNL     1      -1.408  14.293  17.933  1.00  0.00    -0.038 SA
BRANCH  18  20
HETATM   20  N8  UNL     1      -1.520  13.514  15.439  1.00  0.00    -0.282 N 
ATOM     21  H8  UNL     1      -0.612  13.062  15.544  1.00  0.00     0.189 HD
BRANCH  20  22
HETATM   22  N9  UNL     1      -2.348  13.124  14.377  1.00  0.00    -0.343 N 
ATOM     23  H92 UNL     1      -3.320  13.432  14.396  1.00  0.00     0.176 HD
ATOM     24  H91 UNL     1      -2.013  12.552  13.602  1.00  0.00     0.176 HD
ENDBRANCH  20  22
ENDBRANCH  18  20
ENDBRANCH  16  18
ENDBRANCH  14  16
ENDBRANCH  11  12
ENDBRANCH  10  11
ENDBRANCH   9  10
ENDBRANCH   7   9
BRANCH   5  25
HETATM   25  N2  UNL     1       3.876  21.240  15.313  1.00  0.00    -0.212 N 
HETATM   26  C4  UNL     1       5.273  21.337  15.433  1.00  0.00     0.668 C 
HETATM   27  N3  UNL     1       5.846  22.168  16.269  1.00  0.00    -0.235 N 
HETATM   28  N4  UNL     1       6.157  20.540  14.656  1.00  0.00    -0.222 N 
ATOM     29  H32 UNL     1       5.212  22.739  16.826  1.00  0.00     0.174 HD
ATOM     30  H31 UNL     1       6.860  22.238  16.355  1.00  0.00     0.174 HD
ATOM     31  H4  UNL     1       6.293  19.563  14.916  1.00  0.00     0.178 HD
ATOM     32  H2  UNL     1       3.381  21.841  14.654  1.00  0.00     0.178 HD
BRANCH  28  33
HETATM   33  C5  UNL     1       6.870  21.058  13.512  1.00  0.00     0.099 A 
HETATM   34  C6  UNL     1       7.374  20.085  12.475  1.00  0.00     0.028 A 
HETATM   35  C7  UNL     1       6.243  21.004  12.157  1.00  0.00     0.028 A 
ENDBRANCH  28  33
ENDBRANCH   5  25
TORSDOF 10
ENDMDL
MODEL 2
REMARK VINA RESULT: -6.497681883      1.396      1.532
REMARK  10 active torsions:
REMARK  status: ('A' for Active; 'I' for Inactive)
REMARK    1  A    between atoms: C3_5  and  N2_6 
REMARK       I    between atoms: N2_6  and  C4_8 
REMARK       I    between atoms: C4_8  and  N4_12 
REMARK    2  A    between atoms: N4_12  and  C5_14 
REMARK    3  A    between atoms: N5_18  and  C10_20 
REMARK    4  A    between atoms: C10_20  and  C11_21 
REMARK    5  A    between atoms: C11_21  and  C12_22 
REMARK    6  A    between atoms: C12_22  and  C13_23 
REMARK       I    between atoms: C13_23  and  N6_25 
REMARK    7  A    between atoms: N6_25  and  N7_27 
REMARK    8  A    between atoms: N7_27  and  C14_29 
REMARK    9  A    between atoms: C14_29  and  N8_31 
REMARK   10  A    between atoms: N8_31  and  N9_33 
ROOT
HETATM    1  C1  UNL     1       0.998  23.619  17.324  1.00  0.00     0.188 C 
HETATM    2  N1  UNL     1       1.748  22.379  17.232  1.00  0.00    -0.179 N 
HETATM    3  C2  UNL     1       3.151  22.293  17.429  1.00  0.00     0.268 C 
HETATM    4  O1  UNL     1       3.897  23.010  18.143  1.00  0.00    -0.269 OA
HETATM    5  C3  UNL     1       3.603  21.136  16.590  1.00  0.00     0.221 C 
HETATM    6  C8  UNL     1       2.353  20.328  16.450  1.00  0.00     0.300 C 
HETATM    7  N5  UNL     1       1.245  21.110  16.948  1.00  0.00     0.015 N 
HETATM    8  C9  UNL     1       0.198  21.228  15.954  1.00  0.00     0.302 C 
ENDROOT
BRANCH   7   9
HETATM    9  C10 UNL     1       0.651  20.543  18.132  1.00  0.00     0.265 C 
BRANCH   9  10
HETATM   10  C11 UNL     1       1.011  19.145  18.410  1.00  0.00     0.039 C 
BRANCH  10  11
HETATM   11  C12 UNL     1      -0.214  18.352  18.740  1.00  0.00     0.106 C 
BRANCH  11  12
HETATM   12  C13 UNL     1      -0.821  17.648  17.601  1.00  0.00     0.236 C 
HETATM   13  O2  UNL     1      -0.318  17.678  16.453  1.00  0.00    -0.272 OA
HETATM   14  N6  UNL     1      -2.019  16.882  17.725  1.00  0.00    -0.268 N 
ATOM     15  H6  UNL     1      -2.472  16.821  18.636  1.00  0.00     0.190 HD
BRANCH  14  16
HETATM   16  N7  UNL     1      -2.586  16.220  16.650  1.00  0.00    -0.273 N 
ATOM     17  H7  UNL     1      -3.207  16.764  16.052  1.00  0.00     0.189 HD
BRANCH  16  18
HETATM   18  C14 UNL     1      -2.390  14.868  16.299  1.00  0.00     0.205 C 
HETATM   19  S1  UNL     1      -1.404  13.930  17.234  1.00  0.00    -0.038 SA
BRANCH  18  20
HETATM   20  N8  UNL     1      -2.991  14.246  15.180  1.00  0.00    -0.282 N 
ATOM     21  H8  UNL     1      -3.854  14.640  14.804  1.00  0.00     0.189 HD
BRANCH  20  22
HETATM   22  N9  UNL     1      -2.448  13.109  14.566  1.00  0.00    -0.343 N 
ATOM     23  H92 UNL     1      -1.595  13.228  14.020  1.00  0.00     0.176 HD
ATOM     24  H91 UNL     1      -2.872  12.185  14.648  1.00  0.00     0.176 HD
ENDBRANCH  20  22
ENDBRANCH  18  20
ENDBRANCH  16  18
ENDBRANCH  14  16
ENDBRANCH  11  12
ENDBRANCH  10  11
ENDBRANCH   9  10
ENDBRANCH   7   9
BRANCH   5  25
HETATM   25  N2  UNL     1       4.032  21.671  15.306  1.00  0.00    -0.212 N 
HETATM   26  C4  UNL     1       5.342  22.152  15.138  1.00  0.00     0.668 C 
HETATM   27  N3  UNL     1       5.656  23.407  15.345  1.00  0.00    -0.235 N 
HETATM   28  N4  UNL     1       6.413  21.309  14.732  1.00  0.00    -0.222 N 
ATOM     29  H32 UNL     1       4.888  24.011  15.636  1.00  0.00     0.174 HD
ATOM     30  H31 UNL     1       6.607  23.756  15.223  1.00  0.00     0.174 HD
ATOM     31  H4  UNL     1       6.829  20.681  15.419  1.00  0.00     0.178 HD
ATOM     32  H2  UNL     1       3.378  21.696  14.523  1.00  0.00     0.178 HD
BRANCH  28  33
HETATM   33  C5  UNL     1       6.934  21.308  13.385  1.00  0.00     0.099 A 
HETATM   34  C6  UNL     1       7.158  19.983  12.700  1.00  0.00     0.028 A 
HETATM   35  C7  UNL     1       6.061  20.887  12.249  1.00  0.00     0.028 A 
ENDBRANCH  28  33
ENDBRANCH   5  25
TORSDOF 10
ENDMDL
MODEL 3
REMARK VINA RESULT: -6.361377051      2.259      3.155
REMARK  10 active torsions:
REMARK  status: ('A' for Active; 'I' for Inactive)
REMARK    1  A    between atoms: C3_5  and  N2_6 
REMARK       I    between atoms: N2_6  and  C4_8 
REMARK       I    between atoms: C4_8  and  N4_12 
REMARK    2  A    between atoms: N4_12  and  C5_14 
REMARK    3  A    between atoms: N5_18  and  C10_20 
REMARK    4  A    between atoms: C10_20  and  C11_21 
REMARK    5  A    between atoms: C11_21  and  C12_22 
REMARK    6  A    between atoms: C12_22  and  C13_23 
REMARK       I    between atoms: C13_23  and  N6_25 
REMARK    7  A    between atoms: N6_25  and  N7_27 
REMARK    8  A    between atoms: N7_27  and  C14_29 
REMARK    9  A    between atoms: C14_29  and  N8_31 
REMARK   10  A    between atoms: N8_31  and  N9_33 
ROOT
HETATM    1  C1  UNL     1       0.887  17.677  19.256  1.00  0.00     0.188 C 
HETATM    2  N1  UNL     1       0.390  18.729  18.387  1.00  0.00    -0.179 N 
HETATM    3  C2  UNL     1       0.063  18.531  17.020  1.00  0.00     0.268 C 
HETATM    4  O1  UNL     1      -0.341  17.489  16.444  1.00  0.00    -0.269 OA
HETATM    5  C3  UNL     1       0.300  19.853  16.356  1.00  0.00     0.221 C 
HETATM    6  C8  UNL     1       0.188  20.815  17.495  1.00  0.00     0.300 C 
HETATM    7  N5  UNL     1       0.154  20.061  18.727  1.00  0.00     0.015 N 
HETATM    8  C9  UNL     1       1.186  20.505  19.641  1.00  0.00     0.302 C 
ENDROOT
BRANCH   7   9
HETATM    9  C10 UNL     1      -1.107  20.175  19.415  1.00  0.00     0.265 C 
BRANCH   9  10
HETATM   10  C11 UNL     1      -2.301  20.092  18.561  1.00  0.00     0.039 C 
BRANCH  10  11
HETATM   11  C12 UNL     1      -3.141  18.921  18.958  1.00  0.00     0.106 C 
BRANCH  11  12
HETATM   12  C13 UNL     1      -3.350  17.921  17.899  1.00  0.00     0.236 C 
HETATM   13  O2  UNL     1      -4.090  18.142  16.911  1.00  0.00    -0.272 OA
HETATM   14  N6  UNL     1      -2.724  16.640  17.923  1.00  0.00    -0.268 N 
ATOM     15  H6  UNL     1      -2.110  16.405  18.702  1.00  0.00     0.190 HD
BRANCH  14  16
HETATM   16  N7  UNL     1      -2.923  15.703  16.923  1.00  0.00    -0.273 N 
ATOM     17  H7  UNL     1      -3.716  15.857  16.301  1.00  0.00     0.189 HD
BRANCH  16  18
HETATM   18  C14 UNL     1      -2.138  14.557  16.679  1.00  0.00     0.205 C 
HETATM   19  S1  UNL     1      -0.961  14.144  17.760  1.00  0.00    -0.038 SA
BRANCH  18  20
HETATM   20  N8  UNL     1      -2.292  13.718  15.550  1.00  0.00    -0.282 N 
ATOM     21  H8  UNL     1      -1.649  12.936  15.428  1.00  0.00     0.189 HD
BRANCH  20  22
HETATM   22  N9  UNL     1      -3.295  13.921  14.591  1.00  0.00    -0.343 N 
ATOM     23  H92 UNL     1      -3.852  13.114  14.311  1.00  0.00     0.176 HD
ATOM     24  H91 UNL     1      -3.479  14.833  14.175  1.00  0.00     0.176 HD
ENDBRANCH  20  22
ENDBRANCH  18  20
ENDBRANCH  16  18
ENDBRANCH  14  16
ENDBRANCH  11  12
ENDBRANCH  10  11
ENDBRANCH   9  10
ENDBRANCH   7   9
BRANCH   5  25
HETATM   25  N2  UNL     1       1.651  19.833  15.814  1.00  0.00    -0.212 N 
HETATM   26  C4  UNL     1       2.069  20.821  14.905  1.00  0.00     0.668 C 
HETATM   27  N3  UNL     1       1.946  20.673  13.609  1.00  0.00    -0.235 N 
HETATM   28  N4  UNL     1       2.651  22.045  15.332  1.00  0.00    -0.222 N 
ATOM     29  H32 UNL     1       1.529  19.795  13.303  1.00  0.00     0.174 HD
ATOM     30  H31 UNL     1       2.249  21.390  12.950  1.00  0.00     0.174 HD
ATOM     31  H4  UNL     1       2.042  22.774  15.704  1.00  0.00     0.178 HD
ATOM     32  H2  UNL     1       2.299  19.097  16.096  1.00  0.00     0.178 HD
BRANCH  28  33
HETATM   33  C5  UNL     1       4.071  22.299  15.260  1.00  0.00     0.099 A 
HETATM   34  C6  UNL     1       4.899  22.128  16.508  1.00  0.00     0.028 A 
HETATM   35  C7  UNL     1       5.036  21.166  15.378  1.00  0.00     0.028 A 
ENDBRANCH  28  33
ENDBRANCH   5  25
TORSDOF 10
ENDMDL
MODEL 4
REMARK VINA RESULT: -6.206951056      1.627      1.769
REMARK  10 active torsions:
REMARK  status: ('A' for Active; 'I' for Inactive)
REMARK    1  A    between atoms: C3_5  and  N2_6 
REMARK       I    between atoms: N2_6  and  C4_8 
REMARK       I    between atoms: C4_8  and  N4_12 
REMARK    2  A    between atoms: N4_12  and  C5_14 
REMARK    3  A    between atoms: N5_18  and  C10_20 
REMARK    4  A    between atoms: C10_20  and  C11_21 
REMARK    5  A    between atoms: C11_21  and  C12_22 
REMARK    6  A    between atoms: C12_22  and  C13_23 
REMARK       I    between atoms: C13_23  and  N6_25 
REMARK    7  A    between atoms: N6_25  and  N7_27 
REMARK    8  A    between atoms: N7_27  and  C14_29 
REMARK    9  A    between atoms: C14_29  and  N8_31 
REMARK   10  A    between atoms: N8_31  and  N9_33 
ROOT
HETATM    1  C1  UNL     1       1.085  22.980  17.792  1.00  0.00     0.188 C 
HETATM    2  N1  UNL     1       1.830  21.781  17.453  1.00  0.00    -0.179 N 
HETATM    3  C2  UNL     1       3.238  21.664  17.590  1.00  0.00     0.268 C 
HETATM    4  O1  UNL     1       4.006  22.241  18.402  1.00  0.00    -0.269 OA
HETATM    5  C3  UNL     1       3.662  20.681  16.541  1.00  0.00     0.221 C 
HETATM    6  C8  UNL     1       2.407  19.909  16.291  1.00  0.00     0.300 C 
HETATM    7  N5  UNL     1       1.316  20.583  16.956  1.00  0.00     0.015 N 
HETATM    8  C9  UNL     1       0.241  20.878  16.031  1.00  0.00     0.302 C 
ENDROOT
BRANCH   7   9
HETATM    9  C10 UNL     1       0.755  19.807  18.033  1.00  0.00     0.265 C 
BRANCH   9  10
HETATM   10  C11 UNL     1       1.366  18.487  18.243  1.00  0.00     0.039 C 
BRANCH  10  11
HETATM   11  C12 UNL     1       0.716  17.794  19.398  1.00  0.00     0.106 C 
BRANCH  11  12
HETATM   12  C13 UNL     1      -0.314  16.811  19.030  1.00  0.00     0.236 C 
HETATM   13  O2  UNL     1      -1.508  16.926  19.399  1.00  0.00    -0.272 OA
HETATM   14  N6  UNL     1      -0.029  15.667  18.228  1.00  0.00    -0.268 N 
ATOM     15  H6  UNL     1       0.925  15.522  17.898  1.00  0.00     0.190 HD
BRANCH  14  16
HETATM   16  N7  UNL     1      -1.002  14.746  17.883  1.00  0.00    -0.273 N 
ATOM     17  H7  UNL     1      -1.336  14.131  18.625  1.00  0.00     0.189 HD
BRANCH  16  18
HETATM   18  C14 UNL     1      -1.579  14.572  16.607  1.00  0.00     0.205 C 
HETATM   19  S1  UNL     1      -2.553  15.757  15.998  1.00  0.00    -0.038 SA
BRANCH  18  20
HETATM   20  N8  UNL     1      -1.377  13.430  15.796  1.00  0.00    -0.282 N 
ATOM     21  H8  UNL     1      -0.565  12.839  15.975  1.00  0.00     0.189 HD
BRANCH  20  22
HETATM   22  N9  UNL     1      -2.249  13.079  14.757  1.00  0.00    -0.343 N 
ATOM     23  H92 UNL     1      -3.200  13.446  14.792  1.00  0.00     0.176 HD
ATOM     24  H91 UNL     1      -1.966  12.479  13.982  1.00  0.00     0.176 HD
ENDBRANCH  20  22
ENDBRANCH  18  20
ENDBRANCH  16  18
ENDBRANCH  14  16
ENDBRANCH  11  12
ENDBRANCH  10  11
ENDBRANCH   9  10
ENDBRANCH   7   9
BRANCH   5  25
HETATM   25  N2  UNL     1       4.056  21.443  15.365  1.00  0.00    -0.212 N 
HETATM   26  C4  UNL     1       5.368  21.931  15.239  1.00  0.00     0.668 C 
HETATM   27  N3  UNL     1       5.715  23.120  15.666  1.00  0.00    -0.235 N 
HETATM   28  N4  UNL     1       6.406  21.166  14.640  1.00  0.00    -0.222 N 
ATOM     29  H32 UNL     1       4.970  23.668  16.096  1.00  0.00     0.174 HD
ATOM     30  H31 UNL     1       6.667  23.473  15.575  1.00  0.00     0.174 HD
ATOM     31  H4  UNL     1       6.834  20.414  15.179  1.00  0.00     0.178 HD
ATOM     32  H2  UNL     1       3.375  21.625  14.627  1.00  0.00     0.178 HD
BRANCH  28  33
HETATM   33  C5  UNL     1       6.879  21.413  13.298  1.00  0.00     0.099 A 
HETATM   34  C6  UNL     1       7.254  20.232  12.437  1.00  0.00     0.028 A 
HETATM   35  C7  UNL     1       6.032  21.029  12.128  1.00  0.00     0.028 A 
ENDBRANCH  28  33
ENDBRANCH   5  25
TORSDOF 10
ENDMDL
MODEL 5
REMARK VINA RESULT: -6.142145124      2.464      3.315
REMARK  10 active torsions:
REMARK  status: ('A' for Active; 'I' for Inactive)
REMARK    1  A    between atoms: C3_5  and  N2_6 
REMARK       I    between atoms: N2_6  and  C4_8 
REMARK       I    between atoms: C4_8  and  N4_12 
REMARK    2  A    between atoms: N4_12  and  C5_14 
REMARK    3  A    between atoms: N5_18  and  C10_20 
REMARK    4  A    between atoms: C10_20  and  C11_21 
REMARK    5  A    between atoms: C11_21  and  C12_22 
REMARK    6  A    between atoms: C12_22  and  C13_23 
REMARK       I    between atoms: C13_23  and  N6_25 
REMARK    7  A    between atoms: N6_25  and  N7_27 
REMARK    8  A    between atoms: N7_27  and  C14_29 
REMARK    9  A    between atoms: C14_29  and  N8_31 
REMARK   10  A    between atoms: N8_31  and  N9_33 
ROOT
HETATM    1  C1  UNL     1       0.661  18.453  19.417  1.00  0.00     0.188 C 
HETATM    2  N1  UNL     1      -0.255  19.137  18.520  1.00  0.00    -0.179 N 
HETATM    3  C2  UNL     1      -0.264  18.950  17.114  1.00  0.00     0.268 C 
HETATM    4  O1  UNL     1       0.064  17.937  16.446  1.00  0.00    -0.269 OA
HETATM    5  C3  UNL     1      -0.759  20.244  16.541  1.00  0.00     0.221 C 
HETATM    6  C8  UNL     1      -1.520  20.836  17.684  1.00  0.00     0.300 C 
HETATM    7  N5  UNL     1      -1.244  20.056  18.869  1.00  0.00     0.015 N 
HETATM    8  C9  UNL     1      -0.755  20.893  19.945  1.00  0.00     0.302 C 
ENDROOT
BRANCH   7   9
HETATM    9  C10 UNL     1      -2.407  19.361  19.360  1.00  0.00     0.265 C 
BRANCH   9  10
HETATM   10  C11 UNL     1      -3.668  19.678  18.675  1.00  0.00     0.039 C 
BRANCH  10  11
HETATM   11  C12 UNL     1      -4.327  18.423  18.198  1.00  0.00     0.106 C 
BRANCH  11  12
HETATM   12  C13 UNL     1      -3.608  17.714  17.128  1.00  0.00     0.236 C 
HETATM   13  O2  UNL     1      -3.583  18.137  15.947  1.00  0.00    -0.272 OA
HETATM   14  N6  UNL     1      -2.889  16.504  17.361  1.00  0.00    -0.268 N 
ATOM     15  H6  UNL     1      -2.874  16.114  18.302  1.00  0.00     0.190 HD
BRANCH  14  16
HETATM   16  N7  UNL     1      -2.213  15.842  16.351  1.00  0.00    -0.273 N 
ATOM     17  H7  UNL     1      -1.976  16.388  15.523  1.00  0.00     0.189 HD
BRANCH  16  18
HETATM   18  C14 UNL     1      -1.819  14.487  16.353  1.00  0.00     0.205 C 
HETATM   19  S1  UNL     1      -0.878  13.927  17.588  1.00  0.00    -0.038 SA
BRANCH  18  20
HETATM   20  N8  UNL     1      -2.180  13.557  15.351  1.00  0.00    -0.282 N 
ATOM     21  H8  UNL     1      -1.891  12.584  15.457  1.00  0.00     0.189 HD
BRANCH  20  22
HETATM   22  N9  UNL     1      -2.920  13.919  14.217  1.00  0.00    -0.343 N 
ATOM     23  H92 UNL     1      -2.540  14.650  13.617  1.00  0.00     0.176 HD
ATOM     24  H91 UNL     1      -3.810  13.480  13.980  1.00  0.00     0.176 HD
ENDBRANCH  20  22
ENDBRANCH  18  20
ENDBRANCH  16  18
ENDBRANCH  14  16
ENDBRANCH  11  12
ENDBRANCH  10  11
ENDBRANCH   9  10
ENDBRANCH   7   9
BRANCH   5  25
HETATM   25  N2  UNL     1       0.408  21.049  16.211  1.00  0.00    -0.212 N 
HETATM   26  C4  UNL     1       1.645  20.435  15.949  1.00  0.00     0.668 C 
HETATM   27  N3  UNL     1       2.527  20.213  16.892  1.00  0.00    -0.235 N 
HETATM   28  N4  UNL     1       2.021  20.015  14.644  1.00  0.00    -0.222 N 
ATOM     29  H32 UNL     1       2.258  20.515  17.828  1.00  0.00     0.174 HD
ATOM     30  H31 UNL     1       3.425  19.768  16.701  1.00  0.00     0.174 HD
ATOM     31  H4  UNL     1       1.618  19.155  14.272  1.00  0.00     0.178 HD
ATOM     32  H2  UNL     1       0.327  22.065  16.170  1.00  0.00     0.178 HD
BRANCH  28  33
HETATM   33  C5  UNL     1       2.950  20.756  13.825  1.00  0.00     0.099 A 
HETATM   34  C6  UNL     1       2.574  21.052  12.394  1.00  0.00     0.028 A 
HETATM   35  C7  UNL     1       2.621  22.151  13.402  1.00  0.00     0.028 A 
ENDBRANCH  28  33
ENDBRANCH   5  25
TORSDOF 10
ENDMDL
