MODEL 1
REMARK VINA RESULT: -5.942520670      0.000      0.000
REMARK  7 active torsions:
REMARK  status: ('A' for Active; 'I' for Inactive)
REMARK       I    between atoms: N1_2  and  C2_4 
REMARK    1  A    between atoms: C2_4  and  C3_6 
REMARK    2  A    between atoms: C3_6  and  C4_7 
REMARK    3  A    between atoms: C4_7  and  N2_8 
REMARK    4  A    between atoms: C7_13  and  C8_14 
REMARK    5  A    between atoms: C8_14  and  C9_15 
REMARK    6  A    between atoms: C8_14  and  N4_20 
REMARK    7  A    between atoms: C9_15  and  N3_16 
REMARK       I    between atoms: N4_20  and  C13_22 
REMARK       I    between atoms: C13_22  and  N5_24 
ROOT
HETATM    1  C4  UNL     1      -2.134  16.603  16.772  1.00  0.00     0.220 C 
HETATM    2  C6  UNL     1      -3.131  17.595  17.254  1.00  0.00     0.078 C 
HETATM    3  C7  UNL     1      -3.620  18.594  16.199  1.00  0.00     0.107 C 
HETATM    4  C15 UNL     1      -2.479  19.396  15.721  1.00  0.00     0.242 C 
HETATM    5  O3  UNL     1      -2.644  20.085  14.688  1.00  0.00    -0.272 OA
HETATM    6  N6  UNL     1      -1.152  19.504  16.287  1.00  0.00    -0.160 N 
ATOM      7  H6  UNL     1      -0.718  20.426  16.261  1.00  0.00     0.187 HD
HETATM    8  C16 UNL     1      -0.387  18.454  16.877  1.00  0.00     0.676 C 
HETATM    9  N7  UNL     1       0.781  18.758  17.378  1.00  0.00    -0.235 N 
ATOM     10  H71 UNL     1       1.328  18.008  17.800  1.00  0.00     0.174 HD
ATOM     11  H72 UNL     1       1.049  19.740  17.305  1.00  0.00     0.174 HD
HETATM   12  N8  UNL     1      -0.762  17.082  16.981  1.00  0.00    -0.191 N 
ATOM     13  H8  UNL     1      -0.041  16.399  17.212  1.00  0.00     0.180 HD
ENDROOT
BRANCH   3  14
HETATM   14  C8  UNL     1      -4.679  19.422  16.897  1.00  0.00     0.125 C 
BRANCH  14  15
HETATM   15  C9  UNL     1      -5.857  19.604  16.037  1.00  0.00     0.262 C 
BRANCH  15  16
HETATM   16  N3  UNL     1      -7.152  19.450  16.666  1.00  0.00    -0.077 N 
HETATM   17  C10 UNL     1      -7.170  18.774  17.910  1.00  0.00     0.271 C 
HETATM   18  C11 UNL     1      -7.608  20.839  16.897  1.00  0.00     0.271 C 
HETATM   19  C12 UNL     1      -8.155  18.882  15.791  1.00  0.00     0.271 C 
ENDBRANCH  15  16
ENDBRANCH  14  15
BRANCH  14  20
HETATM   20  N4  UNL     1      -4.030  20.656  17.291  1.00  0.00    -0.336 N 
HETATM   21  C13 UNL     1      -3.975  21.026  18.658  1.00  0.00     0.316 C 
HETATM   22  O2  UNL     1      -4.494  20.269  19.510  1.00  0.00    -0.247 OA
HETATM   23  N5  UNL     1      -3.354  22.222  19.098  1.00  0.00    -0.347 N 
HETATM   24  C14 UNL     1      -3.343  22.520  20.511  1.00  0.00     0.151 C 
ATOM     25  H5  UNL     1      -2.923  22.859  18.429  1.00  0.00     0.163 HD
ATOM     26  H4  UNL     1      -3.612  21.259  16.583  1.00  0.00     0.164 HD
ENDBRANCH  14  20
ENDBRANCH   3  14
BRANCH   1  27
HETATM   27  C3  UNL     1      -2.274  15.334  17.578  1.00  0.00     0.164 C 
BRANCH  27  28
HETATM   28  C2  UNL     1      -1.370  15.270  18.743  1.00  0.00     0.221 C 
HETATM   29  N1  UNL     1      -0.202  14.454  18.692  1.00  0.00    -0.365 N 
HETATM   30  C1  UNL     1       0.672  14.393  19.823  1.00  0.00     0.149 C 
ATOM     31  H1  UNL     1       0.011  13.917  17.852  1.00  0.00     0.161 HD
HETATM   32  O1  UNL     1      -1.587  15.907  19.790  1.00  0.00    -0.273 OA
ENDBRANCH  27  28
ENDBRANCH   1  27
BRANCH   1  33
HETATM   33  N2  UNL     1      -2.341  16.217  15.389  1.00  0.00    -0.051 N 
HETATM   34  C5  UNL     1      -2.196  14.781  15.293  1.00  0.00     0.270 C 
ATOM     35  H22 UNL     1      -3.232  16.548  15.018  1.00  0.00     0.279 HD
ATOM     36  H21 UNL     1      -1.730  16.718  14.745  1.00  0.00     0.279 HD
ENDBRANCH   1  33
TORSDOF 7
ENDMDL
MODEL 2
REMARK VINA RESULT: -5.655398148      1.295      3.224
REMARK  7 active torsions:
REMARK  status: ('A' for Active; 'I' for Inactive)
REMARK       I    between atoms: N1_2  and  C2_4 
REMARK    1  A    between atoms: C2_4  and  C3_6 
REMARK    2  A    between atoms: C3_6  and  C4_7 
REMARK    3  A    between atoms: C4_7  and  N2_8 
REMARK    4  A    between atoms: C7_13  and  C8_14 
REMARK    5  A    between atoms: C8_14  and  C9_15 
REMARK    6  A    between atoms: C8_14  and  N4_20 
REMARK    7  A    between atoms: C9_15  and  N3_16 
REMARK       I    between atoms: N4_20  and  C13_22 
REMARK       I    between atoms: C13_22  and  N5_24 
ROOT
HETATM    1  C4  UNL     1      -2.149  16.842  16.836  1.00  0.00     0.220 C 
HETATM    2  C6  UNL     1      -3.116  17.900  17.233  1.00  0.00     0.078 C 
HETATM    3  C7  UNL     1      -3.531  18.858  16.111  1.00  0.00     0.107 C 
HETATM    4  C15 UNL     1      -2.343  19.585  15.625  1.00  0.00     0.242 C 
HETATM    5  O3  UNL     1      -2.449  20.221  14.552  1.00  0.00    -0.272 OA
HETATM    6  N6  UNL     1      -1.029  19.668  16.224  1.00  0.00    -0.160 N 
ATOM      7  H6  UNL     1      -0.555  20.569  16.162  1.00  0.00     0.187 HD
HETATM    8  C16 UNL     1      -0.327  18.622  16.894  1.00  0.00     0.676 C 
HETATM    9  N7  UNL     1       0.838  18.905  17.413  1.00  0.00    -0.235 N 
ATOM     10  H71 UNL     1       1.341  18.157  17.891  1.00  0.00     0.174 HD
ATOM     11  H72 UNL     1       1.151  19.868  17.294  1.00  0.00     0.174 HD
HETATM   12  N8  UNL     1      -0.764  17.275  17.060  1.00  0.00    -0.191 N 
ATOM     13  H8  UNL     1      -0.080  16.576  17.350  1.00  0.00     0.180 HD
ENDROOT
BRANCH   3  14
HETATM   14  C8  UNL     1      -4.572  19.768  16.730  1.00  0.00     0.125 C 
BRANCH  14  15
HETATM   15  C9  UNL     1      -4.187  20.157  18.093  1.00  0.00     0.262 C 
BRANCH  15  16
HETATM   16  N3  UNL     1      -3.895  21.559  18.313  1.00  0.00    -0.077 N 
HETATM   17  C10 UNL     1      -4.202  22.439  17.247  1.00  0.00     0.271 C 
HETATM   18  C11 UNL     1      -4.746  21.928  19.466  1.00  0.00     0.271 C 
HETATM   19  C12 UNL     1      -2.545  21.804  18.769  1.00  0.00     0.271 C 
ENDBRANCH  15  16
ENDBRANCH  14  15
BRANCH  14  20
HETATM   20  N4  UNL     1      -5.831  19.057  16.644  1.00  0.00    -0.336 N 
HETATM   21  C13 UNL     1      -6.893  19.581  15.865  1.00  0.00     0.316 C 
HETATM   22  O2  UNL     1      -6.721  20.661  15.257  1.00  0.00    -0.247 OA
HETATM   23  N5  UNL     1      -8.145  18.926  15.748  1.00  0.00    -0.347 N 
HETATM   24  C14 UNL     1      -9.171  19.531  14.933  1.00  0.00     0.151 C 
ATOM     25  H5  UNL     1      -8.317  18.045  16.231  1.00  0.00     0.163 HD
ATOM     26  H4  UNL     1      -5.953  18.177  17.145  1.00  0.00     0.164 HD
ENDBRANCH  14  20
ENDBRANCH   3  14
BRANCH   1  27
HETATM   27  C3  UNL     1      -2.366  15.627  17.705  1.00  0.00     0.164 C 
BRANCH  27  28
HETATM   28  C2  UNL     1      -1.392  15.506  18.807  1.00  0.00     0.221 C 
HETATM   29  N1  UNL     1      -0.379  14.504  18.754  1.00  0.00    -0.365 N 
HETATM   30  C1  UNL     1       0.563  14.387  19.824  1.00  0.00     0.149 C 
ATOM     31  H1  UNL     1      -0.326  13.872  17.955  1.00  0.00     0.161 HD
HETATM   32  O1  UNL     1      -1.416  16.252  19.803  1.00  0.00    -0.273 OA
ENDBRANCH  27  28
ENDBRANCH   1  27
BRANCH   1  33
HETATM   33  N2  UNL     1      -2.334  16.389  15.470  1.00  0.00    -0.051 N 
HETATM   34  C5  UNL     1      -2.154  14.954  15.441  1.00  0.00     0.270 C 
ATOM     35  H22 UNL     1      -3.229  16.682  15.077  1.00  0.00     0.279 HD
ATOM     36  H21 UNL     1      -1.728  16.875  14.809  1.00  0.00     0.279 HD
ENDBRANCH   1  33
TORSDOF 7
ENDMDL
MODEL 3
REMARK VINA RESULT: -5.654045654      3.022      5.509
REMARK  7 active torsions:
REMARK  status: ('A' for Active; 'I' for Inactive)
REMARK       I    between atoms: N1_2  and  C2_4 
REMARK    1  A    between atoms: C2_4  and  C3_6 
REMARK    2  A    between atoms: C3_6  and  C4_7 
REMARK    3  A    between atoms: C4_7  and  N2_8 
REMARK    4  A    between atoms: C7_13  and  C8_14 
REMARK    5  A    between atoms: C8_14  and  C9_15 
REMARK    6  A    between atoms: C8_14  and  N4_20 
REMARK    7  A    between atoms: C9_15  and  N3_16 
REMARK       I    between atoms: N4_20  and  C13_22 
REMARK       I    between atoms: C13_22  and  N5_24 
ROOT
HETATM    1  C4  UNL     1      -1.507  16.466  18.277  1.00  0.00     0.220 C 
HETATM    2  C6  UNL     1      -0.634  17.600  17.872  1.00  0.00     0.078 C 
HETATM    3  C7  UNL     1      -0.444  18.689  18.933  1.00  0.00     0.107 C 
HETATM    4  C15 UNL     1      -1.750  19.300  19.245  1.00  0.00     0.242 C 
HETATM    5  O3  UNL     1      -1.824  20.029  20.260  1.00  0.00    -0.272 OA
HETATM    6  N6  UNL     1      -3.000  19.172  18.528  1.00  0.00    -0.160 N 
ATOM      7  H6  UNL     1      -3.578  20.009  18.466  1.00  0.00     0.187 HD
HETATM    8  C16 UNL     1      -3.508  17.996  17.898  1.00  0.00     0.676 C 
HETATM    9  N7  UNL     1      -4.641  18.091  17.255  1.00  0.00    -0.235 N 
ATOM     10  H71 UNL     1      -5.005  17.251  16.805  1.00  0.00     0.174 HD
ATOM     11  H72 UNL     1      -5.073  19.015  17.257  1.00  0.00     0.174 HD
HETATM   12  N8  UNL     1      -2.904  16.705  17.894  1.00  0.00    -0.191 N 
ATOM     13  H8  UNL     1      -3.471  15.906  17.611  1.00  0.00     0.180 HD
ENDROOT
BRANCH   3  14
HETATM   14  C8  UNL     1       0.541  19.667  18.327  1.00  0.00     0.125 C 
BRANCH  14  15
HETATM   15  C9  UNL     1       0.453  19.661  16.860  1.00  0.00     0.262 C 
BRANCH  15  16
HETATM   16  N3  UNL     1       0.079  20.907  16.224  1.00  0.00    -0.077 N 
HETATM   17  C10 UNL     1       0.897  21.334  15.150  1.00  0.00     0.271 C 
HETATM   18  C11 UNL     1      -1.276  20.647  15.689  1.00  0.00     0.271 C 
HETATM   19  C12 UNL     1      -0.106  21.999  17.156  1.00  0.00     0.271 C 
ENDBRANCH  15  16
ENDBRANCH  14  15
BRANCH  14  20
HETATM   20  N4  UNL     1       1.842  19.306  18.850  1.00  0.00    -0.336 N 
HETATM   21  C13 UNL     1       2.566  20.223  19.653  1.00  0.00     0.316 C 
HETATM   22  O2  UNL     1       2.060  21.341  19.899  1.00  0.00    -0.247 OA
HETATM   23  N5  UNL     1       3.843  19.920  20.189  1.00  0.00    -0.347 N 
HETATM   24  C14 UNL     1       4.510  20.913  20.997  1.00  0.00     0.151 C 
ATOM     25  H5  UNL     1       4.282  19.018  20.007  1.00  0.00     0.163 HD
ATOM     26  H4  UNL     1       2.238  18.390  18.640  1.00  0.00     0.164 HD
ENDBRANCH  14  20
ENDBRANCH   3  14
BRANCH   1  27
HETATM   27  C3  UNL     1      -1.067  15.220  17.545  1.00  0.00     0.164 C 
BRANCH  27  28
HETATM   28  C2  UNL     1      -1.589  15.128  16.168  1.00  0.00     0.221 C 
HETATM   29  N1  UNL     1      -1.857  13.850  15.594  1.00  0.00    -0.365 N 
HETATM   30  C1  UNL     1      -2.362  13.762  14.259  1.00  0.00     0.149 C 
ATOM     31  H1  UNL     1      -1.689  13.002  16.134  1.00  0.00     0.161 HD
HETATM   32  O1  UNL     1      -1.809  16.134  15.469  1.00  0.00    -0.273 OA
ENDBRANCH  27  28
ENDBRANCH   1  27
BRANCH   1  33
HETATM   33  N2  UNL     1      -1.405  16.150  19.690  1.00  0.00    -0.051 N 
HETATM   34  C5  UNL     1      -1.126  14.736  19.819  1.00  0.00     0.270 C 
ATOM     35  H22 UNL     1      -0.721  16.732  20.174  1.00  0.00     0.279 HD
ATOM     36  H21 UNL     1      -2.229  16.438  20.218  1.00  0.00     0.279 HD
ENDBRANCH   1  33
TORSDOF 7
ENDMDL
MODEL 4
REMARK VINA RESULT: -5.483789694      3.354      6.036
REMARK  7 active torsions:
REMARK  status: ('A' for Active; 'I' for Inactive)
REMARK       I    between atoms: N1_2  and  C2_4 
REMARK    1  A    between atoms: C2_4  and  C3_6 
REMARK    2  A    between atoms: C3_6  and  C4_7 
REMARK    3  A    between atoms: C4_7  and  N2_8 
REMARK    4  A    between atoms: C7_13  and  C8_14 
REMARK    5  A    between atoms: C8_14  and  C9_15 
REMARK    6  A    between atoms: C8_14  and  N4_20 
REMARK    7  A    between atoms: C9_15  and  N3_16 
REMARK       I    between atoms: N4_20  and  C13_22 
REMARK       I    between atoms: C13_22  and  N5_24 
ROOT
HETATM    1  C4  UNL     1      -0.686  18.025  17.848  1.00  0.00     0.220 C 
HETATM    2  C6  UNL     1      -0.087  18.952  16.852  1.00  0.00     0.078 C 
HETATM    3  C7  UNL     1      -1.012  20.072  16.364  1.00  0.00     0.107 C 
HETATM    4  C15 UNL     1      -2.180  19.479  15.685  1.00  0.00     0.242 C 
HETATM    5  O3  UNL     1      -3.154  20.228  15.444  1.00  0.00    -0.272 OA
HETATM    6  N6  UNL     1      -2.372  18.114  15.248  1.00  0.00    -0.160 N 
ATOM      7  H6  UNL     1      -2.859  17.983  14.361  1.00  0.00     0.187 HD
HETATM    8  C16 UNL     1      -1.951  16.931  15.927  1.00  0.00     0.676 C 
HETATM    9  N7  UNL     1      -2.176  15.782  15.346  1.00  0.00    -0.235 N 
ATOM     10  H71 UNL     1      -1.875  14.937  15.831  1.00  0.00     0.174 HD
ATOM     11  H72 UNL     1      -2.640  15.831  14.439  1.00  0.00     0.174 HD
HETATM   12  N8  UNL     1      -1.301  16.863  17.194  1.00  0.00    -0.191 N 
ATOM     13  H8  UNL     1      -1.261  15.962  17.670  1.00  0.00     0.180 HD
ENDROOT
BRANCH   3  14
HETATM   14  C8  UNL     1      -0.158  20.921  15.445  1.00  0.00     0.125 C 
BRANCH  14  15
HETATM   15  C9  UNL     1       0.946  21.549  16.184  1.00  0.00     0.262 C 
BRANCH  15  16
HETATM   16  N3  UNL     1       2.242  21.557  15.537  1.00  0.00    -0.077 N 
HETATM   17  C10 UNL     1       2.564  22.717  14.792  1.00  0.00     0.271 C 
HETATM   18  C11 UNL     1       3.204  21.454  16.656  1.00  0.00     0.271 C 
HETATM   19  C12 UNL     1       2.495  20.380  14.735  1.00  0.00     0.271 C 
ENDBRANCH  15  16
ENDBRANCH  14  15
BRANCH  14  20
HETATM   20  N4  UNL     1      -1.060  21.857  14.808  1.00  0.00    -0.336 N 
HETATM   21  C13 UNL     1      -0.962  22.105  13.415  1.00  0.00     0.316 C 
HETATM   22  O2  UNL     1      -0.087  21.501  12.754  1.00  0.00    -0.247 OA
HETATM   23  N5  UNL     1      -1.818  23.012  12.742  1.00  0.00    -0.347 N 
HETATM   24  C14 UNL     1      -1.648  23.204  11.321  1.00  0.00     0.151 C 
ATOM     25  H5  UNL     1      -2.541  23.519  13.252  1.00  0.00     0.163 HD
ATOM     26  H4  UNL     1      -1.768  22.339  15.362  1.00  0.00     0.164 HD
ENDBRANCH  14  20
ENDBRANCH   3  14
BRANCH   1  27
HETATM   27  C3  UNL     1       0.408  17.487  18.740  1.00  0.00     0.164 C 
BRANCH  27  28
HETATM   28  C2  UNL     1       1.212  18.539  19.390  1.00  0.00     0.221 C 
HETATM   29  N1  UNL     1       2.632  18.536  19.253  1.00  0.00    -0.365 N 
HETATM   30  C1  UNL     1       3.410  19.556  19.885  1.00  0.00     0.149 C 
ATOM     31  H1  UNL     1       3.091  17.808  18.706  1.00  0.00     0.161 HD
HETATM   32  O1  UNL     1       0.699  19.448  20.068  1.00  0.00    -0.273 OA
ENDBRANCH  27  28
ENDBRANCH   1  27
BRANCH   1  33
HETATM   33  N2  UNL     1      -1.631  18.679  18.734  1.00  0.00    -0.051 N 
HETATM   34  C5  UNL     1      -2.502  17.668  19.293  1.00  0.00     0.270 C 
ATOM     35  H22 UNL     1      -1.173  19.243  19.450  1.00  0.00     0.279 HD
ATOM     36  H21 UNL     1      -2.145  19.431  18.275  1.00  0.00     0.279 HD
ENDBRANCH   1  33
TORSDOF 7
ENDMDL
MODEL 5
REMARK VINA RESULT: -5.480878788      5.315      8.094
REMARK  7 active torsions:
REMARK  status: ('A' for Active; 'I' for Inactive)
REMARK       I    between atoms: N1_2  and  C2_4 
REMARK    1  A    between atoms: C2_4  and  C3_6 
REMARK    2  A    between atoms: C3_6  and  C4_7 
REMARK    3  A    between atoms: C4_7  and  N2_8 
REMARK    4  A    between atoms: C7_13  and  C8_14 
REMARK    5  A    between atoms: C8_14  and  C9_15 
REMARK    6  A    between atoms: C8_14  and  N4_20 
REMARK    7  A    between atoms: C9_15  and  N3_16 
REMARK       I    between atoms: N4_20  and  C13_22 
REMARK       I    between atoms: C13_22  and  N5_24 
ROOT
HETATM    1  C4  UNL     1       3.849  21.571  14.699  1.00  0.00     0.220 C 
HETATM    2  C6  UNL     1       2.980  20.748  15.583  1.00  0.00     0.078 C 
HETATM    3  C7  UNL     1       1.913  21.529  16.357  1.00  0.00     0.107 C 
HETATM    4  C15 UNL     1       2.571  22.496  17.256  1.00  0.00     0.242 C 
HETATM    5  O3  UNL     1       1.859  23.383  17.778  1.00  0.00    -0.272 OA
HETATM    6  N6  UNL     1       3.966  22.573  17.631  1.00  0.00    -0.160 N 
ATOM      7  H6  UNL     1       4.165  22.829  18.598  1.00  0.00     0.187 HD
HETATM    8  C16 UNL     1       5.092  22.328  16.790  1.00  0.00     0.676 C 
HETATM    9  N7  UNL     1       6.282  22.402  17.326  1.00  0.00    -0.235 N 
ATOM     10  H71 UNL     1       7.087  22.228  16.725  1.00  0.00     0.174 HD
ATOM     11  H72 UNL     1       6.303  22.633  18.319  1.00  0.00     0.174 HD
HETATM   12  N8  UNL     1       5.063  22.006  15.401  1.00  0.00    -0.191 N 
ATOM     13  H8  UNL     1       5.929  22.081  14.868  1.00  0.00     0.180 HD
ENDROOT
BRANCH   3  14
HETATM   14  C8  UNL     1       1.111  20.479  17.098  1.00  0.00     0.125 C 
BRANCH  14  15
HETATM   15  C9  UNL     1       1.997  19.533  17.792  1.00  0.00     0.262 C 
BRANCH  15  16
HETATM   16  N3  UNL     1       1.853  19.440  19.229  1.00  0.00    -0.077 N 
HETATM   17  C10 UNL     1       1.025  20.412  19.842  1.00  0.00     0.271 C 
HETATM   18  C11 UNL     1       1.231  18.114  19.444  1.00  0.00     0.271 C 
HETATM   19  C12 UNL     1       3.114  19.364  19.933  1.00  0.00     0.271 C 
ENDBRANCH  15  16
ENDBRANCH  14  15
BRANCH  14  20
HETATM   20  N4  UNL     1       0.239  19.870  16.115  1.00  0.00    -0.336 N 
HETATM   21  C13 UNL     1      -1.086  19.508  16.467  1.00  0.00     0.316 C 
HETATM   22  O2  UNL     1      -1.482  19.725  17.634  1.00  0.00    -0.247 OA
HETATM   23  N5  UNL     1      -1.981  18.909  15.544  1.00  0.00    -0.347 N 
HETATM   24  C14 UNL     1      -3.313  18.573  15.987  1.00  0.00     0.151 C 
ATOM     25  H5  UNL     1      -1.688  18.719  14.586  1.00  0.00     0.163 HD
ATOM     26  H4  UNL     1       0.578  19.702  15.168  1.00  0.00     0.164 HD
ENDBRANCH  14  20
ENDBRANCH   3  14
BRANCH   1  27
HETATM   27  C3  UNL     1       4.305  20.726  13.534  1.00  0.00     0.164 C 
BRANCH  27  28
HETATM   28  C2  UNL     1       5.766  20.519  13.488  1.00  0.00     0.221 C 
HETATM   29  N1  UNL     1       6.545  21.169  12.487  1.00  0.00    -0.365 N 
HETATM   30  C1  UNL     1       7.960  20.967  12.444  1.00  0.00     0.149 C 
ATOM     31  H1  UNL     1       6.095  21.777  11.803  1.00  0.00     0.161 HD
HETATM   32  O1  UNL     1       6.361  19.786  14.300  1.00  0.00    -0.273 OA
ENDBRANCH  27  28
ENDBRANCH   1  27
BRANCH   1  33
HETATM   33  N2  UNL     1       3.155  22.704  14.117  1.00  0.00    -0.051 N 
HETATM   34  C5  UNL     1       2.614  22.295  12.839  1.00  0.00     0.270 C 
ATOM     35  H22 UNL     1       2.445  23.091  14.739  1.00  0.00     0.279 HD
ATOM     36  H21 UNL     1       3.744  23.533  14.047  1.00  0.00     0.279 HD
ENDBRANCH   1  33
TORSDOF 7
ENDMDL
