MODEL 1
REMARK VINA RESULT: -6.129546302      0.000      0.000
REMARK  10 active torsions:
REMARK  status: ('A' for Active; 'I' for Inactive)
REMARK    1  A    between atoms: C2_2  and  C3_3 
REMARK    2  A    between atoms: C3_3  and  N1_4 
REMARK    3  A    between atoms: N1_4  and  C4_6 
REMARK    4  A    between atoms: C4_6  and  N2_8 
REMARK    5  A    between atoms: C6_10  and  N3_11 
REMARK       I    between atoms: N3_11  and  C7_13 
REMARK       I    between atoms: C7_13  and  N4_15 
REMARK    6  A    between atoms: N4_15  and  C8_17 
REMARK    7  A    between atoms: C8_17  and  C9_18 
REMARK    8  A    between atoms: C9_18  and  N5_19 
REMARK       I    between atoms: N5_19  and  C10_21 
REMARK    9  A    between atoms: C11_26  and  N8_27 
REMARK   10  A    between atoms: C12_31  and  C13_32 
REMARK       I    between atoms: C13_32  and  N9_34 
ROOT
HETATM    1  N2  UNL     1       2.481  20.570  18.667  1.00  0.00    -0.319 N 
HETATM    2  C5  UNL     1       2.566  19.329  19.514  1.00  0.00     0.159 C 
HETATM    3  C6  UNL     1       1.187  18.751  19.135  1.00  0.00     0.141 C 
HETATM    4  C11 UNL     1       0.976  19.228  17.682  1.00  0.00     0.263 C 
HETATM    5  C12 UNL     1       2.280  19.958  17.413  1.00  0.00     0.115 C 
ENDROOT
BRANCH   3   6
HETATM    6  N3  UNL     1       1.190  17.323  19.208  1.00  0.00    -0.335 N 
HETATM    7  C7  UNL     1      -0.023  16.570  19.227  1.00  0.00     0.316 C 
HETATM    8  O1  UNL     1      -1.114  17.181  19.177  1.00  0.00    -0.247 OA
HETATM    9  N4  UNL     1       0.010  15.173  19.298  1.00  0.00    -0.342 N 
ATOM     10  H4  UNL     1       0.922  14.717  19.325  1.00  0.00     0.164 HD
ATOM     11  H3  UNL     1       2.081  16.830  19.246  1.00  0.00     0.164 HD
BRANCH   9  12
HETATM   12  C8  UNL     1      -1.142  14.356  19.333  1.00  0.00     0.144 C 
BRANCH  12  13
HETATM   13  C9  UNL     1      -1.495  13.849  17.965  1.00  0.00     0.142 C 
BRANCH  13  14
HETATM   14  N5  UNL     1      -2.326  14.845  17.307  1.00  0.00    -0.363 N 
HETATM   15  C10 UNL     1      -1.925  15.253  16.005  1.00  0.00     0.181 C 
HETATM   16  N6  UNL     1      -1.784  14.342  15.108  1.00  0.00    -0.374 N 
HETATM   17  N7  UNL     1      -1.705  16.631  15.780  1.00  0.00    -0.064 NA
ATOM     18  H62 UNL     1      -1.942  13.348  15.271  1.00  0.00     0.158 HD
ATOM     19  H61 UNL     1      -1.496  14.635  14.174  1.00  0.00     0.158 HD
ATOM     20  H5  UNL     1      -3.156  15.231  17.757  1.00  0.00     0.162 HD
ENDBRANCH  13  14
ENDBRANCH  12  13
ENDBRANCH   9  12
ENDBRANCH   3   6
BRANCH   4  21
HETATM   21  N8  UNL     1      -0.185  20.039  17.567  1.00  0.00    -0.067 N 
ATOM     22  H83 UNL     1      -0.712  19.819  16.722  1.00  0.00     0.275 HD
ATOM     23  H82 UNL     1      -0.888  19.787  18.261  1.00  0.00     0.275 HD
ATOM     24  H81 UNL     1       0.049  21.030  17.615  1.00  0.00     0.275 HD
ENDBRANCH   4  21
BRANCH   1  25
HETATM   25  C4  UNL     1       2.593  21.826  19.256  1.00  0.00     0.174 C 
HETATM   26  S1  UNL     1       1.195  22.586  19.839  1.00  0.00    -0.041 SA
BRANCH  25  27
HETATM   27  N1  UNL     1       3.743  22.612  19.460  1.00  0.00    -0.367 N 
ATOM     28  H1  UNL     1       3.675  23.626  19.369  1.00  0.00     0.161 HD
BRANCH  27  29
HETATM   29  C3  UNL     1       5.016  22.019  19.795  1.00  0.00     0.121 C 
BRANCH  29  30
HETATM   30  C2  UNL     1       5.006  21.414  21.175  1.00  0.00     0.015 C 
HETATM   31  C1  UNL     1       6.128  22.061  21.957  1.00  0.00     0.006 C 
ENDBRANCH  29  30
ENDBRANCH  27  29
ENDBRANCH  25  27
ENDBRANCH   1  25
BRANCH   5  32
HETATM   32  C13 UNL     1       2.471  20.565  16.153  1.00  0.00     0.266 C 
HETATM   33  O2  UNL     1       1.587  21.362  15.685  1.00  0.00    -0.266 OA
HETATM   34  N9  UNL     1       3.597  20.349  15.339  1.00  0.00    -0.360 N 
HETATM   35  C14 UNL     1       3.779  20.972  14.040  1.00  0.00     0.149 C 
ATOM     36  H9  UNL     1       4.325  19.721  15.679  1.00  0.00     0.162 HD
ENDBRANCH   5  32
TORSDOF 10
ENDMDL
MODEL 2
REMARK VINA RESULT: -6.107599512      0.822      1.321
REMARK  10 active torsions:
REMARK  status: ('A' for Active; 'I' for Inactive)
REMARK    1  A    between atoms: C2_2  and  C3_3 
REMARK    2  A    between atoms: C3_3  and  N1_4 
REMARK    3  A    between atoms: N1_4  and  C4_6 
REMARK    4  A    between atoms: C4_6  and  N2_8 
REMARK    5  A    between atoms: C6_10  and  N3_11 
REMARK       I    between atoms: N3_11  and  C7_13 
REMARK       I    between atoms: C7_13  and  N4_15 
REMARK    6  A    between atoms: N4_15  and  C8_17 
REMARK    7  A    between atoms: C8_17  and  C9_18 
REMARK    8  A    between atoms: C9_18  and  N5_19 
REMARK       I    between atoms: N5_19  and  C10_21 
REMARK    9  A    between atoms: C11_26  and  N8_27 
REMARK   10  A    between atoms: C12_31  and  C13_32 
REMARK       I    between atoms: C13_32  and  N9_34 
ROOT
HETATM    1  N2  UNL     1       2.424  20.586  18.595  1.00  0.00    -0.319 N 
HETATM    2  C5  UNL     1       2.551  19.359  19.458  1.00  0.00     0.159 C 
HETATM    3  C6  UNL     1       1.167  18.759  19.133  1.00  0.00     0.141 C 
HETATM    4  C11 UNL     1       0.905  19.210  17.680  1.00  0.00     0.263 C 
HETATM    5  C12 UNL     1       2.190  19.951  17.358  1.00  0.00     0.115 C 
ENDROOT
BRANCH   3   6
HETATM    6  N3  UNL     1       1.190  17.333  19.227  1.00  0.00    -0.335 N 
HETATM    7  C7  UNL     1      -0.011  16.560  19.222  1.00  0.00     0.316 C 
HETATM    8  O1  UNL     1      -1.109  17.153  19.131  1.00  0.00    -0.247 OA
HETATM    9  N4  UNL     1       0.042  15.166  19.316  1.00  0.00    -0.342 N 
ATOM     10  H4  UNL     1       0.959  14.724  19.378  1.00  0.00     0.164 HD
ATOM     11  H3  UNL     1       2.088  16.854  19.300  1.00  0.00     0.164 HD
BRANCH   9  12
HETATM   12  C8  UNL     1      -1.098  14.332  19.331  1.00  0.00     0.144 C 
BRANCH  12  13
HETATM   13  C9  UNL     1      -1.421  13.824  17.955  1.00  0.00     0.142 C 
BRANCH  13  14
HETATM   14  N5  UNL     1      -2.296  14.786  17.304  1.00  0.00    -0.363 N 
HETATM   15  C10 UNL     1      -1.940  15.184  15.986  1.00  0.00     0.181 C 
HETATM   16  N6  UNL     1      -1.798  14.263  15.099  1.00  0.00    -0.374 N 
HETATM   17  N7  UNL     1      -1.763  16.563  15.733  1.00  0.00    -0.064 NA
ATOM     18  H62 UNL     1      -1.926  13.268  15.282  1.00  0.00     0.158 HD
ATOM     19  H61 UNL     1      -1.543  14.548  14.154  1.00  0.00     0.158 HD
ATOM     20  H5  UNL     1      -3.124  15.158  17.771  1.00  0.00     0.162 HD
ENDBRANCH  13  14
ENDBRANCH  12  13
ENDBRANCH   9  12
ENDBRANCH   3   6
BRANCH   4  21
HETATM   21  N8  UNL     1      -0.268  20.005  17.588  1.00  0.00    -0.067 N 
ATOM     22  H83 UNL     1      -1.031  19.495  17.141  1.00  0.00     0.275 HD
ATOM     23  H82 UNL     1      -0.693  20.152  18.504  1.00  0.00     0.275 HD
ATOM     24  H81 UNL     1      -0.082  20.889  17.117  1.00  0.00     0.275 HD
ENDBRANCH   4  21
BRANCH   1  25
HETATM   25  C4  UNL     1       2.539  21.852  19.160  1.00  0.00     0.174 C 
HETATM   26  S1  UNL     1       1.256  22.455  20.089  1.00  0.00    -0.041 SA
BRANCH  25  27
HETATM   27  N1  UNL     1       3.607  22.765  19.082  1.00  0.00    -0.367 N 
ATOM     28  H1  UNL     1       3.410  23.766  19.109  1.00  0.00     0.161 HD
BRANCH  27  29
HETATM   29  C3  UNL     1       4.976  22.321  18.966  1.00  0.00     0.121 C 
BRANCH  29  30
HETATM   30  C2  UNL     1       5.407  22.205  17.526  1.00  0.00     0.015 C 
HETATM   31  C1  UNL     1       4.893  23.431  16.804  1.00  0.00     0.006 C 
ENDBRANCH  29  30
ENDBRANCH  27  29
ENDBRANCH  25  27
ENDBRANCH   1  25
BRANCH   5  32
HETATM   32  C13 UNL     1       2.334  20.539  16.082  1.00  0.00     0.266 C 
HETATM   33  O2  UNL     1       1.428  21.320  15.631  1.00  0.00    -0.266 OA
HETATM   34  N9  UNL     1       3.435  20.319  15.235  1.00  0.00    -0.360 N 
HETATM   35  C14 UNL     1       3.568  20.923  13.921  1.00  0.00     0.149 C 
ATOM     36  H9  UNL     1       4.180  19.703  15.560  1.00  0.00     0.162 HD
ENDBRANCH   5  32
TORSDOF 10
ENDMDL
MODEL 3
REMARK VINA RESULT: -5.960761792      2.679      4.360
REMARK  10 active torsions:
REMARK  status: ('A' for Active; 'I' for Inactive)
REMARK    1  A    between atoms: C2_2  and  C3_3 
REMARK    2  A    between atoms: C3_3  and  N1_4 
REMARK    3  A    between atoms: N1_4  and  C4_6 
REMARK    4  A    between atoms: C4_6  and  N2_8 
REMARK    5  A    between atoms: C6_10  and  N3_11 
REMARK       I    between atoms: N3_11  and  C7_13 
REMARK       I    between atoms: C7_13  and  N4_15 
REMARK    6  A    between atoms: N4_15  and  C8_17 
REMARK    7  A    between atoms: C8_17  and  C9_18 
REMARK    8  A    between atoms: C9_18  and  N5_19 
REMARK       I    between atoms: N5_19  and  C10_21 
REMARK    9  A    between atoms: C11_26  and  N8_27 
REMARK   10  A    between atoms: C12_31  and  C13_32 
REMARK       I    between atoms: C13_32  and  N9_34 
ROOT
HETATM    1  N2  UNL     1       3.506  21.617  15.872  1.00  0.00    -0.319 N 
HETATM    2  C5  UNL     1       3.022  20.243  15.490  1.00  0.00     0.159 C 
HETATM    3  C6  UNL     1       1.852  20.173  16.493  1.00  0.00     0.141 C 
HETATM    4  C11 UNL     1       1.391  21.641  16.622  1.00  0.00     0.263 C 
HETATM    5  C12 UNL     1       2.316  22.335  15.637  1.00  0.00     0.115 C 
ENDROOT
BRANCH   3   6
HETATM    6  N3  UNL     1       0.795  19.349  15.995  1.00  0.00    -0.335 N 
HETATM    7  C7  UNL     1      -0.022  18.568  16.867  1.00  0.00     0.316 C 
HETATM    8  O1  UNL     1       0.197  18.611  18.099  1.00  0.00    -0.247 OA
HETATM    9  N4  UNL     1      -1.049  17.770  16.352  1.00  0.00    -0.342 N 
ATOM     10  H4  UNL     1      -1.198  17.774  15.343  1.00  0.00     0.164 HD
ATOM     11  H3  UNL     1       0.621  19.319  14.991  1.00  0.00     0.164 HD
BRANCH   9  12
HETATM   12  C8  UNL     1      -1.892  16.960  17.143  1.00  0.00     0.144 C 
BRANCH  12  13
HETATM   13  C9  UNL     1      -1.464  15.521  17.102  1.00  0.00     0.142 C 
BRANCH  13  14
HETATM   14  N5  UNL     1      -0.311  15.360  17.973  1.00  0.00    -0.363 N 
HETATM   15  C10 UNL     1      -0.574  15.256  19.367  1.00  0.00     0.181 C 
HETATM   16  N6  UNL     1      -1.376  14.330  19.759  1.00  0.00    -0.374 N 
HETATM   17  N7  UNL     1       0.060  16.176  20.233  1.00  0.00    -0.064 NA
ATOM     18  H62 UNL     1      -1.832  13.666  19.134  1.00  0.00     0.158 HD
ATOM     19  H61 UNL     1      -1.564  14.255  20.759  1.00  0.00     0.158 HD
ATOM     20  H5  UNL     1       0.639  15.324  17.603  1.00  0.00     0.162 HD
ENDBRANCH  13  14
ENDBRANCH  12  13
ENDBRANCH   9  12
ENDBRANCH   3   6
BRANCH   4  21
HETATM   21  N8  UNL     1       1.506  22.105  17.959  1.00  0.00    -0.067 N 
ATOM     22  H83 UNL     1       0.864  21.613  18.582  1.00  0.00     0.275 HD
ATOM     23  H82 UNL     1       2.388  21.815  18.382  1.00  0.00     0.275 HD
ATOM     24  H81 UNL     1       1.380  23.115  18.014  1.00  0.00     0.275 HD
ENDBRANCH   4  21
BRANCH   1  25
HETATM   25  C4  UNL     1       4.815  21.798  16.310  1.00  0.00     0.174 C 
HETATM   26  S1  UNL     1       5.086  22.222  17.928  1.00  0.00    -0.041 SA
BRANCH  25  27
HETATM   27  N1  UNL     1       6.017  21.679  15.589  1.00  0.00    -0.367 N 
ATOM     28  H1  UNL     1       6.905  21.726  16.089  1.00  0.00     0.161 HD
BRANCH  27  29
HETATM   29  C3  UNL     1       6.026  21.492  14.157  1.00  0.00     0.121 C 
BRANCH  29  30
HETATM   30  C2  UNL     1       6.393  20.080  13.778  1.00  0.00     0.015 C 
HETATM   31  C1  UNL     1       7.146  20.147  12.468  1.00  0.00     0.006 C 
ENDBRANCH  29  30
ENDBRANCH  27  29
ENDBRANCH  25  27
ENDBRANCH   1  25
BRANCH   5  32
HETATM   32  C13 UNL     1       2.209  23.733  15.472  1.00  0.00     0.266 C 
HETATM   33  O2  UNL     1       2.546  24.517  16.424  1.00  0.00    -0.266 OA
HETATM   34  N9  UNL     1       1.736  24.352  14.301  1.00  0.00    -0.360 N 
HETATM   35  C14 UNL     1       1.621  25.791  14.147  1.00  0.00     0.149 C 
ATOM     36  H9  UNL     1       1.459  23.759  13.520  1.00  0.00     0.162 HD
ENDBRANCH   5  32
TORSDOF 10
ENDMDL
MODEL 4
REMARK VINA RESULT: -5.945097463      2.994      7.955
REMARK  10 active torsions:
REMARK  status: ('A' for Active; 'I' for Inactive)
REMARK    1  A    between atoms: C2_2  and  C3_3 
REMARK    2  A    between atoms: C3_3  and  N1_4 
REMARK    3  A    between atoms: N1_4  and  C4_6 
REMARK    4  A    between atoms: C4_6  and  N2_8 
REMARK    5  A    between atoms: C6_10  and  N3_11 
REMARK       I    between atoms: N3_11  and  C7_13 
REMARK       I    between atoms: C7_13  and  N4_15 
REMARK    6  A    between atoms: N4_15  and  C8_17 
REMARK    7  A    between atoms: C8_17  and  C9_18 
REMARK    8  A    between atoms: C9_18  and  N5_19 
REMARK       I    between atoms: N5_19  and  C10_21 
REMARK    9  A    between atoms: C11_26  and  N8_27 
REMARK   10  A    between atoms: C12_31  and  C13_32 
REMARK       I    between atoms: C13_32  and  N9_34 
ROOT
HETATM    1  N2  UNL     1      -0.853  17.148  18.579  1.00  0.00    -0.319 N 
HETATM    2  C5  UNL     1       0.539  17.639  18.876  1.00  0.00     0.159 C 
HETATM    3  C6  UNL     1       0.737  18.438  17.571  1.00  0.00     0.141 C 
HETATM    4  C11 UNL     1      -0.685  18.928  17.222  1.00  0.00     0.263 C 
HETATM    5  C12 UNL     1      -1.484  18.396  18.398  1.00  0.00     0.115 C 
ENDROOT
BRANCH   3   6
HETATM    6  N3  UNL     1       1.621  19.542  17.772  1.00  0.00    -0.335 N 
HETATM    7  C7  UNL     1       2.200  20.251  16.676  1.00  0.00     0.316 C 
HETATM    8  O1  UNL     1       1.920  19.892  15.510  1.00  0.00    -0.247 OA
HETATM    9  N4  UNL     1       3.063  21.328  16.903  1.00  0.00    -0.342 N 
ATOM     10  H4  UNL     1       3.254  21.593  17.869  1.00  0.00     0.164 HD
ATOM     11  H3  UNL     1       1.845  19.832  18.724  1.00  0.00     0.164 HD
BRANCH   9  12
HETATM   12  C8  UNL     1       3.685  22.072  15.876  1.00  0.00     0.144 C 
BRANCH  12  13
HETATM   13  C9  UNL     1       4.974  21.435  15.444  1.00  0.00     0.142 C 
BRANCH  13  14
HETATM   14  N5  UNL     1       4.733  20.697  14.215  1.00  0.00    -0.363 N 
HETATM   15  C10 UNL     1       5.875  20.358  13.439  1.00  0.00     0.181 C 
HETATM   16  N6  UNL     1       6.811  19.686  14.010  1.00  0.00    -0.374 N 
HETATM   17  N7  UNL     1       5.910  20.780  12.090  1.00  0.00    -0.064 NA
ATOM     18  H62 UNL     1       6.785  19.382  14.983  1.00  0.00     0.158 HD
ATOM     19  H61 UNL     1       7.630  19.443  13.453  1.00  0.00     0.158 HD
ATOM     20  H5  UNL     1       3.790  20.436  13.924  1.00  0.00     0.162 HD
ENDBRANCH  13  14
ENDBRANCH  12  13
ENDBRANCH   9  12
ENDBRANCH   3   6
BRANCH   4  21
HETATM   21  N8  UNL     1      -1.106  18.438  15.958  1.00  0.00    -0.067 N 
ATOM     22  H83 UNL     1      -0.692  17.528  15.753  1.00  0.00     0.275 HD
ATOM     23  H82 UNL     1      -2.089  18.164  15.971  1.00  0.00     0.275 HD
ATOM     24  H81 UNL     1      -0.916  19.111  15.216  1.00  0.00     0.275 HD
ENDBRANCH   4  21
BRANCH   1  25
HETATM   25  C4  UNL     1      -1.120  15.783  18.549  1.00  0.00     0.174 C 
HETATM   26  S1  UNL     1      -0.110  14.731  19.413  1.00  0.00    -0.041 SA
BRANCH  25  27
HETATM   27  N1  UNL     1      -2.149  15.093  17.881  1.00  0.00    -0.367 N 
ATOM     28  H1  UNL     1      -3.116  15.243  18.167  1.00  0.00     0.161 HD
BRANCH  27  29
HETATM   29  C3  UNL     1      -1.869  14.178  16.799  1.00  0.00     0.121 C 
BRANCH  29  30
HETATM   30  C2  UNL     1      -2.085  14.821  15.452  1.00  0.00     0.015 C 
HETATM   31  C1  UNL     1      -2.088  13.713  14.422  1.00  0.00     0.006 C 
ENDBRANCH  29  30
ENDBRANCH  27  29
ENDBRANCH  25  27
ENDBRANCH   1  25
BRANCH   5  32
HETATM   32  C13 UNL     1      -2.875  18.636  18.440  1.00  0.00     0.266 C 
HETATM   33  O2  UNL     1      -3.697  17.676  18.248  1.00  0.00    -0.266 OA
HETATM   34  N9  UNL     1      -3.448  19.899  18.677  1.00  0.00    -0.360 N 
HETATM   35  C14 UNL     1      -4.880  20.136  18.708  1.00  0.00     0.149 C 
ATOM     36  H9  UNL     1      -2.824  20.690  18.837  1.00  0.00     0.162 HD
ENDBRANCH   5  32
TORSDOF 10
ENDMDL
MODEL 5
REMARK VINA RESULT: -5.900689964      2.315      3.621
REMARK  10 active torsions:
REMARK  status: ('A' for Active; 'I' for Inactive)
REMARK    1  A    between atoms: C2_2  and  C3_3 
REMARK    2  A    between atoms: C3_3  and  N1_4 
REMARK    3  A    between atoms: N1_4  and  C4_6 
REMARK    4  A    between atoms: C4_6  and  N2_8 
REMARK    5  A    between atoms: C6_10  and  N3_11 
REMARK       I    between atoms: N3_11  and  C7_13 
REMARK       I    between atoms: C7_13  and  N4_15 
REMARK    6  A    between atoms: N4_15  and  C8_17 
REMARK    7  A    between atoms: C8_17  and  C9_18 
REMARK    8  A    between atoms: C9_18  and  N5_19 
REMARK       I    between atoms: N5_19  and  C10_21 
REMARK    9  A    between atoms: C11_26  and  N8_27 
REMARK   10  A    between atoms: C12_31  and  C13_32 
REMARK       I    between atoms: C13_32  and  N9_34 
ROOT
HETATM    1  N2  UNL     1       4.147  21.285  16.206  1.00  0.00    -0.319 N 
HETATM    2  C5  UNL     1       3.130  20.361  16.820  1.00  0.00     0.159 C 
HETATM    3  C6  UNL     1       1.984  20.661  15.831  1.00  0.00     0.141 C 
HETATM    4  C11 UNL     1       2.716  20.968  14.506  1.00  0.00     0.263 C 
HETATM    5  C12 UNL     1       4.164  20.745  14.903  1.00  0.00     0.115 C 
ENDROOT
BRANCH   3   6
HETATM    6  N3  UNL     1       1.120  19.532  15.686  1.00  0.00    -0.335 N 
HETATM    7  C7  UNL     1       0.020  19.310  16.569  1.00  0.00     0.316 C 
HETATM    8  O1  UNL     1      -0.189  20.131  17.490  1.00  0.00    -0.247 OA
HETATM    9  N4  UNL     1      -0.810  18.196  16.403  1.00  0.00    -0.342 N 
ATOM     10  H4  UNL     1      -0.608  17.559  15.632  1.00  0.00     0.164 HD
ATOM     11  H3  UNL     1       1.294  18.867  14.933  1.00  0.00     0.164 HD
BRANCH   9  12
HETATM   12  C8  UNL     1      -1.909  17.899  17.238  1.00  0.00     0.144 C 
BRANCH  12  13
HETATM   13  C9  UNL     1      -1.995  16.427  17.526  1.00  0.00     0.142 C 
BRANCH  13  14
HETATM   14  N5  UNL     1      -0.711  15.985  18.044  1.00  0.00    -0.363 N 
HETATM   15  C10 UNL     1      -0.671  15.610  19.415  1.00  0.00     0.181 C 
HETATM   16  N6  UNL     1      -1.483  14.694  19.811  1.00  0.00    -0.374 N 
HETATM   17  N7  UNL     1       0.256  16.266  20.257  1.00  0.00    -0.064 NA
ATOM     18  H62 UNL     1      -2.152  14.221  19.204  1.00  0.00     0.158 HD
ATOM     19  H61 UNL     1      -1.455  14.425  20.794  1.00  0.00     0.158 HD
ATOM     20  H5  UNL     1       0.120  15.946  17.454  1.00  0.00     0.162 HD
ENDBRANCH  13  14
ENDBRANCH  12  13
ENDBRANCH   9  12
ENDBRANCH   3   6
BRANCH   4  21
HETATM   21  N8  UNL     1       2.429  22.281  14.048  1.00  0.00    -0.067 N 
ATOM     22  H83 UNL     1       2.092  22.876  14.806  1.00  0.00     0.275 HD
ATOM     23  H82 UNL     1       3.281  22.791  13.816  1.00  0.00     0.275 HD
ATOM     24  H81 UNL     1       1.777  22.267  13.265  1.00  0.00     0.275 HD
ENDBRANCH   4  21
BRANCH   1  25
HETATM   25  C4  UNL     1       4.718  22.300  16.968  1.00  0.00     0.174 C 
HETATM   26  S1  UNL     1       4.633  23.895  16.404  1.00  0.00    -0.041 SA
BRANCH  25  27
HETATM   27  N1  UNL     1       5.392  22.213  18.201  1.00  0.00    -0.367 N 
ATOM     28  H1  UNL     1       6.372  21.933  18.213  1.00  0.00     0.161 HD
BRANCH  27  29
HETATM   29  C3  UNL     1       4.729  22.511  19.449  1.00  0.00     0.121 C 
BRANCH  29  30
HETATM   30  C2  UNL     1       5.077  21.509  20.521  1.00  0.00     0.015 C 
HETATM   31  C1  UNL     1       4.016  20.431  20.489  1.00  0.00     0.006 C 
ENDBRANCH  29  30
ENDBRANCH  27  29
ENDBRANCH  25  27
ENDBRANCH   1  25
BRANCH   5  32
HETATM   32  C13 UNL     1       5.173  20.945  13.936  1.00  0.00     0.266 C 
HETATM   33  O2  UNL     1       5.220  22.039  13.276  1.00  0.00    -0.266 OA
HETATM   34  N9  UNL     1       6.163  19.995  13.625  1.00  0.00    -0.360 N 
HETATM   35  C14 UNL     1       7.189  20.208  12.621  1.00  0.00     0.149 C 
ATOM     36  H9  UNL     1       6.159  19.110  14.131  1.00  0.00     0.162 HD
ENDBRANCH   5  32
TORSDOF 10
ENDMDL
