MODEL 1
REMARK VINA RESULT: -7.584484405      0.000      0.000
REMARK  3 active torsions:
REMARK  status: ('A' for Active; 'I' for Inactive)
REMARK       I    between atoms: N1_3  and  C3_5 
REMARK       I    between atoms: C3_5  and  N3_12 
REMARK    1  A    between atoms: N2_6  and  C4_8 
REMARK    2  A    between atoms: N3_12  and  C8_14 
REMARK    3  A    between atoms: C8_14  and  C9_15 
ROOT
HETATM    1  C1  UNL     1      55.703  15.722  50.797  1.00  0.00     0.124 C 
HETATM    2  C2  UNL     1      55.793  16.449  51.777  1.00  0.00    -0.059 C 
HETATM    3  N1  UNL     1      55.886  17.295  52.882  1.00  0.00    -0.161 N 
ATOM      4  H1  UNL     1      55.388  18.186  52.881  1.00  0.00     0.194 HD
HETATM    5  C3  UNL     1      56.668  16.926  54.007  1.00  0.00     0.685 C 
HETATM    6  N2  UNL     1      57.700  17.552  54.388  1.00  0.00    -0.217 N 
ATOM      7  H2  UNL     1      58.171  17.181  55.213  1.00  0.00     0.178 HD
HETATM    8  N3  UNL     1      56.299  15.761  54.804  1.00  0.00    -0.201 N 
ATOM      9  H3  UNL     1      55.630  15.852  55.568  1.00  0.00     0.183 HD
ENDROOT
BRANCH   6  10
HETATM   10  C4  UNL     1      58.285  18.714  53.801  1.00  0.00     0.036 C 
HETATM   11  C5  UNL     1      59.793  18.689  54.066  1.00  0.00     0.038 C 
HETATM   12  C6  UNL     1      57.750  20.002  54.397  1.00  0.00     0.038 C 
HETATM   13  C7  UNL     1      58.109  18.806  52.310  1.00  0.00     0.038 C 
ENDBRANCH   6  10
BRANCH   8  14
HETATM   14  C8  UNL     1      56.886  14.493  54.505  1.00  0.00     0.119 C 
BRANCH  14  15
HETATM   15  C9  UNL     1      56.008  13.518  53.892  1.00  0.00     0.003 A 
HETATM   16  C10 UNL     1      54.756  13.255  54.357  1.00  0.00     0.023 A 
HETATM   17  C11 UNL     1      53.973  12.292  53.700  1.00  0.00    -0.045 A 
HETATM   18  C12 UNL     1      52.602  12.044  54.257  1.00  0.00     0.049 C 
HETATM   19  C13 UNL     1      54.443  11.622  52.610  1.00  0.00     0.097 A 
HETATM   20  N4  UNL     1      55.685  11.908  52.178  1.00  0.00    -0.363 N 
HETATM   21  C14 UNL     1      56.196  11.189  51.004  1.00  0.00     0.155 C 
HETATM   22  C15 UNL     1      56.460  12.814  52.774  1.00  0.00     0.018 A 
HETATM   23  C16 UNL     1      57.814  13.086  52.253  1.00  0.00     0.069 C 
ENDBRANCH  14  15
ENDBRANCH   8  14
TORSDOF 3
ENDMDL
MODEL 2
REMARK VINA RESULT: -7.526892127      1.736      6.764
REMARK  3 active torsions:
REMARK  status: ('A' for Active; 'I' for Inactive)
REMARK       I    between atoms: N1_3  and  C3_5 
REMARK       I    between atoms: C3_5  and  N3_12 
REMARK    1  A    between atoms: N2_6  and  C4_8 
REMARK    2  A    between atoms: N3_12  and  C8_14 
REMARK    3  A    between atoms: C8_14  and  C9_15 
ROOT
HETATM    1  C1  UNL     1      58.300  10.920  50.796  1.00  0.00     0.124 C 
HETATM    2  C2  UNL     1      57.446  10.718  51.649  1.00  0.00    -0.059 C 
HETATM    3  N1  UNL     1      56.476  10.464  52.619  1.00  0.00    -0.161 N 
ATOM      4  H1  UNL     1      56.428   9.545  53.058  1.00  0.00     0.194 HD
HETATM    5  C3  UNL     1      55.557  11.476  52.999  1.00  0.00     0.685 C 
HETATM    6  N2  UNL     1      54.307  11.404  52.809  1.00  0.00    -0.217 N 
ATOM      7  H2  UNL     1      53.759  12.202  53.131  1.00  0.00     0.178 HD
HETATM    8  N3  UNL     1      56.033  12.692  53.650  1.00  0.00    -0.201 N 
ATOM      9  H3  UNL     1      56.154  12.720  54.662  1.00  0.00     0.183 HD
ENDROOT
BRANCH   6  10
HETATM   10  C4  UNL     1      53.574  10.342  52.201  1.00  0.00     0.036 C 
HETATM   11  C5  UNL     1      52.079  10.646  52.327  1.00  0.00     0.038 C 
HETATM   12  C6  UNL     1      53.815   9.004  52.874  1.00  0.00     0.038 C 
HETATM   13  C7  UNL     1      53.856  10.161  50.734  1.00  0.00     0.038 C 
ENDBRANCH   6  10
BRANCH   8  14
HETATM   14  C8  UNL     1      56.330  13.842  52.855  1.00  0.00     0.119 C 
BRANCH  14  15
HETATM   15  C9  UNL     1      56.544  15.075  53.582  1.00  0.00     0.003 A 
HETATM   16  C10 UNL     1      56.690  15.121  54.935  1.00  0.00     0.023 A 
HETATM   17  C11 UNL     1      56.895  16.363  55.558  1.00  0.00    -0.045 A 
HETATM   18  C12 UNL     1      57.048  16.351  57.050  1.00  0.00     0.049 C 
HETATM   19  C13 UNL     1      56.952  17.516  54.834  1.00  0.00     0.097 A 
HETATM   20  N4  UNL     1      56.804  17.433  53.499  1.00  0.00    -0.363 N 
HETATM   21  C14 UNL     1      56.864  18.674  52.713  1.00  0.00     0.155 C 
HETATM   22  C15 UNL     1      56.607  16.275  52.870  1.00  0.00     0.018 A 
HETATM   23  C16 UNL     1      56.453  16.247  51.402  1.00  0.00     0.069 C 
ENDBRANCH  14  15
ENDBRANCH   8  14
TORSDOF 3
ENDMDL
MODEL 3
REMARK VINA RESULT: -7.497338748      1.849      6.892
REMARK  3 active torsions:
REMARK  status: ('A' for Active; 'I' for Inactive)
REMARK       I    between atoms: N1_3  and  C3_5 
REMARK       I    between atoms: C3_5  and  N3_12 
REMARK    1  A    between atoms: N2_6  and  C4_8 
REMARK    2  A    between atoms: N3_12  and  C8_14 
REMARK    3  A    between atoms: C8_14  and  C9_15 
ROOT
HETATM    1  C1  UNL     1      52.966  12.437  54.723  1.00  0.00     0.124 C 
HETATM    2  C2  UNL     1      53.105  12.137  53.545  1.00  0.00    -0.059 C 
HETATM    3  N1  UNL     1      53.240  11.790  52.201  1.00  0.00    -0.161 N 
ATOM      4  H1  UNL     1      52.409  11.694  51.617  1.00  0.00     0.194 HD
HETATM    5  C3  UNL     1      54.525  11.572  51.640  1.00  0.00     0.685 C 
HETATM    6  N2  UNL     1      54.920  10.457  51.189  1.00  0.00    -0.217 N 
ATOM      7  H2  UNL     1      55.868  10.436  50.812  1.00  0.00     0.178 HD
HETATM    8  N3  UNL     1      55.484  12.668  51.557  1.00  0.00    -0.201 N 
ATOM      9  H3  UNL     1      55.477  13.298  50.755  1.00  0.00     0.183 HD
ENDROOT
BRANCH   6  10
HETATM   10  C4  UNL     1      54.199   9.226  51.144  1.00  0.00     0.036 C 
HETATM   11  C5  UNL     1      55.164   8.109  50.734  1.00  0.00     0.038 C 
HETATM   12  C6  UNL     1      53.078   9.242  50.122  1.00  0.00     0.038 C 
HETATM   13  C7  UNL     1      53.597   8.816  52.460  1.00  0.00     0.038 C 
ENDBRANCH   6  10
BRANCH   8  14
HETATM   14  C8  UNL     1      56.434  12.849  52.610  1.00  0.00     0.119 C 
BRANCH  14  15
HETATM   15  C9  UNL     1      56.536  14.190  53.146  1.00  0.00     0.003 A 
HETATM   16  C10 UNL     1      56.719  14.445  54.470  1.00  0.00     0.023 A 
HETATM   17  C11 UNL     1      56.808  15.779  54.902  1.00  0.00    -0.045 A 
HETATM   18  C12 UNL     1      57.009  15.998  56.373  1.00  0.00     0.049 C 
HETATM   19  C13 UNL     1      56.715  16.815  54.022  1.00  0.00     0.097 A 
HETATM   20  N4  UNL     1      56.535  16.525  52.720  1.00  0.00    -0.363 N 
HETATM   21  C14 UNL     1      56.434  17.639  51.766  1.00  0.00     0.155 C 
HETATM   22  C15 UNL     1      56.445  15.275  52.270  1.00  0.00     0.018 A 
HETATM   23  C16 UNL     1      56.248  15.019  50.829  1.00  0.00     0.069 C 
ENDBRANCH  14  15
ENDBRANCH   8  14
TORSDOF 3
ENDMDL
MODEL 4
REMARK VINA RESULT: -7.293863995      1.478      3.214
REMARK  3 active torsions:
REMARK  status: ('A' for Active; 'I' for Inactive)
REMARK       I    between atoms: N1_3  and  C3_5 
REMARK       I    between atoms: C3_5  and  N3_12 
REMARK    1  A    between atoms: N2_6  and  C4_8 
REMARK    2  A    between atoms: N3_12  and  C8_14 
REMARK    3  A    between atoms: C8_14  and  C9_15 
ROOT
HETATM    1  C1  UNL     1      56.018  16.577  57.234  1.00  0.00     0.124 C 
HETATM    2  C2  UNL     1      56.828  16.783  56.340  1.00  0.00    -0.059 C 
HETATM    3  N1  UNL     1      57.763  17.035  55.336  1.00  0.00    -0.161 N 
ATOM      4  H1  UNL     1      58.612  17.556  55.554  1.00  0.00     0.194 HD
HETATM    5  C3  UNL     1      57.538  16.572  54.013  1.00  0.00     0.685 C 
HETATM    6  N2  UNL     1      57.379  17.333  53.014  1.00  0.00    -0.217 N 
ATOM      7  H2  UNL     1      57.226  16.871  52.118  1.00  0.00     0.178 HD
HETATM    8  N3  UNL     1      57.480  15.141  53.739  1.00  0.00    -0.201 N 
ATOM      9  H3  UNL     1      58.335  14.618  53.548  1.00  0.00     0.183 HD
ENDROOT
BRANCH   6  10
HETATM   10  C4  UNL     1      57.386  18.760  52.992  1.00  0.00     0.036 C 
HETATM   11  C5  UNL     1      57.582  19.225  51.545  1.00  0.00     0.038 C 
HETATM   12  C6  UNL     1      58.522  19.352  53.806  1.00  0.00     0.038 C 
HETATM   13  C7  UNL     1      56.111  19.391  53.480  1.00  0.00     0.038 C 
ENDBRANCH   6  10
BRANCH   8  14
HETATM   14  C8  UNL     1      56.214  14.478  53.739  1.00  0.00     0.119 C 
BRANCH  14  15
HETATM   15  C9  UNL     1      56.178  13.181  53.096  1.00  0.00     0.003 A 
HETATM   16  C10 UNL     1      57.170  12.733  52.278  1.00  0.00     0.023 A 
HETATM   17  C11 UNL     1      57.052  11.460  51.697  1.00  0.00    -0.045 A 
HETATM   18  C12 UNL     1      58.175  11.020  50.806  1.00  0.00     0.049 C 
HETATM   19  C13 UNL     1      55.967  10.671  51.938  1.00  0.00     0.097 A 
HETATM   20  N4  UNL     1      55.006  11.146  52.751  1.00  0.00    -0.363 N 
HETATM   21  C14 UNL     1      53.834  10.299  53.014  1.00  0.00     0.155 C 
HETATM   22  C15 UNL     1      55.080  12.348  53.322  1.00  0.00     0.018 A 
HETATM   23  C16 UNL     1      53.994  12.815  54.206  1.00  0.00     0.069 C 
ENDBRANCH  14  15
ENDBRANCH   8  14
TORSDOF 3
ENDMDL
MODEL 5
REMARK VINA RESULT: -7.075914143      1.494      6.467
REMARK  3 active torsions:
REMARK  status: ('A' for Active; 'I' for Inactive)
REMARK       I    between atoms: N1_3  and  C3_5 
REMARK       I    between atoms: C3_5  and  N3_12 
REMARK    1  A    between atoms: N2_6  and  C4_8 
REMARK    2  A    between atoms: N3_12  and  C8_14 
REMARK    3  A    between atoms: C8_14  and  C9_15 
ROOT
HETATM    1  C1  UNL     1      56.743  15.139  50.634  1.00  0.00     0.124 C 
HETATM    2  C2  UNL     1      56.797  14.279  51.503  1.00  0.00    -0.059 C 
HETATM    3  N1  UNL     1      56.863  13.281  52.475  1.00  0.00    -0.161 N 
ATOM      4  H1  UNL     1      57.274  12.376  52.245  1.00  0.00     0.194 HD
HETATM    5  C3  UNL     1      56.362  13.517  53.782  1.00  0.00     0.685 C 
HETATM    6  N2  UNL     1      55.382  12.896  54.287  1.00  0.00    -0.217 N 
ATOM      7  H2  UNL     1      55.124  13.162  55.237  1.00  0.00     0.178 HD
HETATM    8  N3  UNL     1      56.983  14.527  54.632  1.00  0.00    -0.201 N 
ATOM      9  H3  UNL     1      57.785  14.287  55.214  1.00  0.00     0.183 HD
ENDROOT
BRANCH   6  10
HETATM   10  C4  UNL     1      54.594  11.868  53.688  1.00  0.00     0.036 C 
HETATM   11  C5  UNL     1      53.399  11.573  54.599  1.00  0.00     0.038 C 
HETATM   12  C6  UNL     1      55.358  10.568  53.522  1.00  0.00     0.038 C 
HETATM   13  C7  UNL     1      54.032  12.230  52.341  1.00  0.00     0.038 C 
ENDBRANCH   6  10
BRANCH   8  14
HETATM   14  C8  UNL     1      56.455  15.855  54.642  1.00  0.00     0.119 C 
BRANCH  14  15
HETATM   15  C9  UNL     1      57.339  16.892  54.153  1.00  0.00     0.003 A 
HETATM   16  C10 UNL     1      58.629  17.022  54.571  1.00  0.00     0.023 A 
HETATM   17  C11 UNL     1      59.416  18.058  54.043  1.00  0.00    -0.045 A 
HETATM   18  C12 UNL     1      60.828  18.152  54.541  1.00  0.00     0.049 C 
HETATM   19  C13 UNL     1      58.913  18.930  53.124  1.00  0.00     0.097 A 
HETATM   20  N4  UNL     1      57.635  18.771  52.733  1.00  0.00    -0.363 N 
HETATM   21  C14 UNL     1      57.088  19.708  51.743  1.00  0.00     0.155 C 
HETATM   22  C15 UNL     1      56.855  17.802  53.210  1.00  0.00     0.018 A 
HETATM   23  C16 UNL     1      55.460  17.677  52.744  1.00  0.00     0.069 C 
ENDBRANCH  14  15
ENDBRANCH   8  14
TORSDOF 3
ENDMDL
