MODEL 1
REMARK VINA RESULT: -7.282631915      0.000      0.000
REMARK  6 active torsions:
REMARK  status: ('A' for Active; 'I' for Inactive)
REMARK    1  A    between atoms: N2_9  and  C7_11 
REMARK    2  A    between atoms: C7_11  and  N3_13 
REMARK    3  A    between atoms: N3_13  and  C8_15 
REMARK    4  A    between atoms: C8_15  and  C9_16 
REMARK    5  A    between atoms: C10_17  and  C11_18 
REMARK    6  A    between atoms: C11_18  and  N4_19 
ROOT
HETATM    1  C1  UNL     1      52.476  12.878  55.225  1.00  0.00     0.048 C 
HETATM    2  C2  UNL     1      53.354  12.190  54.228  1.00  0.00    -0.057 A 
HETATM    3  C3  UNL     1      53.103  10.893  53.862  1.00  0.00     0.031 A 
HETATM    4  C4  UNL     1      53.954  10.311  52.930  1.00  0.00     0.007 A 
HETATM    5  C5  UNL     1      53.663   8.905  52.545  1.00  0.00     0.068 C 
HETATM    6  N1  UNL     1      54.988  10.965  52.393  1.00  0.00    -0.346 N 
ATOM      7  H1  UNL     1      55.586  10.494  51.713  1.00  0.00     0.167 HD
HETATM    8  C6  UNL     1      55.247  12.231  52.739  1.00  0.00     0.107 A 
HETATM    9  N2  UNL     1      56.243  12.843  52.210  1.00  0.00    -0.319 N 
ATOM     10  H2  UNL     1      56.806  12.325  51.535  1.00  0.00     0.169 HD
HETATM   11  C14 UNL     1      54.421  12.850  53.666  1.00  0.00     0.055 A 
ENDROOT
BRANCH   9  12
HETATM   12  C7  UNL     1      56.620  14.167  52.484  1.00  0.00     0.173 C 
HETATM   13  S1  UNL     1      55.957  15.322  51.498  1.00  0.00    -0.041 SA
BRANCH  12  14
HETATM   14  N3  UNL     1      57.504  14.589  53.504  1.00  0.00    -0.357 N 
ATOM     15  H3  UNL     1      58.498  14.372  53.438  1.00  0.00     0.162 HD
BRANCH  14  16
HETATM   16  C8  UNL     1      57.008  15.317  54.627  1.00  0.00     0.216 C 
BRANCH  16  17
HETATM   17  C9  UNL     1      57.327  16.736  54.479  1.00  0.00    -0.085 C 
HETATM   18  C10 UNL     1      57.581  17.886  54.335  1.00  0.00    -0.086 C 
BRANCH  18  19
HETATM   19  C11 UNL     1      57.876  19.325  54.136  1.00  0.00     0.210 C 
BRANCH  19  20
HETATM   20  N4  UNL     1      57.087  19.775  53.031  1.00  0.00    -0.411 N 
HETATM   21  C12 UNL     1      57.455  19.257  51.774  1.00  0.00     0.143 C 
HETATM   22  C13 UNL     1      56.606  21.099  53.094  1.00  0.00     0.143 C 
ENDBRANCH  19  20
ENDBRANCH  18  19
ENDBRANCH  16  17
ENDBRANCH  14  16
ENDBRANCH  12  14
ENDBRANCH   9  12
TORSDOF 6
ENDMDL
MODEL 2
REMARK VINA RESULT: -7.187495648      1.543      7.951
REMARK  6 active torsions:
REMARK  status: ('A' for Active; 'I' for Inactive)
REMARK    1  A    between atoms: N2_9  and  C7_11 
REMARK    2  A    between atoms: C7_11  and  N3_13 
REMARK    3  A    between atoms: N3_13  and  C8_15 
REMARK    4  A    between atoms: C8_15  and  C9_16 
REMARK    5  A    between atoms: C10_17  and  C11_18 
REMARK    6  A    between atoms: C11_18  and  N4_19 
ROOT
HETATM    1  C1  UNL     1      60.235  18.413  54.341  1.00  0.00     0.048 C 
HETATM    2  C2  UNL     1      58.900  18.808  53.790  1.00  0.00    -0.057 A 
HETATM    3  C3  UNL     1      58.574  20.131  53.646  1.00  0.00     0.031 A 
HETATM    4  C4  UNL     1      57.321  20.432  53.127  1.00  0.00     0.007 A 
HETATM    5  C5  UNL     1      56.987  21.873  52.977  1.00  0.00     0.068 C 
HETATM    6  N1  UNL     1      56.443  19.489  52.773  1.00  0.00    -0.346 N 
ATOM      7  H1  UNL     1      55.534  19.760  52.397  1.00  0.00     0.167 HD
HETATM    8  C6  UNL     1      56.745  18.193  52.906  1.00  0.00     0.107 A 
HETATM    9  N2  UNL     1      55.891  17.302  52.557  1.00  0.00    -0.319 N 
ATOM     10  H2  UNL     1      54.999  17.629  52.186  1.00  0.00     0.169 HD
HETATM   11  C14 UNL     1      57.988  17.849  53.420  1.00  0.00     0.055 A 
ENDROOT
BRANCH   9  12
HETATM   12  C7  UNL     1      56.084  15.914  52.643  1.00  0.00     0.173 C 
HETATM   13  S1  UNL     1      56.200  15.113  51.197  1.00  0.00    -0.041 SA
BRANCH  12  14
HETATM   14  N3  UNL     1      56.180  15.157  53.833  1.00  0.00    -0.357 N 
ATOM     15  H3  UNL     1      55.766  15.511  54.696  1.00  0.00     0.162 HD
BRANCH  14  16
HETATM   16  C8  UNL     1      56.856  13.900  53.832  1.00  0.00     0.216 C 
BRANCH  16  17
HETATM   17  C9  UNL     1      55.881  12.812  53.846  1.00  0.00    -0.085 C 
HETATM   18  C10 UNL     1      55.071  11.945  53.865  1.00  0.00    -0.086 C 
BRANCH  18  19
HETATM   19  C11 UNL     1      54.041  10.879  53.876  1.00  0.00     0.210 C 
BRANCH  19  20
HETATM   20  N4  UNL     1      52.764  11.519  53.959  1.00  0.00    -0.411 N 
HETATM   21  C12 UNL     1      52.559  12.314  55.103  1.00  0.00     0.143 C 
HETATM   22  C13 UNL     1      51.664  10.810  53.432  1.00  0.00     0.143 C 
ENDBRANCH  19  20
ENDBRANCH  18  19
ENDBRANCH  16  17
ENDBRANCH  14  16
ENDBRANCH  12  14
ENDBRANCH   9  12
TORSDOF 6
ENDMDL
MODEL 3
REMARK VINA RESULT: -6.975019492      1.719      8.137
REMARK  6 active torsions:
REMARK  status: ('A' for Active; 'I' for Inactive)
REMARK    1  A    between atoms: N2_9  and  C7_11 
REMARK    2  A    between atoms: C7_11  and  N3_13 
REMARK    3  A    between atoms: N3_13  and  C8_15 
REMARK    4  A    between atoms: C8_15  and  C9_16 
REMARK    5  A    between atoms: C10_17  and  C11_18 
REMARK    6  A    between atoms: C11_18  and  N4_19 
ROOT
HETATM    1  C1  UNL     1      60.451  18.700  54.424  1.00  0.00     0.048 C 
HETATM    2  C2  UNL     1      59.091  19.050  53.905  1.00  0.00    -0.057 A 
HETATM    3  C3  UNL     1      58.754  20.359  53.676  1.00  0.00     0.031 A 
HETATM    4  C4  UNL     1      57.478  20.620  53.193  1.00  0.00     0.007 A 
HETATM    5  C5  UNL     1      57.132  22.045  52.949  1.00  0.00     0.068 C 
HETATM    6  N1  UNL     1      56.589  19.652  52.951  1.00  0.00    -0.346 N 
ATOM      7  H1  UNL     1      55.662  19.893  52.597  1.00  0.00     0.167 HD
HETATM    8  C6  UNL     1      56.901  18.370  53.169  1.00  0.00     0.107 A 
HETATM    9  N2  UNL     1      56.036  17.455  52.928  1.00  0.00    -0.319 N 
ATOM     10  H2  UNL     1      55.126  17.752  52.574  1.00  0.00     0.169 HD
HETATM   11  C14 UNL     1      58.167  18.066  53.651  1.00  0.00     0.055 A 
ENDROOT
BRANCH   9  12
HETATM   12  C7  UNL     1      56.237  16.078  53.111  1.00  0.00     0.173 C 
HETATM   13  S1  UNL     1      56.005  15.516  54.653  1.00  0.00    -0.041 SA
BRANCH  12  14
HETATM   14  N3  UNL     1      56.619  15.150  52.115  1.00  0.00    -0.357 N 
ATOM     15  H3  UNL     1      57.577  14.802  52.084  1.00  0.00     0.162 HD
BRANCH  14  16
HETATM   16  C8  UNL     1      55.667  14.698  51.152  1.00  0.00     0.216 C 
BRANCH  16  17
HETATM   17  C9  UNL     1      55.031  13.469  51.620  1.00  0.00    -0.085 C 
HETATM   18  C10 UNL     1      54.518  12.479  52.024  1.00  0.00    -0.086 C 
BRANCH  18  19
HETATM   19  C11 UNL     1      53.863  11.256  52.549  1.00  0.00     0.210 C 
BRANCH  19  20
HETATM   20  N4  UNL     1      52.765  11.676  53.363  1.00  0.00    -0.411 N 
HETATM   21  C12 UNL     1      53.114  12.311  54.570  1.00  0.00     0.143 C 
HETATM   22  C13 UNL     1      51.615  10.858  53.347  1.00  0.00     0.143 C 
ENDBRANCH  19  20
ENDBRANCH  18  19
ENDBRANCH  16  17
ENDBRANCH  14  16
ENDBRANCH  12  14
ENDBRANCH   9  12
TORSDOF 6
ENDMDL
MODEL 4
REMARK VINA RESULT: -6.974022052      1.981      7.882
REMARK  6 active torsions:
REMARK  status: ('A' for Active; 'I' for Inactive)
REMARK    1  A    between atoms: N2_9  and  C7_11 
REMARK    2  A    between atoms: C7_11  and  N3_13 
REMARK    3  A    between atoms: N3_13  and  C8_15 
REMARK    4  A    between atoms: C8_15  and  C9_16 
REMARK    5  A    between atoms: C10_17  and  C11_18 
REMARK    6  A    between atoms: C11_18  and  N4_19 
ROOT
HETATM    1  C1  UNL     1      60.368  18.398  54.346  1.00  0.00     0.048 C 
HETATM    2  C2  UNL     1      59.065  18.915  53.823  1.00  0.00    -0.057 A 
HETATM    3  C3  UNL     1      58.871  20.262  53.658  1.00  0.00     0.031 A 
HETATM    4  C4  UNL     1      57.640  20.679  53.166  1.00  0.00     0.007 A 
HETATM    5  C5  UNL     1      57.450  22.143  52.993  1.00  0.00     0.068 C 
HETATM    6  N1  UNL     1      56.662  19.823  52.857  1.00  0.00    -0.346 N 
ATOM      7  H1  UNL     1      55.774  20.178  52.500  1.00  0.00     0.167 HD
HETATM    8  C6  UNL     1      56.835  18.506  53.011  1.00  0.00     0.107 A 
HETATM    9  N2  UNL     1      55.885  17.700  52.706  1.00  0.00    -0.319 N 
ATOM     10  H2  UNL     1      55.019  18.109  52.352  1.00  0.00     0.169 HD
HETATM   11  C14 UNL     1      58.050  18.047  53.499  1.00  0.00     0.055 A 
ENDROOT
BRANCH   9  12
HETATM   12  C7  UNL     1      55.938  16.302  52.818  1.00  0.00     0.173 C 
HETATM   13  S1  UNL     1      56.102  15.472  51.393  1.00  0.00    -0.041 SA
BRANCH  12  14
HETATM   14  N3  UNL     1      55.861  15.557  54.017  1.00  0.00    -0.357 N 
ATOM     15  H3  UNL     1      55.053  15.664  54.631  1.00  0.00     0.162 HD
BRANCH  14  16
HETATM   16  C8  UNL     1      56.910  14.657  54.372  1.00  0.00     0.216 C 
BRANCH  16  17
HETATM   17  C9  UNL     1      56.536  13.292  54.012  1.00  0.00    -0.085 C 
HETATM   18  C10 UNL     1      56.223  12.191  53.698  1.00  0.00    -0.086 C 
BRANCH  18  19
HETATM   19  C11 UNL     1      55.842  10.821  53.278  1.00  0.00     0.210 C 
BRANCH  19  20
HETATM   20  N4  UNL     1      55.842  10.797  51.848  1.00  0.00    -0.411 N 
HETATM   21  C12 UNL     1      57.110  10.870  51.241  1.00  0.00     0.143 C 
HETATM   22  C13 UNL     1      54.755  11.424  51.204  1.00  0.00     0.143 C 
ENDBRANCH  19  20
ENDBRANCH  18  19
ENDBRANCH  16  17
ENDBRANCH  14  16
ENDBRANCH  12  14
ENDBRANCH   9  12
TORSDOF 6
ENDMDL
MODEL 5
REMARK VINA RESULT: -6.892458943      1.756      2.384
REMARK  6 active torsions:
REMARK  status: ('A' for Active; 'I' for Inactive)
REMARK    1  A    between atoms: N2_9  and  C7_11 
REMARK    2  A    between atoms: C7_11  and  N3_13 
REMARK    3  A    between atoms: N3_13  and  C8_15 
REMARK    4  A    between atoms: C8_15  and  C9_16 
REMARK    5  A    between atoms: C10_17  and  C11_18 
REMARK    6  A    between atoms: C11_18  and  N4_19 
ROOT
HETATM    1  C1  UNL     1      52.728  12.402  54.700  1.00  0.00     0.048 C 
HETATM    2  C2  UNL     1      54.121  12.301  54.162  1.00  0.00    -0.057 A 
HETATM    3  C3  UNL     1      54.605  11.101  53.711  1.00  0.00     0.031 A 
HETATM    4  C4  UNL     1      55.905  11.073  53.222  1.00  0.00     0.007 A 
HETATM    5  C5  UNL     1      56.410   9.763  52.735  1.00  0.00     0.068 C 
HETATM    6  N1  UNL     1      56.681  12.160  53.181  1.00  0.00    -0.346 N 
ATOM      7  H1  UNL     1      57.631  12.090  52.814  1.00  0.00     0.167 HD
HETATM    8  C6  UNL     1      56.225  13.340  53.616  1.00  0.00     0.107 A 
HETATM    9  N2  UNL     1      56.984  14.373  53.566  1.00  0.00    -0.319 N 
ATOM     10  H2  UNL     1      57.923  14.246  53.188  1.00  0.00     0.169 HD
HETATM   11  C14 UNL     1      54.931  13.411  54.113  1.00  0.00     0.055 A 
ENDROOT
BRANCH   9  12
HETATM   12  C7  UNL     1      56.628  15.663  53.988  1.00  0.00     0.173 C 
HETATM   13  S1  UNL     1      57.154  16.096  55.499  1.00  0.00    -0.041 SA
BRANCH  12  14
HETATM   14  N3  UNL     1      55.870  16.603  53.252  1.00  0.00    -0.357 N 
ATOM     15  H3  UNL     1      55.053  17.042  53.677  1.00  0.00     0.162 HD
BRANCH  14  16
HETATM   16  C8  UNL     1      56.244  16.939  51.917  1.00  0.00     0.216 C 
BRANCH  16  17
HETATM   17  C9  UNL     1      56.793  18.293  51.880  1.00  0.00    -0.085 C 
HETATM   18  C10 UNL     1      57.223  19.397  51.830  1.00  0.00    -0.086 C 
BRANCH  18  19
HETATM   19  C11 UNL     1      57.735  20.787  51.762  1.00  0.00     0.210 C 
BRANCH  19  20
HETATM   20  N4  UNL     1      57.455  21.407  53.020  1.00  0.00    -0.411 N 
HETATM   21  C12 UNL     1      58.247  20.971  54.100  1.00  0.00     0.143 C 
HETATM   22  C13 UNL     1      56.110  21.748  53.274  1.00  0.00     0.143 C 
ENDBRANCH  19  20
ENDBRANCH  18  19
ENDBRANCH  16  17
ENDBRANCH  14  16
ENDBRANCH  12  14
ENDBRANCH   9  12
TORSDOF 6
ENDMDL
