MODEL 1
REMARK VINA RESULT: -7.890540959      0.000      0.000
REMARK  10 active torsions:
REMARK  status: ('A' for Active; 'I' for Inactive)
REMARK    1  A    between atoms: C3_3  and  C4_4 
REMARK    2  A    between atoms: C4_4  and  C5_5 
REMARK    3  A    between atoms: C5_5  and  C6_6 
REMARK    4  A    between atoms: C6_6  and  C7_7 
REMARK    5  A    between atoms: C7_7  and  C8_8 
REMARK    6  A    between atoms: N1_11  and  C11_12 
REMARK    7  A    between atoms: C11_12  and  C12_13 
REMARK    8  A    between atoms: C12_13  and  N2_14 
REMARK    9  A    between atoms: N2_14  and  C13_16 
REMARK   10  A    between atoms: C13_16  and  C14_17 
ROOT
HETATM    1  C1  UNL     1      55.920  23.015  53.476  1.00  0.00     0.112 C 
HETATM    2  C2  UNL     1      56.491  21.677  53.353  1.00  0.00    -0.111 C 
HETATM    3  C3  UNL     1      56.981  20.575  53.266  1.00  0.00    -0.107 C 
ENDROOT
BRANCH   3   4
HETATM    4  C4  UNL     1      57.596  19.230  53.182  1.00  0.00     0.094 C 
BRANCH   4   5
HETATM    5  C5  UNL     1      57.125  18.586  51.917  1.00  0.00     0.012 C 
BRANCH   5   6
HETATM    6  C6  UNL     1      56.019  17.597  52.092  1.00  0.00     0.001 C 
BRANCH   6   7
HETATM    7  C7  UNL     1      56.108  16.818  53.376  1.00  0.00     0.005 C 
BRANCH   7   8
HETATM    8  C8  UNL     1      56.351  15.340  53.114  1.00  0.00    -0.007 C 
HETATM    9  C9  UNL     1      55.983  14.581  54.340  1.00  0.00     0.033 C 
HETATM   10  C10 UNL     1      55.807  13.116  54.153  1.00  0.00     0.238 C 
HETATM   11  N1  UNL     1      55.692  12.749  52.750  1.00  0.00    -0.065 N 
HETATM   12  C17 UNL     1      56.972  12.987  52.074  1.00  0.00     0.238 C 
HETATM   13  C20 UNL     1      54.744  13.665  52.169  1.00  0.00     0.242 C 
HETATM   14  C18 UNL     1      56.712  14.103  51.057  1.00  0.00     0.034 C 
HETATM   15  C19 UNL     1      55.653  14.869  51.872  1.00  0.00     0.017 C 
BRANCH  11  16
HETATM   16  C11 UNL     1      55.402  11.369  52.563  1.00  0.00     0.256 C 
BRANCH  16  17
HETATM   17  C12 UNL     1      54.371  11.016  51.564  1.00  0.00     0.142 C 
BRANCH  17  18
HETATM   18  N2  UNL     1      53.315  10.259  52.140  1.00  0.00    -0.419 N 
ATOM     19  H2  UNL     1      53.300   9.240  52.099  1.00  0.00     0.153 HD
BRANCH  18  20
HETATM   20  C13 UNL     1      52.276  11.000  52.780  1.00  0.00     0.118 C 
BRANCH  20  21
HETATM   21  C14 UNL     1      51.940  10.420  54.147  1.00  0.00     0.003 A 
HETATM   22  C15 UNL     1      52.995   9.854  54.985  1.00  0.00     0.007 A 
HETATM   23  C16 UNL     1      52.490  11.241  55.353  1.00  0.00     0.007 A 
ENDBRANCH  20  21
ENDBRANCH  18  20
ENDBRANCH  17  18
ENDBRANCH  16  17
ENDBRANCH  11  16
ENDBRANCH   7   8
ENDBRANCH   6   7
ENDBRANCH   5   6
ENDBRANCH   4   5
ENDBRANCH   3   4
TORSDOF 10
ENDMDL
MODEL 2
REMARK VINA RESULT: -7.831901351      1.307      1.726
REMARK  10 active torsions:
REMARK  status: ('A' for Active; 'I' for Inactive)
REMARK    1  A    between atoms: C3_3  and  C4_4 
REMARK    2  A    between atoms: C4_4  and  C5_5 
REMARK    3  A    between atoms: C5_5  and  C6_6 
REMARK    4  A    between atoms: C6_6  and  C7_7 
REMARK    5  A    between atoms: C7_7  and  C8_8 
REMARK    6  A    between atoms: N1_11  and  C11_12 
REMARK    7  A    between atoms: C11_12  and  C12_13 
REMARK    8  A    between atoms: C12_13  and  N2_14 
REMARK    9  A    between atoms: N2_14  and  C13_16 
REMARK   10  A    between atoms: C13_16  and  C14_17 
ROOT
HETATM    1  C1  UNL     1      58.558  21.969  54.257  1.00  0.00     0.112 C 
HETATM    2  C2  UNL     1      58.176  20.566  54.119  1.00  0.00    -0.111 C 
HETATM    3  C3  UNL     1      57.845  19.408  54.021  1.00  0.00    -0.107 C 
ENDROOT
BRANCH   3   4
HETATM    4  C4  UNL     1      57.415  17.995  53.917  1.00  0.00     0.094 C 
BRANCH   4   5
HETATM    5  C5  UNL     1      58.145  17.212  54.961  1.00  0.00     0.012 C 
BRANCH   5   6
HETATM    6  C6  UNL     1      57.428  15.994  55.446  1.00  0.00     0.001 C 
BRANCH   6   7
HETATM    7  C7  UNL     1      56.145  15.721  54.711  1.00  0.00     0.005 C 
BRANCH   7   8
HETATM    8  C8  UNL     1      56.308  14.591  53.707  1.00  0.00    -0.007 C 
HETATM    9  C9  UNL     1      55.907  13.318  54.364  1.00  0.00     0.033 C 
HETATM   10  C10 UNL     1      55.654  12.178  53.444  1.00  0.00     0.238 C 
HETATM   11  N1  UNL     1      55.512  12.606  52.061  1.00  0.00    -0.065 N 
HETATM   12  C17 UNL     1      56.800  13.109  51.570  1.00  0.00     0.238 C 
HETATM   13  C20 UNL     1      54.611  13.730  52.076  1.00  0.00     0.242 C 
HETATM   14  C18 UNL     1      56.593  14.603  51.296  1.00  0.00     0.034 C 
HETATM   15  C19 UNL     1      55.580  14.871  52.425  1.00  0.00     0.017 C 
BRANCH  11  16
HETATM   16  C11 UNL     1      55.150  11.543  51.188  1.00  0.00     0.256 C 
BRANCH  16  17
HETATM   17  C12 UNL     1      54.396  10.411  51.766  1.00  0.00     0.142 C 
BRANCH  17  18
HETATM   18  N2  UNL     1      52.994  10.567  51.593  1.00  0.00    -0.419 N 
ATOM     19  H2  UNL     1      52.576  10.686  50.670  1.00  0.00     0.153 HD
BRANCH  18  20
HETATM   20  C13 UNL     1      52.200  10.549  52.780  1.00  0.00     0.118 C 
BRANCH  20  21
HETATM   21  C14 UNL     1      52.959   9.933  53.947  1.00  0.00     0.003 A 
HETATM   22  C15 UNL     1      52.544  10.210  55.321  1.00  0.00     0.007 A 
HETATM   23  C16 UNL     1      52.160   8.857  54.744  1.00  0.00     0.007 A 
ENDBRANCH  20  21
ENDBRANCH  18  20
ENDBRANCH  17  18
ENDBRANCH  16  17
ENDBRANCH  11  16
ENDBRANCH   7   8
ENDBRANCH   6   7
ENDBRANCH   5   6
ENDBRANCH   4   5
ENDBRANCH   3   4
TORSDOF 10
ENDMDL
MODEL 3
REMARK VINA RESULT: -7.772908290      1.623      2.690
REMARK  10 active torsions:
REMARK  status: ('A' for Active; 'I' for Inactive)
REMARK    1  A    between atoms: C3_3  and  C4_4 
REMARK    2  A    between atoms: C4_4  and  C5_5 
REMARK    3  A    between atoms: C5_5  and  C6_6 
REMARK    4  A    between atoms: C6_6  and  C7_7 
REMARK    5  A    between atoms: C7_7  and  C8_8 
REMARK    6  A    between atoms: N1_11  and  C11_12 
REMARK    7  A    between atoms: C11_12  and  C12_13 
REMARK    8  A    between atoms: C12_13  and  N2_14 
REMARK    9  A    between atoms: N2_14  and  C13_16 
REMARK   10  A    between atoms: C13_16  and  C14_17 
ROOT
HETATM    1  C1  UNL     1      57.587  20.619  53.916  1.00  0.00     0.112 C 
HETATM    2  C2  UNL     1      57.851  19.248  54.346  1.00  0.00    -0.111 C 
HETATM    3  C3  UNL     1      58.080  18.110  54.683  1.00  0.00    -0.107 C 
ENDROOT
BRANCH   3   4
HETATM    4  C4  UNL     1      58.380  16.714  55.074  1.00  0.00     0.094 C 
BRANCH   4   5
HETATM    5  C5  UNL     1      57.190  16.173  55.800  1.00  0.00     0.012 C 
BRANCH   5   6
HETATM    6  C6  UNL     1      56.430  15.121  55.059  1.00  0.00     0.001 C 
BRANCH   6   7
HETATM    7  C7  UNL     1      56.910  14.914  53.649  1.00  0.00     0.005 C 
BRANCH   7   8
HETATM    8  C8  UNL     1      56.128  13.813  52.951  1.00  0.00    -0.007 C 
HETATM    9  C9  UNL     1      57.060  13.071  52.059  1.00  0.00     0.033 C 
HETATM   10  C10 UNL     1      56.570  11.752  51.581  1.00  0.00     0.238 C 
HETATM   11  N1  UNL     1      55.424  11.280  52.343  1.00  0.00    -0.065 N 
HETATM   12  C17 UNL     1      54.269  12.145  52.077  1.00  0.00     0.238 C 
HETATM   13  C20 UNL     1      55.760  11.460  53.732  1.00  0.00     0.242 C 
HETATM   14  C18 UNL     1      53.950  12.844  53.403  1.00  0.00     0.034 C 
HETATM   15  C19 UNL     1      55.395  12.941  53.927  1.00  0.00     0.017 C 
BRANCH  11  16
HETATM   16  C11 UNL     1      55.019   9.966  51.978  1.00  0.00     0.256 C 
BRANCH  16  17
HETATM   17  C12 UNL     1      53.738   9.821  51.256  1.00  0.00     0.142 C 
BRANCH  17  18
HETATM   18  N2  UNL     1      52.880   8.880  51.887  1.00  0.00    -0.419 N 
ATOM     19  H2  UNL     1      52.023   8.551  51.441  1.00  0.00     0.153 HD
BRANCH  18  20
HETATM   20  C13 UNL     1      53.279   8.420  53.178  1.00  0.00     0.118 C 
BRANCH  20  21
HETATM   21  C14 UNL     1      52.246   8.771  54.239  1.00  0.00     0.003 A 
HETATM   22  C15 UNL     1      52.628   9.572  55.400  1.00  0.00     0.007 A 
HETATM   23  C16 UNL     1      51.861  10.281  54.294  1.00  0.00     0.007 A 
ENDBRANCH  20  21
ENDBRANCH  18  20
ENDBRANCH  17  18
ENDBRANCH  16  17
ENDBRANCH  11  16
ENDBRANCH   7   8
ENDBRANCH   6   7
ENDBRANCH   5   6
ENDBRANCH   4   5
ENDBRANCH   3   4
TORSDOF 10
ENDMDL
MODEL 4
REMARK VINA RESULT: -7.637133960      2.945      3.627
REMARK  10 active torsions:
REMARK  status: ('A' for Active; 'I' for Inactive)
REMARK    1  A    between atoms: C3_3  and  C4_4 
REMARK    2  A    between atoms: C4_4  and  C5_5 
REMARK    3  A    between atoms: C5_5  and  C6_6 
REMARK    4  A    between atoms: C6_6  and  C7_7 
REMARK    5  A    between atoms: C7_7  and  C8_8 
REMARK    6  A    between atoms: N1_11  and  C11_12 
REMARK    7  A    between atoms: C11_12  and  C12_13 
REMARK    8  A    between atoms: C12_13  and  N2_14 
REMARK    9  A    between atoms: N2_14  and  C13_16 
REMARK   10  A    between atoms: C13_16  and  C14_17 
ROOT
HETATM    1  C1  UNL     1      52.878  16.497  57.335  1.00  0.00     0.112 C 
HETATM    2  C2  UNL     1      54.332  16.354  57.319  1.00  0.00    -0.111 C 
HETATM    3  C3  UNL     1      55.534  16.240  57.283  1.00  0.00    -0.107 C 
ENDROOT
BRANCH   3   4
HETATM    4  C4  UNL     1      57.008  16.111  57.214  1.00  0.00     0.094 C 
BRANCH   4   5
HETATM    5  C5  UNL     1      57.391  15.977  55.774  1.00  0.00     0.012 C 
BRANCH   5   6
HETATM    6  C6  UNL     1      56.630  14.937  55.019  1.00  0.00     0.001 C 
BRANCH   6   7
HETATM    7  C7  UNL     1      56.927  14.928  53.544  1.00  0.00     0.005 C 
BRANCH   7   8
HETATM    8  C8  UNL     1      56.173  13.817  52.832  1.00  0.00    -0.007 C 
HETATM    9  C9  UNL     1      57.155  13.001  52.066  1.00  0.00     0.033 C 
HETATM   10  C10 UNL     1      56.663  11.675  51.610  1.00  0.00     0.238 C 
HETATM   11  N1  UNL     1      55.436  11.279  52.285  1.00  0.00    -0.065 N 
HETATM   12  C17 UNL     1      54.341  12.164  51.872  1.00  0.00     0.238 C 
HETATM   13  C20 UNL     1      55.652  11.520  53.689  1.00  0.00     0.242 C 
HETATM   14  C18 UNL     1      53.929  12.940  53.128  1.00  0.00     0.034 C 
HETATM   15  C19 UNL     1      55.324  13.020  53.777  1.00  0.00     0.017 C 
BRANCH  11  16
HETATM   16  C11 UNL     1      55.020   9.961  51.948  1.00  0.00     0.256 C 
BRANCH  16  17
HETATM   17  C12 UNL     1      53.691   9.803  51.322  1.00  0.00     0.142 C 
BRANCH  17  18
HETATM   18  N2  UNL     1      52.808   9.046  52.139  1.00  0.00    -0.419 N 
ATOM     19  H2  UNL     1      52.871   8.029  52.197  1.00  0.00     0.153 HD
BRANCH  18  20
HETATM   20  C13 UNL     1      51.831   9.782  52.873  1.00  0.00     0.118 C 
BRANCH  20  21
HETATM   21  C14 UNL     1      51.873   9.439  54.356  1.00  0.00     0.003 A 
HETATM   22  C15 UNL     1      53.150   9.414  55.068  1.00  0.00     0.007 A 
HETATM   23  C16 UNL     1      52.261  10.629  55.286  1.00  0.00     0.007 A 
ENDBRANCH  20  21
ENDBRANCH  18  20
ENDBRANCH  17  18
ENDBRANCH  16  17
ENDBRANCH  11  16
ENDBRANCH   7   8
ENDBRANCH   6   7
ENDBRANCH   5   6
ENDBRANCH   4   5
ENDBRANCH   3   4
TORSDOF 10
ENDMDL
MODEL 5
REMARK VINA RESULT: -7.590200693      2.462      3.275
REMARK  10 active torsions:
REMARK  status: ('A' for Active; 'I' for Inactive)
REMARK    1  A    between atoms: C3_3  and  C4_4 
REMARK    2  A    between atoms: C4_4  and  C5_5 
REMARK    3  A    between atoms: C5_5  and  C6_6 
REMARK    4  A    between atoms: C6_6  and  C7_7 
REMARK    5  A    between atoms: C7_7  and  C8_8 
REMARK    6  A    between atoms: N1_11  and  C11_12 
REMARK    7  A    between atoms: C11_12  and  C12_13 
REMARK    8  A    between atoms: C12_13  and  N2_14 
REMARK    9  A    between atoms: N2_14  and  C13_16 
REMARK   10  A    between atoms: C13_16  and  C14_17 
ROOT
HETATM    1  C1  UNL     1      55.554  16.467  58.183  1.00  0.00     0.112 C 
HETATM    2  C2  UNL     1      56.302  16.316  56.937  1.00  0.00    -0.111 C 
HETATM    3  C3  UNL     1      56.902  16.197  55.895  1.00  0.00    -0.107 C 
ENDROOT
BRANCH   3   4
HETATM    4  C4  UNL     1      57.617  16.065  54.605  1.00  0.00     0.094 C 
BRANCH   4   5
HETATM    5  C5  UNL     1      56.676  16.467  53.514  1.00  0.00     0.012 C 
BRANCH   5   6
HETATM    6  C6  UNL     1      55.867  15.348  52.942  1.00  0.00     0.001 C 
BRANCH   6   7
HETATM    7  C7  UNL     1      56.597  14.555  51.892  1.00  0.00     0.005 C 
BRANCH   7   8
HETATM    8  C8  UNL     1      56.802  13.113  52.326  1.00  0.00    -0.007 C 
HETATM    9  C9  UNL     1      55.953  12.859  53.522  1.00  0.00     0.033 C 
HETATM   10  C10 UNL     1      55.743  11.427  53.862  1.00  0.00     0.238 C 
HETATM   11  N1  UNL     1      56.119  10.540  52.772  1.00  0.00    -0.065 N 
HETATM   12  C17 UNL     1      57.572  10.593  52.576  1.00  0.00     0.238 C 
HETATM   13  C20 UNL     1      55.524  11.089  51.581  1.00  0.00     0.242 C 
HETATM   14  C18 UNL     1      57.790  11.209  51.190  1.00  0.00     0.034 C 
HETATM   15  C19 UNL     1      56.570  12.150  51.199  1.00  0.00     0.017 C 
BRANCH  11  16
HETATM   16  C11 UNL     1      55.811   9.177  53.037  1.00  0.00     0.256 C 
BRANCH  16  17
HETATM   17  C12 UNL     1      54.775   8.536  52.201  1.00  0.00     0.142 C 
BRANCH  17  18
HETATM   18  N2  UNL     1      53.577   8.303  52.930  1.00  0.00    -0.419 N 
ATOM     19  H2  UNL     1      53.430   7.446  53.462  1.00  0.00     0.153 HD
BRANCH  18  20
HETATM   20  C13 UNL     1      52.590   9.334  52.879  1.00  0.00     0.118 C 
BRANCH  20  21
HETATM   21  C14 UNL     1      51.937   9.547  54.237  1.00  0.00     0.003 A 
HETATM   22  C15 UNL     1      52.750   9.543  55.452  1.00  0.00     0.007 A 
HETATM   23  C16 UNL     1      52.301  10.897  54.926  1.00  0.00     0.007 A 
ENDBRANCH  20  21
ENDBRANCH  18  20
ENDBRANCH  17  18
ENDBRANCH  16  17
ENDBRANCH  11  16
ENDBRANCH   7   8
ENDBRANCH   6   7
ENDBRANCH   5   6
ENDBRANCH   4   5
ENDBRANCH   3   4
TORSDOF 10
ENDMDL
