MODEL 1
REMARK VINA RESULT: -4.786734176      0.000      0.000
REMARK  3 active torsions:
REMARK  status: ('A' for Active; 'I' for Inactive)
REMARK    1  A    between atoms: C4_4  and  N1_5 
REMARK    2  A    between atoms: N1_5  and  N2_7 
REMARK    3  A    between atoms: N2_7  and  C5_9 
ROOT
HETATM    1  N1  UNL     1     -34.700 -11.381 -44.201  1.00  0.00    -0.307 N 
ATOM      2  H1  UNL     1     -33.837 -11.439 -43.661  1.00  0.00     0.186 HD
ENDROOT
BRANCH   1   3
HETATM    3  C4  UNL     1     -34.882 -10.358 -44.924  1.00  0.00     0.004 C 
HETATM    4  C3  UNL     1     -34.412 -10.189 -46.323  1.00  0.00     0.054 C 
HETATM    5  C2  UNL     1     -34.265  -8.660 -46.371  1.00  0.00     0.006 C 
HETATM    6  C1  UNL     1     -35.611  -8.264 -45.789  1.00  0.00     0.006 C 
HETATM    7  C6  UNL     1     -35.602  -9.124 -44.512  1.00  0.00     0.054 C 
ENDBRANCH   1   3
BRANCH   1   8
HETATM    8  N2  UNL     1     -35.601 -12.430 -44.099  1.00  0.00    -0.279 N 
ATOM      9  H2  UNL     1     -35.435 -13.162 -43.408  1.00  0.00     0.189 HD
BRANCH   8  10
HETATM   10  C5  UNL     1     -36.687 -12.507 -44.884  1.00  0.00     0.178 A 
HETATM   11  N3  UNL     1     -37.891 -12.055 -44.657  1.00  0.00    -0.299 N 
HETATM   12  S1  UNL     1     -38.668 -12.506 -46.028  1.00  0.00     0.030 SA
ATOM     13  H3  UNL     1     -38.252 -11.556 -43.844  1.00  0.00     0.177 HD
HETATM   14  S2  UNL     1     -36.859 -13.195 -46.388  1.00  0.00     0.003 SA
ENDBRANCH   8  10
ENDBRANCH   1   8
TORSDOF 3
ENDMDL
MODEL 2
REMARK VINA RESULT: -4.761267855      0.366      1.260
REMARK  3 active torsions:
REMARK  status: ('A' for Active; 'I' for Inactive)
REMARK    1  A    between atoms: C4_4  and  N1_5 
REMARK    2  A    between atoms: N1_5  and  N2_7 
REMARK    3  A    between atoms: N2_7  and  C5_9 
ROOT
HETATM    1  N1  UNL     1     -34.726 -11.234 -44.152  1.00  0.00    -0.307 N 
ATOM      2  H1  UNL     1     -33.833 -11.299 -43.664  1.00  0.00     0.186 HD
ENDROOT
BRANCH   1   3
HETATM    3  C4  UNL     1     -34.972 -10.177 -44.804  1.00  0.00     0.004 C 
HETATM    4  C3  UNL     1     -35.764  -9.019 -44.314  1.00  0.00     0.054 C 
HETATM    5  C2  UNL     1     -36.299  -8.480 -45.649  1.00  0.00     0.006 C 
HETATM    6  C1  UNL     1     -35.003  -8.450 -46.441  1.00  0.00     0.006 C 
HETATM    7  C6  UNL     1     -34.515  -9.887 -46.189  1.00  0.00     0.054 C 
ENDBRANCH   1   3
BRANCH   1   8
HETATM    8  N2  UNL     1     -35.596 -12.310 -44.059  1.00  0.00    -0.279 N 
ATOM      9  H2  UNL     1     -35.403 -13.048 -43.382  1.00  0.00     0.189 HD
BRANCH   8  10
HETATM   10  C5  UNL     1     -36.685 -12.406 -44.838  1.00  0.00     0.178 A 
HETATM   11  N3  UNL     1     -37.902 -12.005 -44.590  1.00  0.00    -0.299 N 
HETATM   12  S1  UNL     1     -38.674 -12.449 -45.967  1.00  0.00     0.030 SA
ATOM     13  H3  UNL     1     -38.274 -11.540 -43.762  1.00  0.00     0.177 HD
HETATM   14  S2  UNL     1     -36.845 -13.062 -46.357  1.00  0.00     0.003 SA
ENDBRANCH   8  10
ENDBRANCH   1   8
TORSDOF 3
ENDMDL
MODEL 3
REMARK VINA RESULT: -4.692615139      7.069      7.831
REMARK  3 active torsions:
REMARK  status: ('A' for Active; 'I' for Inactive)
REMARK    1  A    between atoms: C4_4  and  N1_5 
REMARK    2  A    between atoms: N1_5  and  N2_7 
REMARK    3  A    between atoms: N2_7  and  C5_9 
ROOT
HETATM    1  N1  UNL     1     -34.188  -6.455 -51.846  1.00  0.00    -0.307 N 
ATOM      2  H1  UNL     1     -33.571  -6.250 -52.631  1.00  0.00     0.186 HD
ENDROOT
BRANCH   1   3
HETATM    3  C4  UNL     1     -34.582  -7.648 -51.695  1.00  0.00     0.004 C 
HETATM    4  C3  UNL     1     -33.725  -8.806 -51.328  1.00  0.00     0.054 C 
HETATM    5  C2  UNL     1     -34.520  -9.944 -51.986  1.00  0.00     0.006 C 
HETATM    6  C1  UNL     1     -35.906  -9.612 -51.461  1.00  0.00     0.006 C 
HETATM    7  C6  UNL     1     -35.981  -8.126 -51.854  1.00  0.00     0.054 C 
ENDBRANCH   1   3
BRANCH   1   8
HETATM    8  N2  UNL     1     -34.545  -5.408 -51.010  1.00  0.00    -0.279 N 
ATOM      9  H2  UNL     1     -34.875  -4.534 -51.422  1.00  0.00     0.189 HD
BRANCH   8  10
HETATM   10  C5  UNL     1     -34.467  -5.512 -49.675  1.00  0.00     0.178 A 
HETATM   11  N3  UNL     1     -33.403  -5.535 -48.919  1.00  0.00    -0.299 N 
HETATM   12  S1  UNL     1     -34.070  -5.679 -47.428  1.00  0.00     0.030 SA
ATOM     13  H3  UNL     1     -32.420  -5.479 -49.185  1.00  0.00     0.177 HD
HETATM   14  S2  UNL     1     -35.686  -5.647 -48.551  1.00  0.00     0.003 SA
ENDBRANCH   8  10
ENDBRANCH   1   8
TORSDOF 3
ENDMDL
MODEL 4
REMARK VINA RESULT: -4.634078421      6.939      7.965
REMARK  3 active torsions:
REMARK  status: ('A' for Active; 'I' for Inactive)
REMARK    1  A    between atoms: C4_4  and  N1_5 
REMARK    2  A    between atoms: N1_5  and  N2_7 
REMARK    3  A    between atoms: N2_7  and  C5_9 
ROOT
HETATM    1  N1  UNL     1     -32.882  -6.894 -49.785  1.00  0.00    -0.307 N 
ATOM      2  H1  UNL     1     -31.947  -6.593 -50.057  1.00  0.00     0.186 HD
ENDROOT
BRANCH   1   3
HETATM    3  C4  UNL     1     -33.528  -7.628 -50.590  1.00  0.00     0.004 C 
HETATM    4  C3  UNL     1     -34.110  -7.191 -51.886  1.00  0.00     0.054 C 
HETATM    5  C2  UNL     1     -35.278  -8.182 -51.998  1.00  0.00     0.006 C 
HETATM    6  C1  UNL     1     -34.536  -9.474 -51.702  1.00  0.00     0.006 C 
HETATM    7  C6  UNL     1     -33.829  -9.070 -50.396  1.00  0.00     0.054 C 
ENDBRANCH   1   3
BRANCH   1   8
HETATM    8  N2  UNL     1     -33.368  -6.476 -48.555  1.00  0.00    -0.279 N 
ATOM      9  H2  UNL     1     -33.956  -7.109 -48.013  1.00  0.00     0.189 HD
BRANCH   8  10
HETATM   10  C5  UNL     1     -33.084  -5.261 -48.060  1.00  0.00     0.178 A 
HETATM   11  N3  UNL     1     -32.915  -4.138 -48.703  1.00  0.00    -0.299 N 
HETATM   12  S1  UNL     1     -32.605  -3.104 -47.469  1.00  0.00     0.030 SA
ATOM     13  H3  UNL     1     -32.963  -3.953 -49.705  1.00  0.00     0.177 HD
HETATM   14  S2  UNL     1     -32.855  -4.789 -46.483  1.00  0.00     0.003 SA
ENDBRANCH   8  10
ENDBRANCH   1   8
TORSDOF 3
ENDMDL
MODEL 5
REMARK VINA RESULT: -4.537487107      3.804      4.704
REMARK  3 active torsions:
REMARK  status: ('A' for Active; 'I' for Inactive)
REMARK    1  A    between atoms: C4_4  and  N1_5 
REMARK    2  A    between atoms: N1_5  and  N2_7 
REMARK    3  A    between atoms: N2_7  and  C5_9 
ROOT
HETATM    1  N1  UNL     1     -33.665  -9.400 -48.420  1.00  0.00    -0.307 N 
ATOM      2  H1  UNL     1     -32.746  -9.843 -48.401  1.00  0.00     0.186 HD
ENDROOT
BRANCH   1   3
HETATM    3  C4  UNL     1     -34.226  -9.243 -49.544  1.00  0.00     0.004 C 
HETATM    4  C3  UNL     1     -35.560  -9.771 -49.930  1.00  0.00     0.054 C 
HETATM    5  C2  UNL     1     -35.362  -9.910 -51.447  1.00  0.00     0.006 C 
HETATM    6  C1  UNL     1     -34.784  -8.538 -51.747  1.00  0.00     0.006 C 
HETATM    7  C6  UNL     1     -33.659  -8.498 -50.699  1.00  0.00     0.054 C 
ENDBRANCH   1   3
BRANCH   1   8
HETATM    8  N2  UNL     1     -34.221  -9.008 -47.213  1.00  0.00    -0.279 N 
ATOM      9  H2  UNL     1     -34.384  -8.015 -47.040  1.00  0.00     0.189 HD
BRANCH   8  10
HETATM   10  C5  UNL     1     -34.552  -9.898 -46.265  1.00  0.00     0.178 A 
HETATM   11  N3  UNL     1     -34.719  -9.703 -44.985  1.00  0.00    -0.299 N 
HETATM   12  S1  UNL     1     -35.103 -11.213 -44.476  1.00  0.00     0.030 SA
ATOM     13  H3  UNL     1     -34.633  -8.841 -44.446  1.00  0.00     0.177 HD
HETATM   14  S2  UNL     1     -34.854 -11.528 -46.403  1.00  0.00     0.003 SA
ENDBRANCH   8  10
ENDBRANCH   1   8
TORSDOF 3
ENDMDL
