MODEL 1
REMARK VINA RESULT: -5.663295538      0.000      0.000
REMARK  3 active torsions:
REMARK  status: ('A' for Active; 'I' for Inactive)
REMARK    1  A    between atoms: C2_2  and  C4_4 
REMARK    2  A    between atoms: C4_4  and  C5_9 
REMARK    3  A    between atoms: N1_5  and  O1_7 
ROOT
HETATM    1  C5  UNL     1     -34.618 -10.618 -47.082  1.00  0.00     0.205 C 
HETATM    2  O2  UNL     1     -33.458  -9.927 -46.832  1.00  0.00    -0.347 OA
HETATM    3  C6  UNL     1     -33.717  -8.580 -47.016  1.00  0.00     0.261 C 
HETATM    4  C7  UNL     1     -33.338  -8.099 -48.399  1.00  0.00     0.061 C 
HETATM    5  C8  UNL     1     -33.879  -9.034 -49.424  1.00  0.00     0.007 C 
HETATM    6  C9  UNL     1     -35.325  -9.345 -49.114  1.00  0.00     0.035 C 
HETATM    7  C10 UNL     1     -35.537  -9.571 -47.628  1.00  0.00     0.159 C 
HETATM    8  O3  UNL     1     -35.098  -8.427 -46.907  1.00  0.00    -0.353 OA
ENDROOT
BRANCH   1   9
HETATM    9  C4  UNL     1     -35.215 -11.139 -45.798  1.00  0.00     0.068 C 
HETATM   10  N1  UNL     1     -34.587 -10.917 -44.717  1.00  0.00    -0.270 N 
ATOM     11  H1  UNL     1     -33.699 -10.421 -44.799  1.00  0.00     0.194 HD
BRANCH   9  12
HETATM   12  C2  UNL     1     -36.478 -11.825 -45.868  1.00  0.00    -0.044 C 
HETATM   13  C1  UNL     1     -36.630 -13.008 -46.462  1.00  0.00     0.020 C 
HETATM   14  C3  UNL     1     -37.687 -11.199 -45.267  1.00  0.00     0.049 C 
ENDBRANCH   9  12
BRANCH  10  15
HETATM   15  O1  UNL     1     -34.969 -11.269 -43.470  1.00  0.00    -0.290 OA
ATOM     16  H1  UNL     1     -35.636 -10.852 -42.939  1.00  0.00     0.244 HD
ENDBRANCH  10  15
ENDBRANCH   1   9
TORSDOF 3
ENDMDL
MODEL 2
REMARK VINA RESULT: -5.615912380      1.003      1.847
REMARK  3 active torsions:
REMARK  status: ('A' for Active; 'I' for Inactive)
REMARK    1  A    between atoms: C2_2  and  C4_4 
REMARK    2  A    between atoms: C4_4  and  C5_9 
REMARK    3  A    between atoms: N1_5  and  O1_7 
ROOT
HETATM    1  C5  UNL     1     -35.321  -9.287 -46.669  1.00  0.00     0.205 C 
HETATM    2  O2  UNL     1     -35.078  -9.810 -47.915  1.00  0.00    -0.347 OA
HETATM    3  C6  UNL     1     -33.771  -9.510 -48.254  1.00  0.00     0.261 C 
HETATM    4  C7  UNL     1     -33.661  -8.259 -49.099  1.00  0.00     0.061 C 
HETATM    5  C8  UNL     1     -34.465  -7.165 -48.486  1.00  0.00     0.007 C 
HETATM    6  C9  UNL     1     -34.175  -7.092 -47.004  1.00  0.00     0.035 C 
HETATM    7  C10 UNL     1     -34.097  -8.476 -46.386  1.00  0.00     0.159 C 
HETATM    8  O3  UNL     1     -33.106  -9.240 -47.059  1.00  0.00    -0.353 OA
ENDROOT
BRANCH   1   9
HETATM    9  C4  UNL     1     -35.401 -10.385 -45.638  1.00  0.00     0.068 C 
HETATM   10  N1  UNL     1     -34.481 -10.451 -44.765  1.00  0.00    -0.270 N 
ATOM     11  H1  UNL     1     -33.730  -9.765 -44.842  1.00  0.00     0.194 HD
BRANCH   9  12
HETATM   12  C2  UNL     1     -36.534 -11.272 -45.679  1.00  0.00    -0.044 C 
HETATM   13  C1  UNL     1     -37.708 -10.978 -45.120  1.00  0.00     0.020 C 
HETATM   14  C3  UNL     1     -36.410 -12.589 -46.362  1.00  0.00     0.049 C 
ENDBRANCH   9  12
BRANCH  10  15
HETATM   15  O1  UNL     1     -34.390 -11.333 -43.746  1.00  0.00    -0.290 OA
ATOM     16  H1  UNL     1     -33.884 -11.234 -42.949  1.00  0.00     0.244 HD
ENDBRANCH  10  15
ENDBRANCH   1   9
TORSDOF 3
ENDMDL
MODEL 3
REMARK VINA RESULT: -5.460567689      2.198      4.695
REMARK  3 active torsions:
REMARK  status: ('A' for Active; 'I' for Inactive)
REMARK    1  A    between atoms: C2_2  and  C4_4 
REMARK    2  A    between atoms: C4_4  and  C5_9 
REMARK    3  A    between atoms: N1_5  and  O1_7 
ROOT
HETATM    1  C5  UNL     1     -34.908  -9.215 -48.189  1.00  0.00     0.205 C 
HETATM    2  O2  UNL     1     -35.407  -8.396 -47.206  1.00  0.00    -0.347 OA
HETATM    3  C6  UNL     1     -34.652  -8.592 -46.063  1.00  0.00     0.261 C 
HETATM    4  C7  UNL     1     -35.279  -9.592 -45.116  1.00  0.00     0.061 C 
HETATM    5  C8  UNL     1     -35.691 -10.810 -45.869  1.00  0.00     0.007 C 
HETATM    6  C9  UNL     1     -34.566 -11.249 -46.777  1.00  0.00     0.035 C 
HETATM    7  C10 UNL     1     -33.912 -10.063 -47.463  1.00  0.00     0.159 C 
HETATM    8  O3  UNL     1     -33.443  -9.148 -46.482  1.00  0.00    -0.353 OA
ENDROOT
BRANCH   1   9
HETATM    9  C4  UNL     1     -34.166  -8.410 -49.227  1.00  0.00     0.068 C 
HETATM   10  N1  UNL     1     -33.242  -7.634 -48.829  1.00  0.00    -0.270 N 
ATOM     11  H1  UNL     1     -33.084  -7.590 -47.822  1.00  0.00     0.194 HD
BRANCH   9  12
HETATM   12  C2  UNL     1     -34.522  -8.593 -50.609  1.00  0.00    -0.044 C 
HETATM   13  C1  UNL     1     -33.834  -9.379 -51.438  1.00  0.00     0.020 C 
HETATM   14  C3  UNL     1     -35.701  -7.875 -51.164  1.00  0.00     0.049 C 
ENDBRANCH   9  12
BRANCH  10  15
HETATM   15  O1  UNL     1     -32.445  -6.860 -49.599  1.00  0.00    -0.290 OA
ATOM     16  H1  UNL     1     -31.528  -6.661 -49.451  1.00  0.00     0.244 HD
ENDBRANCH  10  15
ENDBRANCH   1   9
TORSDOF 3
ENDMDL
MODEL 4
REMARK VINA RESULT: -5.413013690      1.924      4.431
REMARK  3 active torsions:
REMARK  status: ('A' for Active; 'I' for Inactive)
REMARK    1  A    between atoms: C2_2  and  C4_4 
REMARK    2  A    between atoms: C4_4  and  C5_9 
REMARK    3  A    between atoms: N1_5  and  O1_7 
ROOT
HETATM    1  C5  UNL     1     -35.665 -10.151 -46.965  1.00  0.00     0.205 C 
HETATM    2  O2  UNL     1     -35.567  -9.994 -45.604  1.00  0.00    -0.347 OA
HETATM    3  C6  UNL     1     -34.760 -11.008 -45.117  1.00  0.00     0.261 C 
HETATM    4  C7  UNL     1     -35.556 -12.192 -44.611  1.00  0.00     0.061 C 
HETATM    5  C8  UNL     1     -36.585 -12.575 -45.618  1.00  0.00     0.007 C 
HETATM    6  C9  UNL     1     -35.954 -12.633 -46.990  1.00  0.00     0.035 C 
HETATM    7  C10 UNL     1     -35.005 -11.470 -47.214  1.00  0.00     0.159 C 
HETATM    8  O3  UNL     1     -34.011 -11.468 -46.199  1.00  0.00    -0.353 OA
ENDROOT
BRANCH   1   9
HETATM    9  C4  UNL     1     -34.869  -9.088 -47.681  1.00  0.00     0.068 C 
HETATM   10  N1  UNL     1     -33.907  -9.463 -48.421  1.00  0.00    -0.270 N 
ATOM     11  H1  UNL     1     -33.722 -10.466 -48.456  1.00  0.00     0.194 HD
BRANCH   9  12
HETATM   12  C2  UNL     1     -35.267  -7.715 -47.515  1.00  0.00    -0.044 C 
HETATM   13  C1  UNL     1     -36.301  -7.176 -48.161  1.00  0.00     0.020 C 
HETATM   14  C3  UNL     1     -34.498  -6.835 -46.594  1.00  0.00     0.049 C 
ENDBRANCH   9  12
BRANCH  10  15
HETATM   15  O1  UNL     1     -33.102  -8.675 -49.166  1.00  0.00    -0.290 OA
ATOM     16  H1  UNL     1     -33.245  -7.762 -49.390  1.00  0.00     0.244 HD
ENDBRANCH  10  15
ENDBRANCH   1   9
TORSDOF 3
ENDMDL
MODEL 5
REMARK VINA RESULT: -5.412436989      2.039      4.399
REMARK  3 active torsions:
REMARK  status: ('A' for Active; 'I' for Inactive)
REMARK    1  A    between atoms: C2_2  and  C4_4 
REMARK    2  A    between atoms: C4_4  and  C5_9 
REMARK    3  A    between atoms: N1_5  and  O1_7 
ROOT
HETATM    1  C5  UNL     1     -36.005 -10.690 -47.388  1.00  0.00     0.205 C 
HETATM    2  O2  UNL     1     -35.515 -10.248 -46.183  1.00  0.00    -0.347 OA
HETATM    3  C6  UNL     1     -34.757 -11.267 -45.633  1.00  0.00     0.261 C 
HETATM    4  C7  UNL     1     -35.542 -12.110 -44.651  1.00  0.00     0.061 C 
HETATM    5  C8  UNL     1     -36.851 -12.493 -45.250  1.00  0.00     0.007 C 
HETATM    6  C9  UNL     1     -36.636 -12.996 -46.658  1.00  0.00     0.035 C 
HETATM    7  C10 UNL     1     -35.631 -12.139 -47.406  1.00  0.00     0.159 C 
HETATM    8  O3  UNL     1     -34.406 -12.109 -46.686  1.00  0.00    -0.353 OA
ENDROOT
BRANCH   1   9
HETATM    9  C4  UNL     1     -35.294 -10.011 -48.533  1.00  0.00     0.068 C 
HETATM   10  N1  UNL     1     -34.067  -9.721 -48.383  1.00  0.00    -0.270 N 
ATOM     11  H1  UNL     1     -33.652  -9.946 -47.479  1.00  0.00     0.194 HD
BRANCH   9  12
HETATM   12  C2  UNL     1     -36.037  -9.764 -49.740  1.00  0.00    -0.044 C 
HETATM   13  C1  UNL     1     -36.151 -10.662 -50.719  1.00  0.00     0.020 C 
HETATM   14  C3  UNL     1     -36.707  -8.450 -49.933  1.00  0.00     0.049 C 
ENDBRANCH   9  12
BRANCH  10  15
HETATM   15  O1  UNL     1     -33.252  -9.146 -49.295  1.00  0.00    -0.290 OA
ATOM     16  H1  UNL     1     -33.514  -8.628 -50.047  1.00  0.00     0.244 HD
ENDBRANCH  10  15
ENDBRANCH   1   9
TORSDOF 3
ENDMDL
