MODEL 1
REMARK VINA RESULT: -4.447880037      0.000      0.000
REMARK  1 active torsions:
REMARK  status: ('A' for Active; 'I' for Inactive)
REMARK    1  A    between atoms: C4_7  and  C5_8 
ROOT
HETATM    1  C1  UNL     1     -34.639  -9.403 -51.636  1.00  0.00     0.019 C 
HETATM    2  C2  UNL     1     -33.693  -8.866 -50.617  1.00  0.00     0.051 C 
HETATM    3  C3  UNL     1     -34.475  -8.755 -49.310  1.00  0.00     0.271 C 
HETATM    4  N1  UNL     1     -33.922  -9.705 -48.406  1.00  0.00    -0.043 N 
ATOM      5  H11 UNL     1     -32.985  -9.440 -48.105  1.00  0.00     0.280 HD
ATOM      6  H12 UNL     1     -33.690 -10.581 -48.874  1.00  0.00     0.280 HD
HETATM    7  C4  UNL     1     -34.792  -9.910 -47.303  1.00  0.00     0.278 C 
HETATM    8  S2  UNL     1     -36.407  -9.932 -48.186  1.00  0.00    -0.046 SA
HETATM    9  N2  UNL     1     -35.808  -9.149 -49.674  1.00  0.00    -0.227 NA
HETATM   10  C7  UNL     1     -35.705 -10.082 -50.763  1.00  0.00     0.105 C 
ENDROOT
BRANCH   7  11
HETATM   11  C5  UNL     1     -34.511 -11.238 -46.673  1.00  0.00     0.098 A 
HETATM   12  C6  UNL     1     -35.736 -12.042 -46.313  1.00  0.00     0.092 A 
HETATM   13  S1  UNL     1     -34.824 -11.399 -44.894  1.00  0.00    -0.159 SA
ENDBRANCH   7  11
TORSDOF 1
ENDMDL
MODEL 2
REMARK VINA RESULT: -4.421792751      2.297      4.972
REMARK  1 active torsions:
REMARK  status: ('A' for Active; 'I' for Inactive)
REMARK    1  A    between atoms: C4_7  and  C5_8 
ROOT
HETATM    1  C1  UNL     1     -36.394 -11.888 -43.825  1.00  0.00     0.019 C 
HETATM    2  C2  UNL     1     -35.266 -10.961 -44.130  1.00  0.00     0.051 C 
HETATM    3  C3  UNL     1     -34.745 -11.346 -45.512  1.00  0.00     0.271 C 
HETATM    4  N1  UNL     1     -35.042 -10.266 -46.389  1.00  0.00    -0.043 N 
ATOM      5  H11 UNL     1     -34.477  -9.443 -46.182  1.00  0.00     0.280 HD
ATOM      6  H12 UNL     1     -35.963  -9.869 -46.203  1.00  0.00     0.280 HD
HETATM    7  C4  UNL     1     -34.906 -10.670 -47.744  1.00  0.00     0.278 C 
HETATM    8  S2  UNL     1     -35.667 -12.342 -47.642  1.00  0.00    -0.046 SA
HETATM    9  N2  UNL     1     -35.535 -12.493 -45.868  1.00  0.00    -0.227 NA
HETATM   10  C7  UNL     1     -36.813 -12.360 -45.226  1.00  0.00     0.105 C 
ENDROOT
BRANCH   7  11
HETATM   11  C5  UNL     1     -35.711  -9.770 -48.627  1.00  0.00     0.098 A 
HETATM   12  C6  UNL     1     -36.238 -10.420 -49.883  1.00  0.00     0.092 A 
HETATM   13  S1  UNL     1     -34.936  -9.201 -50.164  1.00  0.00    -0.159 SA
ENDBRANCH   7  11
TORSDOF 1
ENDMDL
MODEL 3
REMARK VINA RESULT: -4.328667637      2.935      4.783
REMARK  1 active torsions:
REMARK  status: ('A' for Active; 'I' for Inactive)
REMARK    1  A    between atoms: C4_7  and  C5_8 
ROOT
HETATM    1  C1  UNL     1     -36.396 -12.784 -45.521  1.00  0.00     0.019 C 
HETATM    2  C2  UNL     1     -35.783 -11.942 -44.455  1.00  0.00     0.051 C 
HETATM    3  C3  UNL     1     -34.671 -11.134 -45.120  1.00  0.00     0.271 C 
HETATM    4  N1  UNL     1     -35.071  -9.768 -45.093  1.00  0.00    -0.043 N 
ATOM      5  H11 UNL     1     -35.058  -9.389 -44.147  1.00  0.00     0.280 HD
ATOM      6  H12 UNL     1     -36.066  -9.661 -45.287  1.00  0.00     0.280 HD
HETATM    7  C4  UNL     1     -34.274  -8.997 -45.981  1.00  0.00     0.278 C 
HETATM    8  S2  UNL     1     -34.180 -10.164 -47.400  1.00  0.00    -0.046 SA
HETATM    9  N2  UNL     1     -34.666 -11.612 -46.475  1.00  0.00    -0.227 NA
HETATM   10  C7  UNL     1     -36.004 -12.026 -46.798  1.00  0.00     0.105 C 
ENDROOT
BRANCH   7  11
HETATM   11  C5  UNL     1     -35.003  -7.748 -46.364  1.00  0.00     0.098 A 
HETATM   12  C6  UNL     1     -35.028  -7.458 -47.844  1.00  0.00     0.092 A 
HETATM   13  S1  UNL     1     -34.004  -6.326 -46.880  1.00  0.00    -0.159 SA
ENDBRANCH   7  11
TORSDOF 1
ENDMDL
MODEL 4
REMARK VINA RESULT: -4.311005360      2.347      4.925
REMARK  1 active torsions:
REMARK  status: ('A' for Active; 'I' for Inactive)
REMARK    1  A    between atoms: C4_7  and  C5_8 
ROOT
HETATM    1  C1  UNL     1     -35.458 -11.100 -44.043  1.00  0.00     0.019 C 
HETATM    2  C2  UNL     1     -35.863  -9.673 -44.197  1.00  0.00     0.051 C 
HETATM    3  C3  UNL     1     -35.016  -9.098 -45.331  1.00  0.00     0.271 C 
HETATM    4  N1  UNL     1     -35.898  -8.810 -46.410  1.00  0.00    -0.043 N 
ATOM      5  H11 UNL     1     -36.512  -8.024 -46.197  1.00  0.00     0.280 HD
ATOM      6  H12 UNL     1     -36.608  -9.533 -46.522  1.00  0.00     0.280 HD
HETATM    7  C4  UNL     1     -35.167  -8.598 -47.609  1.00  0.00     0.278 C 
HETATM    8  S2  UNL     1     -33.913  -9.934 -47.443  1.00  0.00    -0.046 SA
HETATM    9  N2  UNL     1     -34.145 -10.183 -45.691  1.00  0.00    -0.227 NA
HETATM   10  C7  UNL     1     -34.839 -11.411 -45.414  1.00  0.00     0.105 C 
ENDROOT
BRANCH   7  11
HETATM   11  C5  UNL     1     -36.050  -8.838 -48.792  1.00  0.00     0.098 A 
HETATM   12  C6  UNL     1     -35.390  -9.566 -49.938  1.00  0.00     0.092 A 
HETATM   13  S1  UNL     1     -35.757  -7.829 -50.269  1.00  0.00    -0.159 SA
ENDBRANCH   7  11
TORSDOF 1
ENDMDL
MODEL 5
REMARK VINA RESULT: -4.294938077      2.012      2.576
REMARK  1 active torsions:
REMARK  status: ('A' for Active; 'I' for Inactive)
REMARK    1  A    between atoms: C4_7  and  C5_8 
ROOT
HETATM    1  C1  UNL     1     -34.282  -7.549 -51.704  1.00  0.00     0.019 C 
HETATM    2  C2  UNL     1     -34.331  -8.976 -51.277  1.00  0.00     0.051 C 
HETATM    3  C3  UNL     1     -33.687  -9.042 -49.894  1.00  0.00     0.271 C 
HETATM    4  N1  UNL     1     -34.712  -9.385 -48.969  1.00  0.00    -0.043 N 
ATOM      5  H11 UNL     1     -35.026 -10.347 -49.091  1.00  0.00     0.280 HD
ATOM      6  H12 UNL     1     -35.589  -8.909 -49.182  1.00  0.00     0.280 HD
HETATM    7  C4  UNL     1     -34.286  -9.135 -47.637  1.00  0.00     0.278 C 
HETATM    8  S2  UNL     1     -33.420  -7.531 -47.888  1.00  0.00    -0.046 SA
HETATM    9  N2  UNL     1     -33.248  -7.694 -49.657  1.00  0.00    -0.227 NA
HETATM   10  C7  UNL     1     -34.140  -6.814 -50.362  1.00  0.00     0.105 C 
ENDROOT
BRANCH   7  11
HETATM   11  C5  UNL     1     -35.476  -8.966 -46.745  1.00  0.00     0.098 A 
HETATM   12  C6  UNL     1     -35.400  -7.789 -45.804  1.00  0.00     0.092 A 
HETATM   13  S1  UNL     1     -35.275  -9.399 -44.997  1.00  0.00    -0.159 SA
ENDBRANCH   7  11
TORSDOF 1
ENDMDL
