MODEL 1
REMARK VINA RESULT: -3.890953301      0.000      0.000
REMARK  2 active torsions:
REMARK  status: ('A' for Active; 'I' for Inactive)
REMARK    1  A    between atoms: N1_2  and  C2_4 
REMARK    2  A    between atoms: C3_7  and  S1_8 
ROOT
HETATM    1  C2  UNL     1     -34.800 -10.519 -45.527  1.00  0.00     0.152 C 
HETATM    2  N2  UNL     1     -34.513  -9.353 -45.859  1.00  0.00    -0.325 N 
ATOM      3  H2  UNL     1     -34.354  -8.680 -45.110  1.00  0.00     0.169 HD
HETATM    4  C3  UNL     1     -34.392  -8.901 -47.148  1.00  0.00     0.110 C 
HETATM    5  S2  UNL     1     -35.258  -9.984 -48.292  1.00  0.00    -0.025 SA
HETATM    6  S3  UNL     1     -35.077 -11.644 -46.899  1.00  0.00    -0.014 SA
ENDROOT
BRANCH   1   7
HETATM    7  N1  UNL     1     -34.940 -11.056 -44.176  1.00  0.00    -0.374 N 
HETATM    8  C1  UNL     1     -36.067 -11.858 -43.798  1.00  0.00     0.148 C 
ATOM      9  H1  UNL     1     -34.219 -10.856 -43.484  1.00  0.00     0.161 HD
ENDBRANCH   1   7
BRANCH   4  10
HETATM   10  S1  UNL     1     -33.586  -7.558 -47.693  1.00  0.00    -0.170 SA
HETATM   11  C4  UNL     1     -33.326  -7.374 -49.515  1.00  0.00     0.085 C 
HETATM   12  C5  UNL     1     -33.597  -6.011 -46.732  1.00  0.00     0.085 C 
ENDBRANCH   4  10
TORSDOF 2
ENDMDL
MODEL 2
REMARK VINA RESULT: -3.828711580      1.241      1.268
REMARK  2 active torsions:
REMARK  status: ('A' for Active; 'I' for Inactive)
REMARK    1  A    between atoms: N1_2  and  C2_4 
REMARK    2  A    between atoms: C3_7  and  S1_8 
ROOT
HETATM    1  C2  UNL     1     -34.944 -11.303 -46.011  1.00  0.00     0.152 C 
HETATM    2  N2  UNL     1     -34.532 -10.246 -46.523  1.00  0.00    -0.325 N 
ATOM      3  H2  UNL     1     -34.063  -9.580 -45.908  1.00  0.00     0.169 HD
HETATM    4  C3  UNL     1     -34.655  -9.902 -47.845  1.00  0.00     0.110 C 
HETATM    5  S2  UNL     1     -35.972 -10.838 -48.631  1.00  0.00    -0.025 SA
HETATM    6  S3  UNL     1     -35.769 -12.418 -47.151  1.00  0.00    -0.014 SA
ENDROOT
BRANCH   1   7
HETATM    7  N1  UNL     1     -34.841 -11.722 -44.615  1.00  0.00    -0.374 N 
HETATM    8  C1  UNL     1     -35.997 -12.088 -43.851  1.00  0.00     0.148 C 
ATOM      9  H1  UNL     1     -33.923 -11.755 -44.173  1.00  0.00     0.161 HD
ENDBRANCH   1   7
BRANCH   4  10
HETATM   10  S1  UNL     1     -33.769  -8.793 -48.704  1.00  0.00    -0.170 SA
HETATM   11  C4  UNL     1     -33.757  -8.925 -50.548  1.00  0.00     0.085 C 
HETATM   12  C5  UNL     1     -33.439  -7.136 -48.024  1.00  0.00     0.085 C 
ENDBRANCH   4  10
TORSDOF 2
ENDMDL
MODEL 3
REMARK VINA RESULT: -3.812992575      1.564      1.576
REMARK  2 active torsions:
REMARK  status: ('A' for Active; 'I' for Inactive)
REMARK    1  A    between atoms: N1_2  and  C2_4 
REMARK    2  A    between atoms: C3_7  and  S1_8 
ROOT
HETATM    1  C2  UNL     1     -35.281 -10.011 -44.887  1.00  0.00     0.152 C 
HETATM    2  N2  UNL     1     -34.450  -9.175 -45.289  1.00  0.00    -0.325 N 
ATOM      3  H2  UNL     1     -33.490  -9.275 -44.959  1.00  0.00     0.169 HD
HETATM    4  C3  UNL     1     -34.718  -8.132 -46.136  1.00  0.00     0.110 C 
HETATM    5  S2  UNL     1     -36.472  -7.741 -46.138  1.00  0.00    -0.025 SA
HETATM    6  S3  UNL     1     -36.951  -9.763 -45.498  1.00  0.00    -0.014 SA
ENDROOT
BRANCH   1   7
HETATM    7  N1  UNL     1     -35.054 -11.140 -43.988  1.00  0.00    -0.374 N 
HETATM    8  C1  UNL     1     -35.925 -12.278 -43.973  1.00  0.00     0.148 C 
ATOM      9  H1  UNL     1     -34.255 -11.118 -43.355  1.00  0.00     0.161 HD
ENDBRANCH   1   7
BRANCH   4  10
HETATM   10  S1  UNL     1     -33.655  -7.276 -47.078  1.00  0.00    -0.170 SA
HETATM   11  C4  UNL     1     -33.491  -7.746 -48.859  1.00  0.00     0.085 C 
HETATM   12  C5  UNL     1     -33.225  -5.553 -46.669  1.00  0.00     0.085 C 
ENDBRANCH   4  10
TORSDOF 2
ENDMDL
MODEL 4
REMARK VINA RESULT: -3.770236761      1.776      2.295
REMARK  2 active torsions:
REMARK  status: ('A' for Active; 'I' for Inactive)
REMARK    1  A    between atoms: N1_2  and  C2_4 
REMARK    2  A    between atoms: C3_7  and  S1_8 
ROOT
HETATM    1  C2  UNL     1     -34.827 -10.518 -45.460  1.00  0.00     0.152 C 
HETATM    2  N2  UNL     1     -34.390 -10.392 -46.620  1.00  0.00    -0.325 N 
ATOM      3  H2  UNL     1     -33.909 -11.193 -47.027  1.00  0.00     0.169 HD
HETATM    4  C3  UNL     1     -34.503  -9.265 -47.393  1.00  0.00     0.110 C 
HETATM    5  S2  UNL     1     -34.809  -7.816 -46.376  1.00  0.00    -0.025 SA
HETATM    6  S3  UNL     1     -35.650  -9.063 -44.805  1.00  0.00    -0.014 SA
ENDROOT
BRANCH   1   7
HETATM    7  N1  UNL     1     -34.738 -11.689 -44.592  1.00  0.00    -0.374 N 
HETATM    8  C1  UNL     1     -35.905 -12.293 -44.019  1.00  0.00     0.148 C 
ATOM      9  H1  UNL     1     -33.822 -12.088 -44.388  1.00  0.00     0.161 HD
ENDBRANCH   1   7
BRANCH   4  10
HETATM   10  S1  UNL     1     -34.392  -9.138 -49.043  1.00  0.00    -0.170 SA
HETATM   11  C4  UNL     1     -35.688  -9.962 -50.072  1.00  0.00     0.085 C 
HETATM   12  C5  UNL     1     -33.549  -7.719 -49.814  1.00  0.00     0.085 C 
ENDBRANCH   4  10
TORSDOF 2
ENDMDL
MODEL 5
REMARK VINA RESULT: -3.767877364      1.516      2.145
REMARK  2 active torsions:
REMARK  status: ('A' for Active; 'I' for Inactive)
REMARK    1  A    between atoms: N1_2  and  C2_4 
REMARK    2  A    between atoms: C3_7  and  S1_8 
ROOT
HETATM    1  C2  UNL     1     -34.943 -10.137 -46.171  1.00  0.00     0.152 C 
HETATM    2  N2  UNL     1     -34.737  -9.231 -47.000  1.00  0.00    -0.325 N 
ATOM      3  H2  UNL     1     -34.465  -8.318 -46.636  1.00  0.00     0.169 HD
HETATM    4  C3  UNL     1     -34.846  -9.359 -48.361  1.00  0.00     0.110 C 
HETATM    5  S2  UNL     1     -35.875 -10.767 -48.793  1.00  0.00    -0.025 SA
HETATM    6  S3  UNL     1     -35.431 -11.711 -46.885  1.00  0.00    -0.014 SA
ENDROOT
BRANCH   1   7
HETATM    7  N1  UNL     1     -34.842 -10.060 -44.716  1.00  0.00    -0.374 N 
HETATM    8  C1  UNL     1     -35.927  -9.582 -43.910  1.00  0.00     0.148 C 
ATOM      9  H1  UNL     1     -33.978 -10.355 -44.261  1.00  0.00     0.161 HD
ENDBRANCH   1   7
BRANCH   4  10
HETATM   10  S1  UNL     1     -34.167  -8.408 -49.538  1.00  0.00    -0.170 SA
HETATM   11  C4  UNL     1     -33.126  -6.973 -49.010  1.00  0.00     0.085 C 
HETATM   12  C5  UNL     1     -33.807  -9.085 -51.190  1.00  0.00     0.085 C 
ENDBRANCH   4  10
TORSDOF 2
ENDMDL
