MODEL 1
REMARK VINA RESULT: -5.790906251      0.000      0.000
REMARK  1 active torsions:
REMARK  status: ('A' for Active; 'I' for Inactive)
REMARK    1  A    between atoms: O1_2  and  C2_3 
ROOT
HETATM    1  C2  UNL     1     -36.593 -11.396 -47.209  1.00  0.00     0.126 C 
HETATM    2  C3  UNL     1     -35.563 -12.472 -47.584  1.00  0.00     0.060 C 
HETATM    3  S1  UNL     1     -37.417 -11.982 -45.703  1.00  0.00    -0.078 SA
HETATM    4  C4  UNL     1     -36.483 -11.387 -44.314  1.00  0.00     0.043 C 
HETATM    5  N1  UNL     1     -36.482 -12.044 -43.240  1.00  0.00    -0.397 N 
ATOM      6  H11 UNL     1     -35.945 -11.702 -42.442  1.00  0.00     0.156 HD
ATOM      7  H12 UNL     1     -37.003 -12.915 -43.137  1.00  0.00     0.156 HD
HETATM    8  C5  UNL     1     -35.728 -10.125 -44.464  1.00  0.00     0.070 C 
HETATM    9  C6  UNL     1     -36.246  -9.423 -45.698  1.00  0.00     0.009 C 
HETATM   10  C7  UNL     1     -35.607  -8.043 -45.729  1.00  0.00     0.012 C 
HETATM   11  C8  UNL     1     -35.853 -10.121 -46.973  1.00  0.00     0.142 C 
HETATM   12  C9  UNL     1     -34.403 -10.314 -47.048  1.00  0.00     0.068 C 
HETATM   13  N2  UNL     1     -33.246 -10.486 -47.118  1.00  0.00    -0.197 NA
ENDROOT
BRANCH   1  14
HETATM   14  O1  UNL     1     -37.475 -11.332 -48.283  1.00  0.00    -0.373 OA
HETATM   15  C1  UNL     1     -38.770 -11.045 -47.889  1.00  0.00     0.204 C 
ENDBRANCH   1  14
TORSDOF 1
ENDMDL
MODEL 2
REMARK VINA RESULT: -5.481420739      1.777      2.087
REMARK  1 active torsions:
REMARK  status: ('A' for Active; 'I' for Inactive)
REMARK    1  A    between atoms: O1_2  and  C2_3 
ROOT
HETATM    1  C2  UNL     1     -36.659 -10.530 -47.536  1.00  0.00     0.126 C 
HETATM    2  C3  UNL     1     -35.949 -11.700 -48.233  1.00  0.00     0.060 C 
HETATM    3  S1  UNL     1     -38.334 -11.109 -47.147  1.00  0.00    -0.078 SA
HETATM    4  C4  UNL     1     -38.281 -11.865 -45.541  1.00  0.00     0.043 C 
HETATM    5  N1  UNL     1     -39.094 -12.786 -45.261  1.00  0.00    -0.397 N 
ATOM      6  H11 UNL     1     -39.063 -13.220 -44.338  1.00  0.00     0.156 HD
ATOM      7  H12 UNL     1     -39.788 -13.117 -45.932  1.00  0.00     0.156 HD
HETATM    8  C5  UNL     1     -37.274 -11.386 -44.571  1.00  0.00     0.070 C 
HETATM    9  C6  UNL     1     -36.748 -10.060 -45.072  1.00  0.00     0.009 C 
HETATM   10  C7  UNL     1     -35.867  -9.484 -43.974  1.00  0.00     0.012 C 
HETATM   11  C8  UNL     1     -35.888 -10.203 -46.300  1.00  0.00     0.142 C 
HETATM   12  C9  UNL     1     -34.794 -11.152 -46.075  1.00  0.00     0.068 C 
HETATM   13  N2  UNL     1     -33.921 -11.916 -45.916  1.00  0.00    -0.197 NA
ENDROOT
BRANCH   1  14
HETATM   14  O1  UNL     1     -36.677  -9.496 -48.465  1.00  0.00    -0.373 OA
HETATM   15  C1  UNL     1     -35.674  -9.613 -49.410  1.00  0.00     0.204 C 
ENDBRANCH   1  14
TORSDOF 1
ENDMDL
MODEL 3
REMARK VINA RESULT: -5.330296149      2.333      3.230
REMARK  1 active torsions:
REMARK  status: ('A' for Active; 'I' for Inactive)
REMARK    1  A    between atoms: O1_2  and  C2_3 
ROOT
HETATM    1  C2  UNL     1     -34.720 -10.945 -46.372  1.00  0.00     0.126 C 
HETATM    2  C3  UNL     1     -34.465 -11.660 -45.037  1.00  0.00     0.060 C 
HETATM    3  S1  UNL     1     -35.845 -12.010 -47.315  1.00  0.00    -0.078 SA
HETATM    4  C4  UNL     1     -37.506 -11.541 -46.895  1.00  0.00     0.043 C 
HETATM    5  N1  UNL     1     -38.426 -12.399 -46.951  1.00  0.00    -0.397 N 
ATOM      6  H11 UNL     1     -39.380 -12.129 -46.710  1.00  0.00     0.156 HD
ATOM      7  H12 UNL     1     -38.250 -13.364 -47.231  1.00  0.00     0.156 HD
HETATM    8  C5  UNL     1     -37.760 -10.143 -46.488  1.00  0.00     0.070 C 
HETATM    9  C6  UNL     1     -36.558  -9.320 -46.896  1.00  0.00     0.009 C 
HETATM   10  C7  UNL     1     -36.914  -7.860 -46.656  1.00  0.00     0.012 C 
HETATM   11  C8  UNL     1     -35.339  -9.621 -46.066  1.00  0.00     0.142 C 
HETATM   12  C9  UNL     1     -35.619  -9.470 -44.636  1.00  0.00     0.068 C 
HETATM   13  N2  UNL     1     -35.829  -9.365 -43.488  1.00  0.00    -0.197 NA
ENDROOT
BRANCH   1  14
HETATM   14  O1  UNL     1     -33.476 -10.843 -46.985  1.00  0.00    -0.373 OA
HETATM   15  C1  UNL     1     -33.322  -9.657 -47.680  1.00  0.00     0.204 C 
ENDBRANCH   1  14
TORSDOF 1
ENDMDL
MODEL 4
REMARK VINA RESULT: -5.311268864      1.653      1.667
REMARK  1 active torsions:
REMARK  status: ('A' for Active; 'I' for Inactive)
REMARK    1  A    between atoms: O1_2  and  C2_3 
ROOT
HETATM    1  C2  UNL     1     -36.332 -11.426 -47.915  1.00  0.00     0.126 C 
HETATM    2  C3  UNL     1     -35.869 -12.870 -47.667  1.00  0.00     0.060 C 
HETATM    3  S1  UNL     1     -38.051 -11.336 -47.345  1.00  0.00    -0.078 SA
HETATM    4  C4  UNL     1     -38.023 -10.895 -45.625  1.00  0.00     0.043 C 
HETATM    5  N1  UNL     1     -38.958 -11.275 -44.871  1.00  0.00    -0.397 N 
ATOM      6  H11 UNL     1     -38.942 -11.021 -43.883  1.00  0.00     0.156 HD
ATOM      7  H12 UNL     1     -39.738 -11.835 -45.216  1.00  0.00     0.156 HD
HETATM    8  C5  UNL     1     -36.893 -10.084 -45.125  1.00  0.00     0.070 C 
HETATM    9  C6  UNL     1     -36.187  -9.491 -46.324  1.00  0.00     0.009 C 
HETATM   10  C7  UNL     1     -35.156  -8.506 -45.794  1.00  0.00     0.012 C 
HETATM   11  C8  UNL     1     -35.441 -10.522 -47.128  1.00  0.00     0.142 C 
HETATM   12  C9  UNL     1     -34.507 -11.278 -46.289  1.00  0.00     0.068 C 
HETATM   13  N2  UNL     1     -33.764 -11.899 -45.630  1.00  0.00    -0.197 NA
ENDROOT
BRANCH   1  14
HETATM   14  O1  UNL     1     -36.237 -11.234 -49.290  1.00  0.00    -0.373 OA
HETATM   15  C1  UNL     1     -37.179 -10.339 -49.766  1.00  0.00     0.204 C 
ENDBRANCH   1  14
TORSDOF 1
ENDMDL
MODEL 5
REMARK VINA RESULT: -5.286889245      2.052      2.763
REMARK  1 active torsions:
REMARK  status: ('A' for Active; 'I' for Inactive)
REMARK    1  A    between atoms: O1_2  and  C2_3 
ROOT
HETATM    1  C2  UNL     1     -35.900 -11.970 -46.019  1.00  0.00     0.126 C 
HETATM    2  C3  UNL     1     -34.775 -11.671 -45.016  1.00  0.00     0.060 C 
HETATM    3  S1  UNL     1     -37.379 -11.126 -45.393  1.00  0.00    -0.078 SA
HETATM    4  C4  UNL     1     -37.387  -9.484 -46.070  1.00  0.00     0.043 C 
HETATM    5  N1  UNL     1     -37.937  -8.551 -45.428  1.00  0.00    -0.397 N 
ATOM      6  H11 UNL     1     -37.941  -7.608 -45.817  1.00  0.00     0.156 HD
ATOM      7  H12 UNL     1     -38.381  -8.705 -44.523  1.00  0.00     0.156 HD
HETATM    8  C5  UNL     1     -36.742  -9.261 -47.381  1.00  0.00     0.070 C 
HETATM    9  C6  UNL     1     -36.540 -10.612 -48.030  1.00  0.00     0.009 C 
HETATM   10  C7  UNL     1     -36.062 -10.359 -49.452  1.00  0.00     0.012 C 
HETATM   11  C8  UNL     1     -35.478 -11.432 -47.346  1.00  0.00     0.142 C 
HETATM   12  C9  UNL     1     -34.214 -10.698 -47.258  1.00  0.00     0.068 C 
HETATM   13  N2  UNL     1     -33.199 -10.120 -47.168  1.00  0.00    -0.197 NA
ENDROOT
BRANCH   1  14
HETATM   14  O1  UNL     1     -36.055 -13.352 -46.007  1.00  0.00    -0.373 OA
HETATM   15  C1  UNL     1     -37.255 -13.756 -46.565  1.00  0.00     0.204 C 
ENDBRANCH   1  14
TORSDOF 1
ENDMDL
