MODEL 1
REMARK VINA RESULT: -8.408717808      0.000      0.000
REMARK  12 active torsions:
REMARK  status: ('A' for Active; 'I' for Inactive)
REMARK       I    between atoms: C2_2  and  N1_4 
REMARK    1  A    between atoms: N1_4  and  C3_5 
REMARK    2  A    between atoms: N1_4  and  C10_18 
REMARK    3  A    between atoms: C3_5  and  C4_6 
REMARK    4  A    between atoms: C4_6  and  C5_7 
REMARK    5  A    between atoms: C5_7  and  N2_8 
REMARK    6  A    between atoms: N2_8  and  C6_10 
REMARK    7  A    between atoms: C6_10  and  C7_11 
REMARK    8  A    between atoms: C7_11  and  C8_12 
REMARK    9  A    between atoms: C8_12  and  C9_13 
REMARK   10  A    between atoms: C9_13  and  N3_14 
REMARK   11  A    between atoms: C10_18  and  C11_19 
REMARK   12  A    between atoms: C16_24  and  O2_25 
ROOT
HETATM    1  C11 UNL     1       3.936  -0.057  11.939  1.00  0.00     0.012 C 
HETATM    2  C12 UNL     1       5.078  -0.704  11.257  1.00  0.00     0.007 C 
HETATM    3  C13 UNL     1       5.285  -2.028  12.035  1.00  0.00     0.006 C 
HETATM    4  C14 UNL     1       5.127  -1.467  13.439  1.00  0.00     0.001 C 
HETATM    5  C15 UNL     1       5.089  -2.477  14.519  1.00  0.00     0.024 C 
HETATM    6  C16 UNL     1       5.980  -3.647  14.074  1.00  0.00     0.123 C 
HETATM    7  C17 UNL     1       5.912  -4.812  15.008  1.00  0.00     0.038 C 
HETATM    8  C18 UNL     1       5.071  -4.488  16.196  1.00  0.00     0.004 C 
HETATM    9  C19 UNL     1       5.170  -5.545  17.256  1.00  0.00    -0.043 C 
HETATM   10  C20 UNL     1       4.848  -6.927  16.841  1.00  0.00     0.015 C 
HETATM   11  C21 UNL     1       6.644  -5.543  17.700  1.00  0.00     0.015 C 
HETATM   12  C22 UNL     1       4.386  -5.157  18.480  1.00  0.00     0.009 C 
HETATM   13  C23 UNL     1       3.032  -4.607  18.210  1.00  0.00     0.002 C 
HETATM   14  C24 UNL     1       2.950  -3.620  17.079  1.00  0.00     0.010 C 
HETATM   15  C25 UNL     1       3.677  -4.074  15.837  1.00  0.00    -0.035 C 
HETATM   16  C26 UNL     1       2.859  -5.225  15.261  1.00  0.00     0.016 C 
HETATM   17  C27 UNL     1       3.706  -2.989  14.817  1.00  0.00     0.001 C 
HETATM   18  C28 UNL     1       2.861  -1.779  15.200  1.00  0.00     0.007 C 
HETATM   19  C29 UNL     1       2.702  -0.997  13.877  1.00  0.00     0.010 C 
HETATM   20  C30 UNL     1       4.001  -0.479  13.396  1.00  0.00    -0.035 C 
HETATM   21  C31 UNL     1       4.367   0.721  14.259  1.00  0.00     0.016 C 
ENDROOT
BRANCH   1  22
HETATM   22  C10 UNL     1       2.614  -0.265  11.328  1.00  0.00     0.131 C 
BRANCH  22  23
HETATM   23  N1  UNL     1       1.875   0.996  11.058  1.00  0.00    -0.352 N 
HETATM   24  C2  UNL     1       0.516   1.053  11.359  1.00  0.00     0.215 C 
HETATM   25  C1  UNL     1      -0.442   2.128  10.987  1.00  0.00     0.117 C 
HETATM   26  O1  UNL     1       0.008   0.084  12.026  1.00  0.00    -0.274 OA
BRANCH  23  27
HETATM   27  C3  UNL     1       2.649   2.045  10.438  1.00  0.00     0.127 C 
BRANCH  27  28
HETATM   28  C4  UNL     1       2.913   3.246  11.249  1.00  0.00     0.039 C 
BRANCH  28  29
HETATM   29  C5  UNL     1       3.840   4.290  10.777  1.00  0.00     0.115 C 
BRANCH  29  30
HETATM   30  N2  UNL     1       5.002   4.538  11.551  1.00  0.00    -0.421 N 
ATOM     31  H2  UNL     1       4.961   5.008  12.455  1.00  0.00     0.153 HD
BRANCH  30  32
HETATM   32  C6  UNL     1       6.226   4.090  10.986  1.00  0.00     0.113 C 
BRANCH  32  33
HETATM   33  C7  UNL     1       6.497   2.631  11.296  1.00  0.00     0.021 C 
BRANCH  33  34
HETATM   34  C8  UNL     1       7.792   2.520  12.072  1.00  0.00     0.029 C 
BRANCH  34  35
HETATM   35  C9  UNL     1       7.573   1.496  13.172  1.00  0.00     0.229 C 
BRANCH  35  36
HETATM   36  N3  UNL     1       7.656   2.086  14.481  1.00  0.00    -0.079 N 
ATOM     37  H33 UNL     1       6.881   2.728  14.648  1.00  0.00     0.274 HD
ATOM     38  H32 UNL     1       7.455   1.399  15.208  1.00  0.00     0.274 HD
ATOM     39  H31 UNL     1       8.554   2.541  14.639  1.00  0.00     0.274 HD
ENDBRANCH  35  36
ENDBRANCH  34  35
ENDBRANCH  33  34
ENDBRANCH  32  33
ENDBRANCH  30  32
ENDBRANCH  29  30
ENDBRANCH  28  29
ENDBRANCH  27  28
ENDBRANCH  23  27
ENDBRANCH  22  23
ENDBRANCH   1  22
BRANCH   6  40
HETATM   40  O2  UNL     1       7.277  -3.118  13.984  1.00  0.00    -0.395 OA
ATOM     41  H2  UNL     1       7.648  -3.206  14.853  1.00  0.00     0.210 HD
ENDBRANCH   6  40
TORSDOF 12
ENDMDL
MODEL 2
REMARK VINA RESULT: -8.157184147      0.904      1.315
REMARK  12 active torsions:
REMARK  status: ('A' for Active; 'I' for Inactive)
REMARK       I    between atoms: C2_2  and  N1_4 
REMARK    1  A    between atoms: N1_4  and  C3_5 
REMARK    2  A    between atoms: N1_4  and  C10_18 
REMARK    3  A    between atoms: C3_5  and  C4_6 
REMARK    4  A    between atoms: C4_6  and  C5_7 
REMARK    5  A    between atoms: C5_7  and  N2_8 
REMARK    6  A    between atoms: N2_8  and  C6_10 
REMARK    7  A    between atoms: C6_10  and  C7_11 
REMARK    8  A    between atoms: C7_11  and  C8_12 
REMARK    9  A    between atoms: C8_12  and  C9_13 
REMARK   10  A    between atoms: C9_13  and  N3_14 
REMARK   11  A    between atoms: C10_18  and  C11_19 
REMARK   12  A    between atoms: C16_24  and  O2_25 
ROOT
HETATM    1  C11 UNL     1       4.173  -0.095  11.992  1.00  0.00     0.012 C 
HETATM    2  C12 UNL     1       5.210  -0.849  11.254  1.00  0.00     0.007 C 
HETATM    3  C13 UNL     1       5.317  -2.194  12.017  1.00  0.00     0.006 C 
HETATM    4  C14 UNL     1       5.285  -1.630  13.430  1.00  0.00     0.001 C 
HETATM    5  C15 UNL     1       5.196  -2.638  14.507  1.00  0.00     0.024 C 
HETATM    6  C16 UNL     1       5.940  -3.889  14.016  1.00  0.00     0.123 C 
HETATM    7  C17 UNL     1       5.798  -5.049  14.950  1.00  0.00     0.038 C 
HETATM    8  C18 UNL     1       5.052  -4.649  16.178  1.00  0.00     0.004 C 
HETATM    9  C19 UNL     1       5.094  -5.718  17.229  1.00  0.00    -0.043 C 
HETATM   10  C20 UNL     1       4.612  -7.058  16.827  1.00  0.00     0.015 C 
HETATM   11  C21 UNL     1       6.580  -5.870  17.601  1.00  0.00     0.015 C 
HETATM   12  C22 UNL     1       4.413  -5.262  18.491  1.00  0.00     0.009 C 
HETATM   13  C23 UNL     1       3.111  -4.574  18.288  1.00  0.00     0.002 C 
HETATM   14  C24 UNL     1       3.077  -3.576  17.165  1.00  0.00     0.010 C 
HETATM   15  C25 UNL     1       3.693  -4.092  15.888  1.00  0.00    -0.035 C 
HETATM   16  C26 UNL     1       2.735  -5.150  15.349  1.00  0.00     0.016 C 
HETATM   17  C27 UNL     1       3.783  -3.009  14.870  1.00  0.00     0.001 C 
HETATM   18  C28 UNL     1       3.086  -1.721  15.297  1.00  0.00     0.007 C 
HETATM   19  C29 UNL     1       2.944  -0.918  13.985  1.00  0.00     0.010 C 
HETATM   20  C30 UNL     1       4.264  -0.532  13.443  1.00  0.00    -0.035 C 
HETATM   21  C31 UNL     1       4.793   0.618  14.290  1.00  0.00     0.016 C 
ENDROOT
BRANCH   1  22
HETATM   22  C10 UNL     1       2.809  -0.161  11.445  1.00  0.00     0.131 C 
BRANCH  22  23
HETATM   23  N1  UNL     1       2.185   1.170  11.228  1.00  0.00    -0.352 N 
HETATM   24  C2  UNL     1       0.843   1.342  11.559  1.00  0.00     0.215 C 
HETATM   25  C1  UNL     1      -0.018   2.511  11.238  1.00  0.00     0.117 C 
HETATM   26  O1  UNL     1       0.260   0.403  12.206  1.00  0.00    -0.274 OA
BRANCH  23  27
HETATM   27  C3  UNL     1       3.043   2.163  10.625  1.00  0.00     0.127 C 
BRANCH  27  28
HETATM   28  C4  UNL     1       3.332   3.366  11.423  1.00  0.00     0.039 C 
BRANCH  28  29
HETATM   29  C5  UNL     1       4.250   4.405  10.921  1.00  0.00     0.115 C 
BRANCH  29  30
HETATM   30  N2  UNL     1       5.448   4.632  11.645  1.00  0.00    -0.421 N 
ATOM     31  H2  UNL     1       5.462   5.158  12.518  1.00  0.00     0.153 HD
BRANCH  30  32
HETATM   32  C6  UNL     1       6.626   4.080  11.076  1.00  0.00     0.113 C 
BRANCH  32  33
HETATM   33  C7  UNL     1       6.916   2.688  11.603  1.00  0.00     0.021 C 
BRANCH  33  34
HETATM   34  C8  UNL     1       7.448   1.830  10.475  1.00  0.00     0.029 C 
BRANCH  34  35
HETATM   35  C9  UNL     1       6.913   2.407   9.177  1.00  0.00     0.229 C 
BRANCH  35  36
HETATM   36  N3  UNL     1       5.954   1.535   8.555  1.00  0.00    -0.079 N 
ATOM     37  H33 UNL     1       5.217   1.268   9.209  1.00  0.00     0.274 HD
ATOM     38  H32 UNL     1       5.388   2.036   7.871  1.00  0.00     0.274 HD
ATOM     39  H31 UNL     1       6.396   0.714   8.141  1.00  0.00     0.274 HD
ENDBRANCH  35  36
ENDBRANCH  34  35
ENDBRANCH  33  34
ENDBRANCH  32  33
ENDBRANCH  30  32
ENDBRANCH  29  30
ENDBRANCH  28  29
ENDBRANCH  27  28
ENDBRANCH  23  27
ENDBRANCH  22  23
ENDBRANCH   1  22
BRANCH   6  40
HETATM   40  O2  UNL     1       7.279  -3.495  13.865  1.00  0.00    -0.395 OA
ATOM     41  H2  UNL     1       7.246  -2.615  13.511  1.00  0.00     0.210 HD
ENDBRANCH   6  40
TORSDOF 12
ENDMDL
MODEL 3
REMARK VINA RESULT: -8.054432338      2.896      5.275
REMARK  12 active torsions:
REMARK  status: ('A' for Active; 'I' for Inactive)
REMARK       I    between atoms: C2_2  and  N1_4 
REMARK    1  A    between atoms: N1_4  and  C3_5 
REMARK    2  A    between atoms: N1_4  and  C10_18 
REMARK    3  A    between atoms: C3_5  and  C4_6 
REMARK    4  A    between atoms: C4_6  and  C5_7 
REMARK    5  A    between atoms: C5_7  and  N2_8 
REMARK    6  A    between atoms: N2_8  and  C6_10 
REMARK    7  A    between atoms: C6_10  and  C7_11 
REMARK    8  A    between atoms: C7_11  and  C8_12 
REMARK    9  A    between atoms: C8_12  and  C9_13 
REMARK   10  A    between atoms: C9_13  and  N3_14 
REMARK   11  A    between atoms: C10_18  and  C11_19 
REMARK   12  A    between atoms: C16_24  and  O2_25 
ROOT
HETATM    1  C11 UNL     1       4.590   0.534  11.778  1.00  0.00     0.012 C 
HETATM    2  C12 UNL     1       3.978  -0.608  11.065  1.00  0.00     0.007 C 
HETATM    3  C13 UNL     1       4.553  -1.857  11.780  1.00  0.00     0.006 C 
HETATM    4  C14 UNL     1       5.994  -1.383  11.889  1.00  0.00     0.001 C 
HETATM    5  C15 UNL     1       6.881  -2.251  12.693  1.00  0.00     0.024 C 
HETATM    6  C16 UNL     1       6.381  -3.693  12.519  1.00  0.00     0.123 C 
HETATM    7  C17 UNL     1       7.098  -4.663  13.402  1.00  0.00     0.038 C 
HETATM    8  C18 UNL     1       8.194  -3.985  14.151  1.00  0.00     0.004 C 
HETATM    9  C19 UNL     1       9.074  -4.968  14.865  1.00  0.00    -0.043 C 
HETATM   10  C20 UNL     1       8.402  -5.898  15.798  1.00  0.00     0.015 C 
HETATM   11  C21 UNL     1       9.712  -5.828  13.759  1.00  0.00     0.015 C 
HETATM   12  C22 UNL     1      10.224  -4.272  15.541  1.00  0.00     0.009 C 
HETATM   13  C23 UNL     1       9.862  -3.037  16.283  1.00  0.00     0.002 C 
HETATM   14  C24 UNL     1       8.905  -2.117  15.578  1.00  0.00     0.010 C 
HETATM   15  C25 UNL     1       7.719  -2.834  14.982  1.00  0.00    -0.035 C 
HETATM   16  C26 UNL     1       6.857  -3.284  16.158  1.00  0.00     0.016 C 
HETATM   17  C27 UNL     1       6.899  -1.903  14.157  1.00  0.00     0.001 C 
HETATM   18  C28 UNL     1       7.353  -0.450  14.259  1.00  0.00     0.007 C 
HETATM   19  C29 UNL     1       6.163   0.355  13.690  1.00  0.00     0.010 C 
HETATM   20  C30 UNL     1       5.955   0.070  12.254  1.00  0.00    -0.035 C 
HETATM   21  C31 UNL     1       7.042   0.801  11.477  1.00  0.00     0.016 C 
ENDROOT
BRANCH   1  22
HETATM   22  C10 UNL     1       3.777   1.148  12.840  1.00  0.00     0.131 C 
BRANCH  22  23
HETATM   23  N1  UNL     1       2.346   0.748  12.806  1.00  0.00    -0.352 N 
HETATM   24  C2  UNL     1       1.466   1.480  12.012  1.00  0.00     0.215 C 
HETATM   25  C1  UNL     1      -0.017   1.381  11.990  1.00  0.00     0.117 C 
HETATM   26  O1  UNL     1       1.962   2.344  11.206  1.00  0.00    -0.274 OA
BRANCH  23  27
HETATM   27  C3  UNL     1       1.992  -0.354  13.668  1.00  0.00     0.127 C 
BRANCH  27  28
HETATM   28  C4  UNL     1       2.900  -0.637  14.793  1.00  0.00     0.039 C 
BRANCH  28  29
HETATM   29  C5  UNL     1       3.368  -2.008  15.061  1.00  0.00     0.115 C 
BRANCH  29  30
HETATM   30  N2  UNL     1       3.456  -2.422  16.415  1.00  0.00    -0.421 N 
ATOM     31  H2  UNL     1       3.831  -1.815  17.144  1.00  0.00     0.153 HD
BRANCH  30  32
HETATM   32  C6  UNL     1       2.991  -3.735  16.690  1.00  0.00     0.113 C 
BRANCH  32  33
HETATM   33  C7  UNL     1       2.780  -4.543  15.425  1.00  0.00     0.021 C 
BRANCH  33  34
HETATM   34  C8  UNL     1       3.916  -5.532  15.273  1.00  0.00     0.029 C 
BRANCH  34  35
HETATM   35  C9  UNL     1       4.286  -6.014  16.664  1.00  0.00     0.229 C 
BRANCH  35  36
HETATM   36  N3  UNL     1       5.001  -7.261  16.630  1.00  0.00    -0.079 N 
ATOM     37  H33 UNL     1       5.287  -7.498  15.680  1.00  0.00     0.274 HD
ATOM     38  H32 UNL     1       5.922  -7.171  17.058  1.00  0.00     0.274 HD
ATOM     39  H31 UNL     1       4.467  -8.019  17.055  1.00  0.00     0.274 HD
ENDBRANCH  35  36
ENDBRANCH  34  35
ENDBRANCH  33  34
ENDBRANCH  32  33
ENDBRANCH  30  32
ENDBRANCH  29  30
ENDBRANCH  28  29
ENDBRANCH  27  28
ENDBRANCH  23  27
ENDBRANCH  22  23
ENDBRANCH   1  22
BRANCH   6  40
HETATM   40  O2  UNL     1       6.557  -3.990  11.158  1.00  0.00    -0.395 OA
ATOM     41  H2  UNL     1       7.445  -4.319  11.082  1.00  0.00     0.210 HD
ENDBRANCH   6  40
TORSDOF 12
ENDMDL
MODEL 4
REMARK VINA RESULT: -8.051348295      2.290      3.636
REMARK  12 active torsions:
REMARK  status: ('A' for Active; 'I' for Inactive)
REMARK       I    between atoms: C2_2  and  N1_4 
REMARK    1  A    between atoms: N1_4  and  C3_5 
REMARK    2  A    between atoms: N1_4  and  C10_18 
REMARK    3  A    between atoms: C3_5  and  C4_6 
REMARK    4  A    between atoms: C4_6  and  C5_7 
REMARK    5  A    between atoms: C5_7  and  N2_8 
REMARK    6  A    between atoms: N2_8  and  C6_10 
REMARK    7  A    between atoms: C6_10  and  C7_11 
REMARK    8  A    between atoms: C7_11  and  C8_12 
REMARK    9  A    between atoms: C8_12  and  C9_13 
REMARK   10  A    between atoms: C9_13  and  N3_14 
REMARK   11  A    between atoms: C10_18  and  C11_19 
REMARK   12  A    between atoms: C16_24  and  O2_25 
ROOT
HETATM    1  C11 UNL     1       3.212  -0.847  14.060  1.00  0.00     0.012 C 
HETATM    2  C12 UNL     1       3.715   0.178  14.999  1.00  0.00     0.007 C 
HETATM    3  C13 UNL     1       5.180  -0.245  15.276  1.00  0.00     0.006 C 
HETATM    4  C14 UNL     1       4.934  -1.737  15.439  1.00  0.00     0.001 C 
HETATM    5  C15 UNL     1       6.152  -2.566  15.557  1.00  0.00     0.024 C 
HETATM    6  C16 UNL     1       7.213  -1.710  16.265  1.00  0.00     0.123 C 
HETATM    7  C17 UNL     1       8.552  -2.375  16.314  1.00  0.00     0.038 C 
HETATM    8  C18 UNL     1       8.478  -3.753  15.751  1.00  0.00     0.004 C 
HETATM    9  C19 UNL     1       9.741  -4.525  15.996  1.00  0.00    -0.043 C 
HETATM   10  C20 UNL     1      10.995  -3.909  15.512  1.00  0.00     0.015 C 
HETATM   11  C21 UNL     1       9.861  -4.640  17.527  1.00  0.00     0.015 C 
HETATM   12  C22 UNL     1       9.613  -5.940  15.500  1.00  0.00     0.009 C 
HETATM   13  C23 UNL     1       8.994  -6.081  14.157  1.00  0.00     0.002 C 
HETATM   14  C24 UNL     1       7.785  -5.224  13.911  1.00  0.00     0.010 C 
HETATM   15  C25 UNL     1       7.972  -3.790  14.343  1.00  0.00    -0.035 C 
HETATM   16  C26 UNL     1       8.957  -3.172  13.355  1.00  0.00     0.016 C 
HETATM   17  C27 UNL     1       6.693  -3.035  14.232  1.00  0.00     0.001 C 
HETATM   18  C28 UNL     1       5.579  -3.831  13.560  1.00  0.00     0.007 C 
HETATM   19  C29 UNL     1       4.527  -2.763  13.186  1.00  0.00     0.010 C 
HETATM   20  C30 UNL     1       3.940  -2.138  14.390  1.00  0.00    -0.035 C 
HETATM   21  C31 UNL     1       2.962  -3.135  14.997  1.00  0.00     0.016 C 
ENDROOT
BRANCH   1  22
HETATM   22  C10 UNL     1       3.259  -0.499  12.631  1.00  0.00     0.131 C 
BRANCH  22  23
HETATM   23  N1  UNL     1       2.429   0.683  12.275  1.00  0.00    -0.352 N 
HETATM   24  C2  UNL     1       1.042   0.553  12.285  1.00  0.00     0.215 C 
HETATM   25  C1  UNL     1       0.046   1.531  11.774  1.00  0.00     0.117 C 
HETATM   26  O1  UNL     1       0.543  -0.518  12.779  1.00  0.00    -0.274 OA
BRANCH  23  27
HETATM   27  C3  UNL     1       3.168   1.861  11.888  1.00  0.00     0.127 C 
BRANCH  27  28
HETATM   28  C4  UNL     1       3.448   2.030  10.452  1.00  0.00     0.039 C 
BRANCH  28  29
HETATM   29  C5  UNL     1       4.800   2.380   9.981  1.00  0.00     0.115 C 
BRANCH  29  30
HETATM   30  N2  UNL     1       5.705   1.318   9.730  1.00  0.00    -0.421 N 
ATOM     31  H2  UNL     1       5.597   0.689   8.933  1.00  0.00     0.153 HD
BRANCH  30  32
HETATM   32  C6  UNL     1       6.772   1.185  10.657  1.00  0.00     0.113 C 
BRANCH  32  33
HETATM   33  C7  UNL     1       6.494   0.119  11.699  1.00  0.00     0.021 C 
BRANCH  33  34
HETATM   34  C8  UNL     1       7.424   0.319  12.876  1.00  0.00     0.029 C 
BRANCH  34  35
HETATM   35  C9  UNL     1       7.584   1.815  13.077  1.00  0.00     0.229 C 
BRANCH  35  36
HETATM   36  N3  UNL     1       7.704   2.162  14.467  1.00  0.00    -0.079 N 
ATOM     37  H33 UNL     1       7.802   3.170  14.590  1.00  0.00     0.274 HD
ATOM     38  H32 UNL     1       6.821   2.025  14.960  1.00  0.00     0.274 HD
ATOM     39  H31 UNL     1       8.465   1.658  14.922  1.00  0.00     0.274 HD
ENDBRANCH  35  36
ENDBRANCH  34  35
ENDBRANCH  33  34
ENDBRANCH  32  33
ENDBRANCH  30  32
ENDBRANCH  29  30
ENDBRANCH  28  29
ENDBRANCH  27  28
ENDBRANCH  23  27
ENDBRANCH  22  23
ENDBRANCH   1  22
BRANCH   6  40
HETATM   40  O2  UNL     1       6.701  -1.461  17.548  1.00  0.00    -0.395 OA
ATOM     41  H2  UNL     1       6.155  -0.689  17.458  1.00  0.00     0.210 HD
ENDBRANCH   6  40
TORSDOF 12
ENDMDL
MODEL 5
REMARK VINA RESULT: -8.008499803      2.868      5.137
REMARK  12 active torsions:
REMARK  status: ('A' for Active; 'I' for Inactive)
REMARK       I    between atoms: C2_2  and  N1_4 
REMARK    1  A    between atoms: N1_4  and  C3_5 
REMARK    2  A    between atoms: N1_4  and  C10_18 
REMARK    3  A    between atoms: C3_5  and  C4_6 
REMARK    4  A    between atoms: C4_6  and  C5_7 
REMARK    5  A    between atoms: C5_7  and  N2_8 
REMARK    6  A    between atoms: N2_8  and  C6_10 
REMARK    7  A    between atoms: C6_10  and  C7_11 
REMARK    8  A    between atoms: C7_11  and  C8_12 
REMARK    9  A    between atoms: C8_12  and  C9_13 
REMARK   10  A    between atoms: C9_13  and  N3_14 
REMARK   11  A    between atoms: C10_18  and  C11_19 
REMARK   12  A    between atoms: C16_24  and  O2_25 
ROOT
HETATM    1  C11 UNL     1       4.945  -0.177  12.876  1.00  0.00     0.012 C 
HETATM    2  C12 UNL     1       5.302   0.698  14.013  1.00  0.00     0.007 C 
HETATM    3  C13 UNL     1       6.485  -0.031  14.698  1.00  0.00     0.006 C 
HETATM    4  C14 UNL     1       5.916  -1.441  14.642  1.00  0.00     0.001 C 
HETATM    5  C15 UNL     1       6.845  -2.511  15.063  1.00  0.00     0.024 C 
HETATM    6  C16 UNL     1       7.761  -1.914  16.142  1.00  0.00     0.123 C 
HETATM    7  C17 UNL     1       8.855  -2.848  16.552  1.00  0.00     0.038 C 
HETATM    8  C18 UNL     1       8.704  -4.167  15.873  1.00  0.00     0.004 C 
HETATM    9  C19 UNL     1       9.644  -5.193  16.434  1.00  0.00    -0.043 C 
HETATM   10  C20 UNL     1      11.082  -4.846  16.426  1.00  0.00     0.015 C 
HETATM   11  C21 UNL     1       9.233  -5.364  17.908  1.00  0.00     0.015 C 
HETATM   12  C22 UNL     1       9.415  -6.538  15.799  1.00  0.00     0.009 C 
HETATM   13  C23 UNL     1       9.254  -6.516  14.322  1.00  0.00     0.002 C 
HETATM   14  C24 UNL     1       8.381  -5.417  13.785  1.00  0.00     0.010 C 
HETATM   15  C25 UNL     1       8.689  -4.065  14.380  1.00  0.00    -0.035 C 
HETATM   16  C26 UNL     1      10.043  -3.647  13.812  1.00  0.00     0.016 C 
HETATM   17  C27 UNL     1       7.687  -3.054  13.940  1.00  0.00     0.001 C 
HETATM   18  C28 UNL     1       6.723  -3.582  12.882  1.00  0.00     0.007 C 
HETATM   19  C29 UNL     1       6.078  -2.308  12.293  1.00  0.00     0.010 C 
HETATM   20  C30 UNL     1       5.262  -1.599  13.302  1.00  0.00    -0.035 C 
HETATM   21  C31 UNL     1       3.967  -2.380  13.479  1.00  0.00     0.016 C 
ENDROOT
BRANCH   1  22
HETATM   22  C10 UNL     1       5.522   0.185  11.572  1.00  0.00     0.131 C 
BRANCH  22  23
HETATM   23  N1  UNL     1       5.771   1.642  11.410  1.00  0.00    -0.352 N 
HETATM   24  C2  UNL     1       7.072   2.118  11.554  1.00  0.00     0.215 C 
HETATM   25  C1  UNL     1       7.504   3.538  11.633  1.00  0.00     0.117 C 
HETATM   26  O1  UNL     1       8.020   1.260  11.632  1.00  0.00    -0.274 OA
BRANCH  23  27
HETATM   27  C3  UNL     1       4.595   2.445  11.172  1.00  0.00     0.127 C 
BRANCH  27  28
HETATM   28  C4  UNL     1       3.915   2.262   9.878  1.00  0.00     0.039 C 
BRANCH  28  29
HETATM   29  C5  UNL     1       2.454   2.080   9.811  1.00  0.00     0.115 C 
BRANCH  29  30
HETATM   30  N2  UNL     1       1.966   0.874   9.247  1.00  0.00    -0.421 N 
ATOM     31  H2  UNL     1       1.588   0.832   8.300  1.00  0.00     0.153 HD
BRANCH  30  32
HETATM   32  C6  UNL     1       2.036  -0.271  10.084  1.00  0.00     0.113 C 
BRANCH  32  33
HETATM   33  C7  UNL     1       1.714   0.058  11.529  1.00  0.00     0.021 C 
BRANCH  33  34
HETATM   34  C8  UNL     1       0.267  -0.288  11.806  1.00  0.00     0.029 C 
BRANCH  34  35
HETATM   35  C9  UNL     1      -0.268   0.749  12.778  1.00  0.00     0.229 C 
BRANCH  35  36
HETATM   36  N3  UNL     1      -0.518   2.011  12.136  1.00  0.00    -0.079 N 
ATOM     37  H33 UNL     1       0.279   2.641  12.234  1.00  0.00     0.274 HD
ATOM     38  H32 UNL     1      -0.523   1.914  11.121  1.00  0.00     0.274 HD
ATOM     39  H31 UNL     1      -1.376   2.447  12.472  1.00  0.00     0.274 HD
ENDBRANCH  35  36
ENDBRANCH  34  35
ENDBRANCH  33  34
ENDBRANCH  32  33
ENDBRANCH  30  32
ENDBRANCH  29  30
ENDBRANCH  28  29
ENDBRANCH  27  28
ENDBRANCH  23  27
ENDBRANCH  22  23
ENDBRANCH   1  22
BRANCH   6  40
HETATM   40  O2  UNL     1       6.915  -1.591  17.216  1.00  0.00    -0.395 OA
ATOM     41  H2  UNL     1       7.130  -0.695  17.447  1.00  0.00     0.210 HD
ENDBRANCH   6  40
TORSDOF 12
ENDMDL
