MODEL 1
REMARK VINA RESULT: -9.437336779      0.000      0.000
REMARK  11 active torsions:
REMARK  status: ('A' for Active; 'I' for Inactive)
REMARK    1  A    between atoms: C2_2  and  C4_4 
REMARK    2  A    between atoms: C4_4  and  N1_5 
REMARK    3  A    between atoms: C4_4  and  C30_36 
REMARK       I    between atoms: N1_5  and  C5_7 
REMARK    4  A    between atoms: C5_7  and  C6_9 
REMARK    5  A    between atoms: C9_12  and  N2_13 
REMARK    6  A    between atoms: N2_13  and  C10_14 
REMARK    7  A    between atoms: N2_13  and  C16_20 
REMARK    8  A    between atoms: C10_14  and  C11_15 
REMARK    9  A    between atoms: C24_28  and  C25_29 
REMARK   10  A    between atoms: C25_29  and  C26_30 
REMARK   11  A    between atoms: C26_30  and  O2_31 
ROOT
HETATM    1  N2  UNL     1       5.823  -3.334  15.194  1.00  0.00    -0.359 N 
ENDROOT
BRANCH   1   2
HETATM    2  C9  UNL     1       5.607  -2.046  14.684  1.00  0.00    -0.011 C 
HETATM    3  C8  UNL     1       4.063  -1.786  14.568  1.00  0.00     0.053 C 
HETATM    4  C7  UNL     1       3.786  -0.359  14.740  1.00  0.00     0.020 C 
HETATM    5  C6  UNL     1       4.724   0.580  14.058  1.00  0.00     0.078 C 
HETATM    6  C29 UNL     1       6.115   0.120  13.848  1.00  0.00     0.020 C 
HETATM    7  C28 UNL     1       6.184  -1.383  13.540  1.00  0.00     0.053 C 
BRANCH   5   8
HETATM    8  C5  UNL     1       4.187   1.070  12.766  1.00  0.00     0.222 C 
HETATM    9  N1  UNL     1       2.781   1.185  12.478  1.00  0.00    -0.346 N 
ATOM     10  H1  UNL     1       2.059   0.926  13.151  1.00  0.00     0.163 HD
HETATM   11  O1  UNL     1       5.048   1.399  11.883  1.00  0.00    -0.273 OA
BRANCH   9  12
HETATM   12  C4  UNL     1       2.469   1.702  11.145  1.00  0.00     0.189 C 
BRANCH  12  13
HETATM   13  C2  UNL     1       1.313   0.870  10.626  1.00  0.00     0.010 C 
HETATM   14  C1  UNL     1       1.818  -0.019   9.480  1.00  0.00     0.012 C 
HETATM   15  C3  UNL     1       0.768  -0.050  11.672  1.00  0.00     0.012 C 
ENDBRANCH  12  13
BRANCH  12  16
HETATM   16  C30 UNL     1       1.956   3.083  11.431  1.00  0.00     0.197 C 
HETATM   17  O3  UNL     1       2.780   4.052  11.347  1.00  0.00    -0.646 OA
HETATM   18  O4  UNL     1       0.649   3.316  11.761  1.00  0.00    -0.646 OA
ENDBRANCH  12  16
ENDBRANCH   9  12
ENDBRANCH   5   8
ENDBRANCH   1   2
BRANCH   1  19
HETATM   19  C10 UNL     1       4.631  -4.132  15.262  1.00  0.00     0.133 C 
BRANCH  19  20
HETATM   20  C11 UNL     1       4.597  -5.097  16.424  1.00  0.00     0.004 C 
HETATM   21  C12 UNL     1       3.494  -6.088  16.118  1.00  0.00     0.006 C 
HETATM   22  C13 UNL     1       2.842  -6.422  17.445  1.00  0.00     0.000 C 
HETATM   23  C14 UNL     1       3.443  -5.548  18.501  1.00  0.00     0.000 C 
HETATM   24  C15 UNL     1       4.101  -4.457  17.682  1.00  0.00     0.006 C 
ENDBRANCH  19  20
ENDBRANCH   1  19
BRANCH   1  25
HETATM   25  C16 UNL     1       7.074  -3.925  15.232  1.00  0.00     0.002 C 
HETATM   26  C17 UNL     1       8.030  -3.264  16.235  1.00  0.00     0.033 C 
HETATM   27  C18 UNL     1       9.014  -2.353  15.594  1.00  0.00     0.015 C 
HETATM   28  C22 UNL     1       8.844  -4.364  16.872  1.00  0.00     0.015 C 
HETATM   29  C19 UNL     1       9.876  -3.112  14.587  1.00  0.00    -0.012 C 
HETATM   30  C20 UNL     1      10.640  -4.216  15.227  1.00  0.00     0.009 C 
HETATM   31  C27 UNL     1       8.884  -3.593  13.551  1.00  0.00     0.020 C 
HETATM   32  C21 UNL     1       9.610  -5.154  15.842  1.00  0.00    -0.012 C 
HETATM   33  C23 UNL     1       8.733  -5.648  14.728  1.00  0.00     0.020 C 
HETATM   34  C24 UNL     1       7.844  -4.547  14.169  1.00  0.00     0.001 C 
BRANCH  34  35
HETATM   35  C25 UNL     1       7.106  -5.164  13.008  1.00  0.00     0.041 C 
BRANCH  35  36
HETATM   36  C26 UNL     1       6.848  -4.226  11.866  1.00  0.00     0.165 C 
BRANCH  36  37
HETATM   37  O2  UNL     1       6.475  -5.023  10.748  1.00  0.00    -0.401 OA
ATOM     38  H2  UNL     1       5.613  -5.377  10.933  1.00  0.00     0.209 HD
ENDBRANCH  36  37
ENDBRANCH  35  36
ENDBRANCH  34  35
ENDBRANCH   1  25
TORSDOF 11
ENDMDL
MODEL 2
REMARK VINA RESULT: -9.154061487      1.293      1.497
REMARK  11 active torsions:
REMARK  status: ('A' for Active; 'I' for Inactive)
REMARK    1  A    between atoms: C2_2  and  C4_4 
REMARK    2  A    between atoms: C4_4  and  N1_5 
REMARK    3  A    between atoms: C4_4  and  C30_36 
REMARK       I    between atoms: N1_5  and  C5_7 
REMARK    4  A    between atoms: C5_7  and  C6_9 
REMARK    5  A    between atoms: C9_12  and  N2_13 
REMARK    6  A    between atoms: N2_13  and  C10_14 
REMARK    7  A    between atoms: N2_13  and  C16_20 
REMARK    8  A    between atoms: C10_14  and  C11_15 
REMARK    9  A    between atoms: C24_28  and  C25_29 
REMARK   10  A    between atoms: C25_29  and  C26_30 
REMARK   11  A    between atoms: C26_30  and  O2_31 
ROOT
HETATM    1  N2  UNL     1       5.846  -3.140  14.441  1.00  0.00    -0.359 N 
ENDROOT
BRANCH   1   2
HETATM    2  C9  UNL     1       5.839  -1.885  13.814  1.00  0.00    -0.011 C 
HETATM    3  C8  UNL     1       4.474  -1.167  14.106  1.00  0.00     0.053 C 
HETATM    4  C7  UNL     1       4.668   0.283  14.118  1.00  0.00     0.020 C 
HETATM    5  C6  UNL     1       5.555   0.837  13.054  1.00  0.00     0.078 C 
HETATM    6  C29 UNL     1       6.622  -0.045  12.531  1.00  0.00     0.020 C 
HETATM    7  C28 UNL     1       6.174  -1.512  12.462  1.00  0.00     0.053 C 
BRANCH   5   8
HETATM    8  C5  UNL     1       4.786   1.381  11.910  1.00  0.00     0.222 C 
HETATM    9  N1  UNL     1       3.685   2.297  12.051  1.00  0.00    -0.346 N 
ATOM     10  H1  UNL     1       3.356   2.627  12.959  1.00  0.00     0.163 HD
HETATM   11  O1  UNL     1       5.149   0.994  10.748  1.00  0.00    -0.273 OA
BRANCH   9  12
HETATM   12  C4  UNL     1       3.072   2.719  10.791  1.00  0.00     0.189 C 
BRANCH  12  13
HETATM   13  C2  UNL     1       1.590   2.872  11.068  1.00  0.00     0.010 C 
HETATM   14  C1  UNL     1       0.843   2.954   9.728  1.00  0.00     0.012 C 
HETATM   15  C3  UNL     1       1.030   1.693  11.798  1.00  0.00     0.012 C 
ENDBRANCH  12  13
BRANCH  12  16
HETATM   16  C30 UNL     1       3.649   4.088  10.578  1.00  0.00     0.197 C 
HETATM   17  O3  UNL     1       3.915   4.787  11.610  1.00  0.00    -0.646 OA
HETATM   18  O4  UNL     1       3.898   4.582   9.326  1.00  0.00    -0.646 OA
ENDBRANCH  12  16
ENDBRANCH   9  12
ENDBRANCH   5   8
ENDBRANCH   1   2
BRANCH   1  19
HETATM   19  C10 UNL     1       4.604  -3.849  14.321  1.00  0.00     0.133 C 
BRANCH  19  20
HETATM   20  C11 UNL     1       4.180  -4.574  15.576  1.00  0.00     0.004 C 
HETATM   21  C12 UNL     1       2.887  -5.284  15.238  1.00  0.00     0.006 C 
HETATM   22  C13 UNL     1       2.028  -5.222  16.486  1.00  0.00     0.000 C 
HETATM   23  C14 UNL     1       2.729  -4.374  17.500  1.00  0.00     0.000 C 
HETATM   24  C15 UNL     1       3.747  -3.635  16.657  1.00  0.00     0.006 C 
ENDBRANCH  19  20
ENDBRANCH   1  19
BRANCH   1  25
HETATM   25  C16 UNL     1       7.014  -3.806  14.769  1.00  0.00     0.002 C 
HETATM   26  C17 UNL     1       7.686  -3.269  16.041  1.00  0.00     0.033 C 
HETATM   27  C18 UNL     1       8.845  -2.380  15.760  1.00  0.00     0.015 C 
HETATM   28  C22 UNL     1       8.250  -4.454  16.787  1.00  0.00     0.015 C 
HETATM   29  C19 UNL     1       9.916  -3.125  14.967  1.00  0.00    -0.012 C 
HETATM   30  C20 UNL     1      10.431  -4.312  15.702  1.00  0.00     0.009 C 
HETATM   31  C27 UNL     1       9.226  -3.479  13.668  1.00  0.00     0.020 C 
HETATM   32  C21 UNL     1       9.234  -5.222  15.943  1.00  0.00    -0.012 C 
HETATM   33  C23 UNL     1       8.675  -5.592  14.600  1.00  0.00     0.020 C 
HETATM   34  C24 UNL     1       8.019  -4.406  13.908  1.00  0.00     0.001 C 
BRANCH  34  35
HETATM   35  C25 UNL     1       7.601  -4.903  12.548  1.00  0.00     0.041 C 
BRANCH  35  36
HETATM   36  C26 UNL     1       8.314  -6.141  12.092  1.00  0.00     0.165 C 
BRANCH  36  37
HETATM   37  O2  UNL     1       7.656  -6.592  10.913  1.00  0.00    -0.401 OA
ATOM     38  H2  UNL     1       8.192  -7.283  10.543  1.00  0.00     0.209 HD
ENDBRANCH  36  37
ENDBRANCH  35  36
ENDBRANCH  34  35
ENDBRANCH   1  25
TORSDOF 11
ENDMDL
MODEL 3
REMARK VINA RESULT: -9.046667968      1.732      2.532
REMARK  11 active torsions:
REMARK  status: ('A' for Active; 'I' for Inactive)
REMARK    1  A    between atoms: C2_2  and  C4_4 
REMARK    2  A    between atoms: C4_4  and  N1_5 
REMARK    3  A    between atoms: C4_4  and  C30_36 
REMARK       I    between atoms: N1_5  and  C5_7 
REMARK    4  A    between atoms: C5_7  and  C6_9 
REMARK    5  A    between atoms: C9_12  and  N2_13 
REMARK    6  A    between atoms: N2_13  and  C10_14 
REMARK    7  A    between atoms: N2_13  and  C16_20 
REMARK    8  A    between atoms: C10_14  and  C11_15 
REMARK    9  A    between atoms: C24_28  and  C25_29 
REMARK   10  A    between atoms: C25_29  and  C26_30 
REMARK   11  A    between atoms: C26_30  and  O2_31 
ROOT
HETATM    1  N2  UNL     1       6.121  -3.135  14.782  1.00  0.00    -0.359 N 
ENDROOT
BRANCH   1   2
HETATM    2  C9  UNL     1       5.628  -1.864  14.455  1.00  0.00    -0.011 C 
HETATM    3  C8  UNL     1       4.209  -2.010  13.799  1.00  0.00     0.053 C 
HETATM    4  C7  UNL     1       3.402  -0.825  14.090  1.00  0.00     0.020 C 
HETATM    5  C6  UNL     1       4.104   0.489  13.994  1.00  0.00     0.078 C 
HETATM    6  C29 UNL     1       5.560   0.504  14.262  1.00  0.00     0.020 C 
HETATM    7  C28 UNL     1       6.252  -0.769  13.754  1.00  0.00     0.053 C 
BRANCH   5   8
HETATM    8  C5  UNL     1       3.854   1.165  12.698  1.00  0.00     0.222 C 
HETATM    9  N1  UNL     1       2.548   1.301  12.108  1.00  0.00    -0.346 N 
ATOM     10  H1  UNL     1       1.705   0.930  12.546  1.00  0.00     0.163 HD
HETATM   11  O1  UNL     1       4.877   1.640  12.101  1.00  0.00    -0.273 OA
BRANCH   9  12
HETATM   12  C4  UNL     1       2.525   2.014  10.830  1.00  0.00     0.189 C 
BRANCH  12  13
HETATM   13  C2  UNL     1       1.495   1.310   9.969  1.00  0.00     0.010 C 
HETATM   14  C1  UNL     1       1.368   2.062   8.636  1.00  0.00     0.012 C 
HETATM   15  C3  UNL     1       1.902  -0.089   9.634  1.00  0.00     0.012 C 
ENDBRANCH  12  13
BRANCH  12  16
HETATM   16  C30 UNL     1       1.977   3.359  11.205  1.00  0.00     0.197 C 
HETATM   17  O3  UNL     1       2.724   4.376  11.027  1.00  0.00    -0.646 OA
HETATM   18  O4  UNL     1       0.714   3.511  11.711  1.00  0.00    -0.646 OA
ENDBRANCH  12  16
ENDBRANCH   9  12
ENDBRANCH   5   8
ENDBRANCH   1   2
BRANCH   1  19
HETATM   19  C10 UNL     1       5.191  -4.198  14.516  1.00  0.00     0.133 C 
BRANCH  19  20
HETATM   20  C11 UNL     1       4.564  -4.796  15.753  1.00  0.00     0.004 C 
HETATM   21  C12 UNL     1       3.264  -5.428  15.304  1.00  0.00     0.006 C 
HETATM   22  C13 UNL     1       2.273  -5.211  16.431  1.00  0.00     0.000 C 
HETATM   23  C14 UNL     1       2.919  -4.348  17.469  1.00  0.00     0.000 C 
HETATM   24  C15 UNL     1       4.087  -3.751  16.713  1.00  0.00     0.006 C 
ENDBRANCH  19  20
ENDBRANCH   1  19
BRANCH   1  25
HETATM   25  C16 UNL     1       7.470  -3.398  14.939  1.00  0.00     0.002 C 
HETATM   26  C17 UNL     1       8.192  -3.693  13.617  1.00  0.00     0.033 C 
HETATM   27  C18 UNL     1       8.432  -5.143  13.391  1.00  0.00     0.015 C 
HETATM   28  C22 UNL     1       9.560  -3.060  13.699  1.00  0.00     0.015 C 
HETATM   29  C19 UNL     1       9.290  -5.728  14.511  1.00  0.00    -0.012 C 
HETATM   30  C20 UNL     1      10.619  -5.064  14.602  1.00  0.00     0.009 C 
HETATM   31  C27 UNL     1       8.443  -5.544  15.751  1.00  0.00     0.020 C 
HETATM   32  C21 UNL     1      10.347  -3.590  14.870  1.00  0.00    -0.012 C 
HETATM   33  C23 UNL     1       9.585  -3.503  16.161  1.00  0.00     0.020 C 
HETATM   34  C24 UNL     1       8.172  -4.053  16.030  1.00  0.00     0.001 C 
BRANCH  34  35
HETATM   35  C25 UNL     1       7.576  -3.991  17.413  1.00  0.00     0.041 C 
BRANCH  35  36
HETATM   36  C26 UNL     1       7.984  -5.116  18.316  1.00  0.00     0.165 C 
BRANCH  36  37
HETATM   37  O2  UNL     1       7.100  -5.098  19.431  1.00  0.00    -0.401 OA
ATOM     38  H2  UNL     1       6.926  -6.002  19.663  1.00  0.00     0.209 HD
ENDBRANCH  36  37
ENDBRANCH  35  36
ENDBRANCH  34  35
ENDBRANCH   1  25
TORSDOF 11
ENDMDL
MODEL 4
REMARK VINA RESULT: -8.981986822      1.735      2.597
REMARK  11 active torsions:
REMARK  status: ('A' for Active; 'I' for Inactive)
REMARK    1  A    between atoms: C2_2  and  C4_4 
REMARK    2  A    between atoms: C4_4  and  N1_5 
REMARK    3  A    between atoms: C4_4  and  C30_36 
REMARK       I    between atoms: N1_5  and  C5_7 
REMARK    4  A    between atoms: C5_7  and  C6_9 
REMARK    5  A    between atoms: C9_12  and  N2_13 
REMARK    6  A    between atoms: N2_13  and  C10_14 
REMARK    7  A    between atoms: N2_13  and  C16_20 
REMARK    8  A    between atoms: C10_14  and  C11_15 
REMARK    9  A    between atoms: C24_28  and  C25_29 
REMARK   10  A    between atoms: C25_29  and  C26_30 
REMARK   11  A    between atoms: C26_30  and  O2_31 
ROOT
HETATM    1  N2  UNL     1       6.407  -3.268  15.522  1.00  0.00    -0.359 N 
ENDROOT
BRANCH   1   2
HETATM    2  C9  UNL     1       5.742  -2.104  15.111  1.00  0.00    -0.011 C 
HETATM    3  C8  UNL     1       4.422  -2.499  14.359  1.00  0.00     0.053 C 
HETATM    4  C7  UNL     1       3.414  -1.454  14.543  1.00  0.00     0.020 C 
HETATM    5  C6  UNL     1       3.899  -0.046  14.447  1.00  0.00     0.078 C 
HETATM    6  C29 UNL     1       5.308   0.215  14.820  1.00  0.00     0.020 C 
HETATM    7  C28 UNL     1       6.234  -0.941  14.414  1.00  0.00     0.053 C 
BRANCH   5   8
HETATM    8  C5  UNL     1       3.646   0.545  13.112  1.00  0.00     0.222 C 
HETATM    9  N1  UNL     1       2.361   1.033  12.686  1.00  0.00    -0.346 N 
ATOM     10  H1  UNL     1       1.533   0.996  13.282  1.00  0.00     0.163 HD
HETATM   11  O1  UNL     1       4.646   0.607  12.321  1.00  0.00    -0.273 OA
BRANCH   9  12
HETATM   12  C4  UNL     1       2.334   1.588  11.332  1.00  0.00     0.189 C 
BRANCH  12  13
HETATM   13  C2  UNL     1       1.280   0.807  10.573  1.00  0.00     0.010 C 
HETATM   14  C1  UNL     1       1.974  -0.043   9.498  1.00  0.00     0.012 C 
HETATM   15  C3  UNL     1       0.540  -0.146  11.457  1.00  0.00     0.012 C 
ENDBRANCH  12  13
BRANCH  12  16
HETATM   16  C30 UNL     1       1.814   2.979  11.549  1.00  0.00     0.197 C 
HETATM   17  O3  UNL     1       2.606   3.951  11.323  1.00  0.00    -0.646 OA
HETATM   18  O4  UNL     1       0.531   3.216  11.963  1.00  0.00    -0.646 OA
ENDBRANCH  12  16
ENDBRANCH   9  12
ENDBRANCH   5   8
ENDBRANCH   1   2
BRANCH   1  19
HETATM   19  C10 UNL     1       5.522  -4.353  15.841  1.00  0.00     0.133 C 
BRANCH  19  20
HETATM   20  C11 UNL     1       5.168  -4.453  17.306  1.00  0.00     0.004 C 
HETATM   21  C12 UNL     1       5.306  -5.914  17.676  1.00  0.00     0.006 C 
HETATM   22  C13 UNL     1       4.206  -6.206  18.678  1.00  0.00     0.000 C 
HETATM   23  C14 UNL     1       3.343  -4.990  18.799  1.00  0.00     0.000 C 
HETATM   24  C15 UNL     1       3.715  -4.203  17.560  1.00  0.00     0.006 C 
ENDBRANCH  19  20
ENDBRANCH   1  19
BRANCH   1  25
HETATM   25  C16 UNL     1       7.745  -3.501  15.255  1.00  0.00     0.002 C 
HETATM   26  C17 UNL     1       8.045  -3.688  13.760  1.00  0.00     0.033 C 
HETATM   27  C18 UNL     1       8.220  -5.112  13.371  1.00  0.00     0.015 C 
HETATM   28  C22 UNL     1       9.370  -3.021  13.480  1.00  0.00     0.015 C 
HETATM   29  C19 UNL     1       9.376  -5.744  14.143  1.00  0.00    -0.012 C 
HETATM   30  C20 UNL     1      10.666  -5.049  13.885  1.00  0.00     0.009 C 
HETATM   31  C27 UNL     1       8.933  -5.666  15.588  1.00  0.00     0.020 C 
HETATM   32  C21 UNL     1      10.473  -3.604  14.326  1.00  0.00    -0.012 C 
HETATM   33  C23 UNL     1      10.128  -3.624  15.787  1.00  0.00     0.020 C 
HETATM   34  C24 UNL     1       8.744  -4.205  16.040  1.00  0.00     0.001 C 
BRANCH  34  35
HETATM   35  C25 UNL     1       8.585  -4.251  17.537  1.00  0.00     0.041 C 
BRANCH  35  36
HETATM   36  C26 UNL     1       9.131  -5.490  18.183  1.00  0.00     0.165 C 
BRANCH  36  37
HETATM   37  O2  UNL     1      10.223  -5.086  19.003  1.00  0.00    -0.401 OA
ATOM     38  H2  UNL     1      11.007  -5.145  18.471  1.00  0.00     0.209 HD
ENDBRANCH  36  37
ENDBRANCH  35  36
ENDBRANCH  34  35
ENDBRANCH   1  25
TORSDOF 11
ENDMDL
MODEL 5
REMARK VINA RESULT: -8.970912634      1.832      2.676
REMARK  11 active torsions:
REMARK  status: ('A' for Active; 'I' for Inactive)
REMARK    1  A    between atoms: C2_2  and  C4_4 
REMARK    2  A    between atoms: C4_4  and  N1_5 
REMARK    3  A    between atoms: C4_4  and  C30_36 
REMARK       I    between atoms: N1_5  and  C5_7 
REMARK    4  A    between atoms: C5_7  and  C6_9 
REMARK    5  A    between atoms: C9_12  and  N2_13 
REMARK    6  A    between atoms: N2_13  and  C10_14 
REMARK    7  A    between atoms: N2_13  and  C16_20 
REMARK    8  A    between atoms: C10_14  and  C11_15 
REMARK    9  A    between atoms: C24_28  and  C25_29 
REMARK   10  A    between atoms: C25_29  and  C26_30 
REMARK   11  A    between atoms: C26_30  and  O2_31 
ROOT
HETATM    1  N2  UNL     1       5.790  -3.689  15.482  1.00  0.00    -0.359 N 
ENDROOT
BRANCH   1   2
HETATM    2  C9  UNL     1       5.436  -2.368  15.175  1.00  0.00    -0.011 C 
HETATM    3  C8  UNL     1       4.328  -2.372  14.063  1.00  0.00     0.053 C 
HETATM    4  C7  UNL     1       3.468  -1.198  14.214  1.00  0.00     0.020 C 
HETATM    5  C6  UNL     1       4.157   0.086  14.532  1.00  0.00     0.078 C 
HETATM    6  C29 UNL     1       5.433   0.007  15.279  1.00  0.00     0.020 C 
HETATM    7  C28 UNL     1       6.260  -1.223  14.875  1.00  0.00     0.053 C 
BRANCH   5   8
HETATM    8  C5  UNL     1       4.365   0.926  13.328  1.00  0.00     0.222 C 
HETATM    9  N1  UNL     1       5.662   1.251  12.796  1.00  0.00    -0.346 N 
ATOM     10  H1  UNL     1       6.530   0.927  13.225  1.00  0.00     0.163 HD
HETATM   11  O1  UNL     1       3.312   1.367  12.757  1.00  0.00    -0.273 OA
BRANCH   9  12
HETATM   12  C4  UNL     1       5.640   2.084  11.593  1.00  0.00     0.189 C 
BRANCH  12  13
HETATM   13  C2  UNL     1       7.040   2.643  11.436  1.00  0.00     0.010 C 
HETATM   14  C1  UNL     1       6.957   4.176  11.384  1.00  0.00     0.012 C 
HETATM   15  C3  UNL     1       7.915   2.302  12.600  1.00  0.00     0.012 C 
ENDBRANCH  12  13
BRANCH  12  16
HETATM   16  C30 UNL     1       5.413   1.086  10.497  1.00  0.00     0.197 C 
HETATM   17  O3  UNL     1       4.506   1.342   9.638  1.00  0.00    -0.646 OA
HETATM   18  O4  UNL     1       6.151  -0.062  10.399  1.00  0.00    -0.646 OA
ENDBRANCH  12  16
ENDBRANCH   9  12
ENDBRANCH   5   8
ENDBRANCH   1   2
BRANCH   1  19
HETATM   19  C10 UNL     1       4.664  -4.535  15.763  1.00  0.00     0.133 C 
BRANCH  19  20
HETATM   20  C11 UNL     1       4.710  -5.197  17.120  1.00  0.00     0.004 C 
HETATM   21  C12 UNL     1       3.970  -6.510  16.975  1.00  0.00     0.006 C 
HETATM   22  C13 UNL     1       3.234  -6.731  18.281  1.00  0.00     0.000 C 
HETATM   23  C14 UNL     1       3.412  -5.515  19.136  1.00  0.00     0.000 C 
HETATM   24  C15 UNL     1       3.874  -4.479  18.132  1.00  0.00     0.006 C 
ENDBRANCH  19  20
ENDBRANCH   1  19
BRANCH   1  25
HETATM   25  C16 UNL     1       7.018  -4.232  15.148  1.00  0.00     0.002 C 
HETATM   26  C17 UNL     1       8.054  -4.138  16.278  1.00  0.00     0.033 C 
HETATM   27  C18 UNL     1       9.033  -3.036  16.085  1.00  0.00     0.015 C 
HETATM   28  C22 UNL     1       8.862  -5.413  16.255  1.00  0.00     0.015 C 
HETATM   29  C19 UNL     1       9.807  -3.224  14.782  1.00  0.00    -0.012 C 
HETATM   30  C20 UNL     1      10.565  -4.504  14.763  1.00  0.00     0.009 C 
HETATM   31  C27 UNL     1       8.740  -3.145  13.712  1.00  0.00     0.020 C 
HETATM   32  C21 UNL     1       9.538  -5.617  14.924  1.00  0.00    -0.012 C 
HETATM   33  C23 UNL     1       8.581  -5.512  13.772  1.00  0.00     0.020 C 
HETATM   34  C24 UNL     1       7.703  -4.274  13.868  1.00  0.00     0.001 C 
BRANCH  34  35
HETATM   35  C25 UNL     1       6.878  -4.255  12.607  1.00  0.00     0.041 C 
BRANCH  35  36
HETATM   36  C26 UNL     1       7.248  -5.309  11.606  1.00  0.00     0.165 C 
BRANCH  36  37
HETATM   37  O2  UNL     1       6.400  -5.129  10.477  1.00  0.00    -0.401 OA
ATOM     38  H2  UNL     1       6.851  -5.501   9.728  1.00  0.00     0.209 HD
ENDBRANCH  36  37
ENDBRANCH  35  36
ENDBRANCH  34  35
ENDBRANCH   1  25
TORSDOF 11
ENDMDL
