MODEL 1
REMARK VINA RESULT: -9.078199129      0.000      0.000
REMARK  10 active torsions:
REMARK  status: ('A' for Active; 'I' for Inactive)
REMARK    1  A    between atoms: C2_2  and  C3_3 
REMARK    2  A    between atoms: C3_3  and  C4_4 
REMARK    3  A    between atoms: C4_4  and  C5_5 
REMARK    4  A    between atoms: C7_7  and  C8_8 
REMARK    5  A    between atoms: C17_17  and  C18_18 
REMARK    6  A    between atoms: C18_18  and  C20_20 
REMARK    7  A    between atoms: C20_20  and  C21_21 
REMARK    8  A    between atoms: C21_21  and  C22_22 
REMARK       I    between atoms: C22_22  and  N1_24 
REMARK    9  A    between atoms: N1_24  and  C23_26 
REMARK   10  A    between atoms: C23_26  and  C24_27 
ROOT
HETATM    1  C5  UNL     1       3.498  -0.096  13.225  1.00  0.00    -0.009 C 
HETATM    2  C6  UNL     1       3.852  -0.412  11.777  1.00  0.00     0.010 C 
HETATM    3  C7  UNL     1       5.350  -0.591  11.812  1.00  0.00    -0.006 C 
HETATM    4  C10 UNL     1       5.760  -0.599  13.242  1.00  0.00    -0.032 C 
HETATM    5  C11 UNL     1       6.134   0.810  13.656  1.00  0.00     0.016 C 
HETATM    6  C12 UNL     1       4.495  -0.940  13.978  1.00  0.00    -0.002 C 
HETATM    7  C13 UNL     1       4.188  -2.387  14.037  1.00  0.00     0.006 C 
HETATM    8  C14 UNL     1       5.361  -3.129  14.611  1.00  0.00     0.010 C 
HETATM    9  C15 UNL     1       6.604  -2.947  13.720  1.00  0.00    -0.036 C 
HETATM   10  C16 UNL     1       6.381  -3.830  12.544  1.00  0.00     0.016 C 
HETATM   11  C17 UNL     1       7.744  -3.524  14.553  1.00  0.00    -0.002 C 
HETATM   12  C28 UNL     1       8.103  -2.345  15.418  1.00  0.00     0.006 C 
HETATM   13  C29 UNL     1       7.726  -1.093  14.696  1.00  0.00     0.006 C 
HETATM   14  C30 UNL     1       6.903  -1.527  13.470  1.00  0.00     0.003 C 
ENDROOT
BRANCH  11  15
HETATM   15  C18 UNL     1       8.878  -4.081  13.800  1.00  0.00    -0.013 C 
HETATM   16  C19 UNL     1      10.175  -3.317  13.858  1.00  0.00     0.010 C 
BRANCH  15  17
HETATM   17  C20 UNL     1       9.183  -5.477  14.285  1.00  0.00     0.014 C 
BRANCH  17  18
HETATM   18  C21 UNL     1      10.128  -5.555  15.431  1.00  0.00     0.103 C 
BRANCH  18  19
HETATM   19  C22 UNL     1       9.397  -6.223  16.583  1.00  0.00     0.221 C 
HETATM   20  O1  UNL     1       9.433  -7.451  16.622  1.00  0.00    -0.273 OA
HETATM   21  N1  UNL     1       8.728  -5.440  17.531  1.00  0.00    -0.340 N 
ATOM     22  H1  UNL     1       8.786  -4.438  17.343  1.00  0.00     0.167 HD
BRANCH  21  23
HETATM   23  C23 UNL     1       7.990  -5.747  18.691  1.00  0.00     0.087 C 
BRANCH  23  24
HETATM   24  C24 UNL     1       6.521  -5.787  18.696  1.00  0.00     0.209 C 
HETATM   25  C25 UNL     1       6.127  -6.618  17.485  1.00  0.00     0.243 C 
HETATM   26  O2  UNL     1       5.612  -6.063  16.513  1.00  0.00    -0.272 OA
HETATM   27  N2  UNL     1       6.367  -7.993  17.520  1.00  0.00    -0.278 N 
HETATM   28  C26 UNL     1       6.403  -8.704  18.757  1.00  0.00     0.329 C 
ATOM     29  H2  UNL     1       6.519  -8.497  16.646  1.00  0.00     0.173 HD
HETATM   30  O3  UNL     1       6.617  -9.939  18.795  1.00  0.00    -0.247 OA
HETATM   31  N3  UNL     1       6.181  -7.930  19.922  1.00  0.00    -0.278 N 
HETATM   32  C27 UNL     1       5.936  -6.510  19.836  1.00  0.00     0.243 C 
ATOM     33  H3  UNL     1       6.193  -8.382  20.837  1.00  0.00     0.173 HD
HETATM   34  O4  UNL     1       5.237  -5.951  20.726  1.00  0.00    -0.272 OA
ENDBRANCH  23  24
ENDBRANCH  21  23
ENDBRANCH  18  19
ENDBRANCH  17  18
ENDBRANCH  15  17
ENDBRANCH  11  15
BRANCH   3  35
HETATM   35  C8  UNL     1       6.077   0.371  10.925  1.00  0.00     0.001 C 
HETATM   36  C9  UNL     1       5.078   1.173  10.082  1.00  0.00     0.005 C 
ENDBRANCH   3  35
BRANCH   1  37
HETATM   37  C4  UNL     1       2.080  -0.424  13.474  1.00  0.00     0.005 C 
BRANCH  37  38
HETATM   38  C3  UNL     1       1.186  -0.226  12.270  1.00  0.00     0.000 C 
BRANCH  38  39
HETATM   39  C2  UNL     1      -0.076   0.506  12.747  1.00  0.00    -0.005 C 
HETATM   40  C1  UNL     1      -0.348   1.718  11.918  1.00  0.00     0.005 C 
ENDBRANCH  38  39
ENDBRANCH  37  38
ENDBRANCH   1  37
TORSDOF 10
ENDMDL
MODEL 2
REMARK VINA RESULT: -9.053605634      1.182      1.686
REMARK  10 active torsions:
REMARK  status: ('A' for Active; 'I' for Inactive)
REMARK    1  A    between atoms: C2_2  and  C3_3 
REMARK    2  A    between atoms: C3_3  and  C4_4 
REMARK    3  A    between atoms: C4_4  and  C5_5 
REMARK    4  A    between atoms: C7_7  and  C8_8 
REMARK    5  A    between atoms: C17_17  and  C18_18 
REMARK    6  A    between atoms: C18_18  and  C20_20 
REMARK    7  A    between atoms: C20_20  and  C21_21 
REMARK    8  A    between atoms: C21_21  and  C22_22 
REMARK       I    between atoms: C22_22  and  N1_24 
REMARK    9  A    between atoms: N1_24  and  C23_26 
REMARK   10  A    between atoms: C23_26  and  C24_27 
ROOT
HETATM    1  C5  UNL     1       3.517  -0.144  13.285  1.00  0.00    -0.009 C 
HETATM    2  C6  UNL     1       3.877  -0.467  11.840  1.00  0.00     0.010 C 
HETATM    3  C7  UNL     1       5.370  -0.678  11.888  1.00  0.00    -0.006 C 
HETATM    4  C10 UNL     1       5.768  -0.697  13.321  1.00  0.00    -0.032 C 
HETATM    5  C11 UNL     1       6.168   0.704  13.741  1.00  0.00     0.016 C 
HETATM    6  C12 UNL     1       4.489  -1.010  14.046  1.00  0.00    -0.002 C 
HETATM    7  C13 UNL     1       4.149  -2.450  14.101  1.00  0.00     0.006 C 
HETATM    8  C14 UNL     1       5.301  -3.218  14.685  1.00  0.00     0.010 C 
HETATM    9  C15 UNL     1       6.555  -3.063  13.805  1.00  0.00    -0.036 C 
HETATM   10  C16 UNL     1       6.323  -3.940  12.626  1.00  0.00     0.016 C 
HETATM   11  C17 UNL     1       7.674  -3.666  14.647  1.00  0.00    -0.002 C 
HETATM   12  C28 UNL     1       8.051  -2.495  15.517  1.00  0.00     0.006 C 
HETATM   13  C29 UNL     1       7.709  -1.234  14.793  1.00  0.00     0.006 C 
HETATM   14  C30 UNL     1       6.887  -1.650  13.559  1.00  0.00     0.003 C 
ENDROOT
BRANCH  11  15
HETATM   15  C18 UNL     1       8.803  -4.247  13.904  1.00  0.00    -0.013 C 
HETATM   16  C19 UNL     1      10.131  -3.546  14.025  1.00  0.00     0.010 C 
BRANCH  15  17
HETATM   17  C20 UNL     1       9.030  -5.672  14.344  1.00  0.00     0.014 C 
BRANCH  17  18
HETATM   18  C21 UNL     1       9.880  -5.831  15.555  1.00  0.00     0.103 C 
BRANCH  18  19
HETATM   19  C22 UNL     1       9.187  -6.823  16.474  1.00  0.00     0.221 C 
HETATM   20  O1  UNL     1       9.906  -7.630  17.058  1.00  0.00    -0.273 OA
HETATM   21  N1  UNL     1       7.795  -6.782  16.619  1.00  0.00    -0.340 N 
ATOM     22  H1  UNL     1       7.350  -6.059  16.054  1.00  0.00     0.167 HD
BRANCH  21  23
HETATM   23  C23 UNL     1       6.881  -7.533  17.384  1.00  0.00     0.087 C 
BRANCH  23  24
HETATM   24  C24 UNL     1       6.763  -7.374  18.841  1.00  0.00     0.209 C 
HETATM   25  C25 UNL     1       6.757  -5.874  19.092  1.00  0.00     0.243 C 
HETATM   26  O2  UNL     1       7.739  -5.345  19.615  1.00  0.00    -0.272 OA
HETATM   27  N2  UNL     1       5.626  -5.146  18.716  1.00  0.00    -0.278 N 
HETATM   28  C26 UNL     1       4.337  -5.758  18.667  1.00  0.00     0.329 C 
ATOM     29  H2  UNL     1       5.723  -4.160  18.474  1.00  0.00     0.173 HD
HETATM   30  O3  UNL     1       3.318  -5.109  18.331  1.00  0.00    -0.247 OA
HETATM   31  N3  UNL     1       4.289  -7.128  19.020  1.00  0.00    -0.278 N 
HETATM   32  C27 UNL     1       5.486  -7.840  19.402  1.00  0.00     0.243 C 
ATOM     33  H3  UNL     1       3.396  -7.621  19.004  1.00  0.00     0.173 HD
HETATM   34  O4  UNL     1       5.393  -8.818  20.194  1.00  0.00    -0.272 OA
ENDBRANCH  23  24
ENDBRANCH  21  23
ENDBRANCH  18  19
ENDBRANCH  17  18
ENDBRANCH  15  17
ENDBRANCH  11  15
BRANCH   3  35
HETATM   35  C8  UNL     1       6.126   0.268  11.009  1.00  0.00     0.001 C 
HETATM   36  C9  UNL     1       5.152   1.105  10.170  1.00  0.00     0.005 C 
ENDBRANCH   3  35
BRANCH   1  37
HETATM   37  C4  UNL     1       2.090  -0.441  13.521  1.00  0.00     0.005 C 
BRANCH  37  38
HETATM   38  C3  UNL     1       1.219  -0.265  12.297  1.00  0.00     0.000 C 
BRANCH  38  39
HETATM   39  C2  UNL     1      -0.059   0.461  12.739  1.00  0.00    -0.005 C 
HETATM   40  C1  UNL     1      -0.268   1.718  11.960  1.00  0.00     0.005 C 
ENDBRANCH  38  39
ENDBRANCH  37  38
ENDBRANCH   1  37
TORSDOF 10
ENDMDL
MODEL 3
REMARK VINA RESULT: -9.016948743      1.133      1.639
REMARK  10 active torsions:
REMARK  status: ('A' for Active; 'I' for Inactive)
REMARK    1  A    between atoms: C2_2  and  C3_3 
REMARK    2  A    between atoms: C3_3  and  C4_4 
REMARK    3  A    between atoms: C4_4  and  C5_5 
REMARK    4  A    between atoms: C7_7  and  C8_8 
REMARK    5  A    between atoms: C17_17  and  C18_18 
REMARK    6  A    between atoms: C18_18  and  C20_20 
REMARK    7  A    between atoms: C20_20  and  C21_21 
REMARK    8  A    between atoms: C21_21  and  C22_22 
REMARK       I    between atoms: C22_22  and  N1_24 
REMARK    9  A    between atoms: N1_24  and  C23_26 
REMARK   10  A    between atoms: C23_26  and  C24_27 
ROOT
HETATM    1  C5  UNL     1       3.189   0.085  12.976  1.00  0.00    -0.009 C 
HETATM    2  C6  UNL     1       3.492  -0.234  11.517  1.00  0.00     0.010 C 
HETATM    3  C7  UNL     1       4.993  -0.374  11.492  1.00  0.00    -0.006 C 
HETATM    4  C10 UNL     1       5.462  -0.360  12.903  1.00  0.00    -0.032 C 
HETATM    5  C11 UNL     1       5.816   1.061  13.293  1.00  0.00     0.016 C 
HETATM    6  C12 UNL     1       4.237  -0.728  13.693  1.00  0.00    -0.002 C 
HETATM    7  C13 UNL     1       3.970  -2.181  13.775  1.00  0.00     0.006 C 
HETATM    8  C14 UNL     1       5.184  -2.889  14.305  1.00  0.00     0.010 C 
HETATM    9  C15 UNL     1       6.384  -2.683  13.363  1.00  0.00    -0.036 C 
HETATM   10  C16 UNL     1       6.137  -3.580  12.202  1.00  0.00     0.016 C 
HETATM   11  C17 UNL     1       7.572  -3.224  14.151  1.00  0.00    -0.002 C 
HETATM   12  C28 UNL     1       7.936  -2.029  14.994  1.00  0.00     0.006 C 
HETATM   13  C29 UNL     1       7.497  -0.793  14.279  1.00  0.00     0.006 C 
HETATM   14  C30 UNL     1       6.636  -1.257  13.091  1.00  0.00     0.003 C 
ENDROOT
BRANCH  11  15
HETATM   15  C18 UNL     1       8.688  -3.758  13.356  1.00  0.00    -0.013 C 
HETATM   16  C19 UNL     1      10.078  -3.355  13.777  1.00  0.00     0.010 C 
BRANCH  15  17
HETATM   17  C20 UNL     1       8.658  -5.266  13.373  1.00  0.00     0.014 C 
BRANCH  17  18
HETATM   18  C21 UNL     1       9.743  -5.911  14.161  1.00  0.00     0.103 C 
BRANCH  18  19
HETATM   19  C22 UNL     1       9.108  -6.526  15.397  1.00  0.00     0.221 C 
HETATM   20  O1  UNL     1       9.583  -7.589  15.790  1.00  0.00    -0.273 OA
HETATM   21  N1  UNL     1       8.037  -5.879  16.025  1.00  0.00    -0.340 N 
ATOM     22  H1  UNL     1       7.760  -5.013  15.562  1.00  0.00     0.167 HD
BRANCH  21  23
HETATM   23  C23 UNL     1       7.264  -6.175  17.164  1.00  0.00     0.087 C 
BRANCH  23  24
HETATM   24  C24 UNL     1       7.677  -5.776  18.517  1.00  0.00     0.209 C 
HETATM   25  C25 UNL     1       6.875  -6.652  19.467  1.00  0.00     0.243 C 
HETATM   26  O2  UNL     1       5.970  -6.148  20.135  1.00  0.00    -0.272 OA
HETATM   27  N2  UNL     1       7.198  -8.007  19.549  1.00  0.00    -0.278 N 
HETATM   28  C26 UNL     1       8.520  -8.469  19.269  1.00  0.00     0.329 C 
ATOM     29  H2  UNL     1       6.478  -8.679  19.813  1.00  0.00     0.173 HD
HETATM   30  O3  UNL     1       8.816  -9.685  19.341  1.00  0.00    -0.247 OA
HETATM   31  N3  UNL     1       9.460  -7.472  18.911  1.00  0.00    -0.278 N 
HETATM   32  C27 UNL     1       9.079  -6.082  18.840  1.00  0.00     0.243 C 
ATOM     33  H3  UNL     1      10.422  -7.741  18.699  1.00  0.00     0.173 HD
HETATM   34  O4  UNL     1       9.950  -5.194  19.058  1.00  0.00    -0.272 OA
ENDBRANCH  23  24
ENDBRANCH  21  23
ENDBRANCH  18  19
ENDBRANCH  17  18
ENDBRANCH  15  17
ENDBRANCH  11  15
BRANCH   3  35
HETATM   35  C8  UNL     1       5.659   0.599  10.569  1.00  0.00     0.001 C 
HETATM   36  C9  UNL     1       4.614   1.520   9.927  1.00  0.00     0.005 C 
ENDBRANCH   3  35
BRANCH   1  37
HETATM   37  C4  UNL     1       1.791  -0.277  13.285  1.00  0.00     0.005 C 
BRANCH  37  38
HETATM   38  C3  UNL     1       0.841  -0.096  12.122  1.00  0.00     0.000 C 
BRANCH  38  39
HETATM   39  C2  UNL     1      -0.195   0.960  12.531  1.00  0.00    -0.005 C 
HETATM   40  C1  UNL     1       0.028   2.249  11.810  1.00  0.00     0.005 C 
ENDBRANCH  38  39
ENDBRANCH  37  38
ENDBRANCH   1  37
TORSDOF 10
ENDMDL
MODEL 4
REMARK VINA RESULT: -8.987111033      5.504      9.762
REMARK  10 active torsions:
REMARK  status: ('A' for Active; 'I' for Inactive)
REMARK    1  A    between atoms: C2_2  and  C3_3 
REMARK    2  A    between atoms: C3_3  and  C4_4 
REMARK    3  A    between atoms: C4_4  and  C5_5 
REMARK    4  A    between atoms: C7_7  and  C8_8 
REMARK    5  A    between atoms: C17_17  and  C18_18 
REMARK    6  A    between atoms: C18_18  and  C20_20 
REMARK    7  A    between atoms: C20_20  and  C21_21 
REMARK    8  A    between atoms: C21_21  and  C22_22 
REMARK       I    between atoms: C22_22  and  N1_24 
REMARK    9  A    between atoms: N1_24  and  C23_26 
REMARK   10  A    between atoms: C23_26  and  C24_27 
ROOT
HETATM    1  C5  UNL     1       7.887  -2.877  16.170  1.00  0.00    -0.009 C 
HETATM    2  C6  UNL     1       7.158  -4.131  15.701  1.00  0.00     0.010 C 
HETATM    3  C7  UNL     1       5.759  -3.640  15.422  1.00  0.00    -0.006 C 
HETATM    4  C10 UNL     1       5.785  -2.156  15.512  1.00  0.00    -0.032 C 
HETATM    5  C11 UNL     1       5.418  -1.741  16.923  1.00  0.00     0.016 C 
HETATM    6  C12 UNL     1       7.236  -1.809  15.329  1.00  0.00    -0.002 C 
HETATM    7  C13 UNL     1       7.681  -1.750  13.918  1.00  0.00     0.006 C 
HETATM    8  C14 UNL     1       6.801  -0.807  13.150  1.00  0.00     0.010 C 
HETATM    9  C15 UNL     1       5.341  -1.297  13.163  1.00  0.00    -0.036 C 
HETATM   10  C16 UNL     1       5.294  -2.427  12.196  1.00  0.00     0.016 C 
HETATM   11  C17 UNL     1       4.552  -0.127  12.584  1.00  0.00    -0.002 C 
HETATM   12  C28 UNL     1       4.352   0.728  13.808  1.00  0.00     0.006 C 
HETATM   13  C29 UNL     1       4.383  -0.153  15.014  1.00  0.00     0.006 C 
HETATM   14  C30 UNL     1       4.851  -1.538  14.530  1.00  0.00     0.003 C 
ENDROOT
BRANCH  11  15
HETATM   15  C18 UNL     1       3.306  -0.471  11.883  1.00  0.00    -0.013 C 
HETATM   16  C19 UNL     1       2.021   0.024  12.496  1.00  0.00     0.010 C 
BRANCH  15  17
HETATM   17  C20 UNL     1       3.342   0.067  10.474  1.00  0.00     0.014 C 
BRANCH  17  18
HETATM   18  C21 UNL     1       2.622   1.353  10.271  1.00  0.00     0.103 C 
BRANCH  18  19
HETATM   19  C22 UNL     1       3.669   2.448  10.142  1.00  0.00     0.221 C 
HETATM   20  O1  UNL     1       3.771   3.227  11.087  1.00  0.00    -0.273 OA
HETATM   21  N1  UNL     1       4.455   2.527   8.987  1.00  0.00    -0.340 N 
ATOM     22  H1  UNL     1       4.232   1.810   8.295  1.00  0.00     0.167 HD
BRANCH  21  23
HETATM   23  C23 UNL     1       5.491   3.390   8.580  1.00  0.00     0.087 C 
BRANCH  23  24
HETATM   24  C24 UNL     1       6.870   2.921   8.383  1.00  0.00     0.209 C 
HETATM   25  C25 UNL     1       7.750   3.896   9.149  1.00  0.00     0.243 C 
HETATM   26  O2  UNL     1       8.459   4.688   8.525  1.00  0.00    -0.272 OA
HETATM   27  N2  UNL     1       7.721   3.858  10.544  1.00  0.00    -0.278 N 
HETATM   28  C26 UNL     1       7.400   2.654  11.242  1.00  0.00     0.329 C 
ATOM     29  H2  UNL     1       7.934   4.703  11.073  1.00  0.00     0.173 HD
HETATM   30  O3  UNL     1       7.373   2.613  12.495  1.00  0.00    -0.247 OA
HETATM   31  N3  UNL     1       7.119   1.526  10.433  1.00  0.00    -0.278 N 
HETATM   32  C27 UNL     1       7.161   1.615   8.993  1.00  0.00     0.243 C 
ATOM     33  H3  UNL     1       6.883   0.637  10.875  1.00  0.00     0.173 HD
HETATM   34  O4  UNL     1       7.447   0.585   8.322  1.00  0.00    -0.272 OA
ENDBRANCH  23  24
ENDBRANCH  21  23
ENDBRANCH  18  19
ENDBRANCH  17  18
ENDBRANCH  15  17
ENDBRANCH  11  15
BRANCH   3  35
HETATM   35  C8  UNL     1       4.718  -4.331  16.247  1.00  0.00     0.001 C 
HETATM   36  C9  UNL     1       3.608  -4.884  15.345  1.00  0.00     0.005 C 
ENDBRANCH   3  35
BRANCH   1  37
HETATM   37  C4  UNL     1       9.340  -3.041  15.966  1.00  0.00     0.005 C 
BRANCH  37  38
HETATM   38  C3  UNL     1       9.782  -4.483  15.849  1.00  0.00     0.000 C 
BRANCH  38  39
HETATM   39  C2  UNL     1      10.551  -4.624  14.528  1.00  0.00    -0.005 C 
HETATM   40  C1  UNL     1      10.939  -3.290  13.979  1.00  0.00     0.005 C 
ENDBRANCH  38  39
ENDBRANCH  37  38
ENDBRANCH   1  37
TORSDOF 10
ENDMDL
MODEL 5
REMARK VINA RESULT: -8.946451448      5.306      9.731
REMARK  10 active torsions:
REMARK  status: ('A' for Active; 'I' for Inactive)
REMARK    1  A    between atoms: C2_2  and  C3_3 
REMARK    2  A    between atoms: C3_3  and  C4_4 
REMARK    3  A    between atoms: C4_4  and  C5_5 
REMARK    4  A    between atoms: C7_7  and  C8_8 
REMARK    5  A    between atoms: C17_17  and  C18_18 
REMARK    6  A    between atoms: C18_18  and  C20_20 
REMARK    7  A    between atoms: C20_20  and  C21_21 
REMARK    8  A    between atoms: C21_21  and  C22_22 
REMARK       I    between atoms: C22_22  and  N1_24 
REMARK    9  A    between atoms: N1_24  and  C23_26 
REMARK   10  A    between atoms: C23_26  and  C24_27 
ROOT
HETATM    1  C5  UNL     1       8.267  -3.936  15.802  1.00  0.00    -0.009 C 
HETATM    2  C6  UNL     1       7.404  -5.011  15.151  1.00  0.00     0.010 C 
HETATM    3  C7  UNL     1       6.029  -4.392  15.129  1.00  0.00    -0.006 C 
HETATM    4  C10 UNL     1       6.178  -2.969  15.534  1.00  0.00    -0.032 C 
HETATM    5  C11 UNL     1       5.969  -2.857  17.031  1.00  0.00     0.016 C 
HETATM    6  C12 UNL     1       7.630  -2.672  15.282  1.00  0.00    -0.002 C 
HETATM    7  C13 UNL     1       7.953  -2.328  13.879  1.00  0.00     0.006 C 
HETATM    8  C14 UNL     1       7.084  -1.189  13.426  1.00  0.00     0.010 C 
HETATM    9  C15 UNL     1       5.598  -1.587  13.483  1.00  0.00    -0.036 C 
HETATM   10  C16 UNL     1       5.379  -2.469  12.306  1.00  0.00     0.016 C 
HETATM   11  C17 UNL     1       4.855  -0.275  13.254  1.00  0.00    -0.002 C 
HETATM   12  C28 UNL     1       4.829   0.297  14.647  1.00  0.00     0.006 C 
HETATM   13  C29 UNL     1       4.898  -0.830  15.625  1.00  0.00     0.006 C 
HETATM   14  C30 UNL     1       5.212  -2.097  14.809  1.00  0.00     0.003 C 
ENDROOT
BRANCH  11  15
HETATM   15  C18 UNL     1       3.528  -0.384  12.627  1.00  0.00    -0.013 C 
HETATM   16  C19 UNL     1       2.333  -0.191  13.524  1.00  0.00     0.010 C 
BRANCH  15  17
HETATM   17  C20 UNL     1       3.398   0.631  11.518  1.00  0.00     0.014 C 
BRANCH  17  18
HETATM   18  C21 UNL     1       2.550   1.811  11.839  1.00  0.00     0.103 C 
BRANCH  18  19
HETATM   19  C22 UNL     1       3.288   3.050  11.359  1.00  0.00     0.221 C 
HETATM   20  O1  UNL     1       2.597   4.006  11.017  1.00  0.00    -0.273 OA
HETATM   21  N1  UNL     1       4.688   3.057  11.326  1.00  0.00    -0.340 N 
ATOM     22  H1  UNL     1       5.104   2.177  11.633  1.00  0.00     0.167 HD
BRANCH  21  23
HETATM   23  C23 UNL     1       5.640   4.027  10.958  1.00  0.00     0.087 C 
BRANCH  23  24
HETATM   24  C24 UNL     1       7.075   3.857  11.227  1.00  0.00     0.209 C 
HETATM   25  C25 UNL     1       7.235   2.428  11.722  1.00  0.00     0.243 C 
HETATM   26  O2  UNL     1       7.496   2.224  12.909  1.00  0.00    -0.272 OA
HETATM   27  N2  UNL     1       7.077   1.389  10.803  1.00  0.00    -0.278 N 
HETATM   28  C26 UNL     1       7.350   1.584   9.415  1.00  0.00     0.329 C 
ATOM     29  H2  UNL     1       6.763   0.475  11.129  1.00  0.00     0.173 HD
HETATM   30  O3  UNL     1       7.211   0.655   8.585  1.00  0.00    -0.247 OA
HETATM   31  N3  UNL     1       7.782   2.881   9.046  1.00  0.00    -0.278 N 
HETATM   32  C27 UNL     1       7.931   3.924  10.033  1.00  0.00     0.243 C 
ATOM     33  H3  UNL     1       7.993   3.082   8.068  1.00  0.00     0.173 HD
HETATM   34  O4  UNL     1       8.779   4.839   9.839  1.00  0.00    -0.272 OA
ENDBRANCH  23  24
ENDBRANCH  21  23
ENDBRANCH  18  19
ENDBRANCH  17  18
ENDBRANCH  15  17
ENDBRANCH  11  15
BRANCH   3  35
HETATM   35  C8  UNL     1       5.014  -5.189  15.888  1.00  0.00     0.001 C 
HETATM   36  C9  UNL     1       3.651  -5.112  15.190  1.00  0.00     0.005 C 
ENDBRANCH   3  35
BRANCH   1  37
HETATM   37  C4  UNL     1       9.680  -4.132  15.420  1.00  0.00     0.005 C 
BRANCH  37  38
HETATM   38  C3  UNL     1      10.663  -3.792  16.519  1.00  0.00     0.000 C 
BRANCH  38  39
HETATM   39  C2  UNL     1      10.336  -4.684  17.724  1.00  0.00    -0.005 C 
HETATM   40  C1  UNL     1      11.019  -6.008  17.622  1.00  0.00     0.005 C 
ENDBRANCH  38  39
ENDBRANCH  37  38
ENDBRANCH   1  37
TORSDOF 10
ENDMDL
