MODEL 1
REMARK VINA RESULT: -8.450841985      0.000      0.000
REMARK  12 active torsions:
REMARK  status: ('A' for Active; 'I' for Inactive)
REMARK    1  A    between atoms: C2_2  and  C4_4 
REMARK    2  A    between atoms: C4_4  and  C5_5 
REMARK    3  A    between atoms: C5_5  and  N1_6 
REMARK    4  A    between atoms: C5_5  and  C19_23 
REMARK       I    between atoms: N1_6  and  C6_8 
REMARK       I    between atoms: C6_8  and  N2_10 
REMARK    5  A    between atoms: C10_14  and  C11_15 
REMARK    6  A    between atoms: C11_15  and  C12_16 
REMARK    7  A    between atoms: C12_16  and  C13_17 
REMARK       I    between atoms: C19_23  and  N3_25 
REMARK    8  A    between atoms: N3_25  and  C20_27 
REMARK    9  A    between atoms: C20_27  and  C21_28 
REMARK   10  A    between atoms: C20_27  and  C24_31 
REMARK   11  A    between atoms: C24_31  and  O3_32 
REMARK   12  A    between atoms: C24_31  and  C25_34 
ROOT
HETATM    1  C5  UNL     1       6.874  -1.964  15.447  1.00  0.00     0.178 C 
ENDROOT
BRANCH   1   2
HETATM    2  C4  UNL     1       8.319  -1.968  15.633  1.00  0.00     0.038 C 
BRANCH   2   3
HETATM    3  C2  UNL     1       9.179  -3.068  15.213  1.00  0.00    -0.020 C 
HETATM    4  C1  UNL     1      10.497  -2.917  16.018  1.00  0.00     0.009 C 
HETATM    5  C3  UNL     1       9.600  -3.171  13.788  1.00  0.00     0.009 C 
ENDBRANCH   2   3
ENDBRANCH   1   2
BRANCH   1   6
HETATM    6  N1  UNL     1       6.451  -1.305  14.243  1.00  0.00    -0.330 N 
HETATM    7  C6  UNL     1       5.322  -0.474  14.097  1.00  0.00     0.319 C 
HETATM    8  O1  UNL     1       4.546  -0.237  15.085  1.00  0.00    -0.247 OA
HETATM    9  N2  UNL     1       5.027   0.110  12.863  1.00  0.00    -0.330 N 
HETATM   10  C7  UNL     1       5.774   0.003  11.635  1.00  0.00     0.128 C 
HETATM   11  C10 UNL     1       3.869   0.950  12.573  1.00  0.00     0.089 C 
HETATM   12  C8  UNL     1       5.266   1.098  10.716  1.00  0.00     0.022 C 
HETATM   13  C9  UNL     1       4.445   1.985  11.643  1.00  0.00     0.027 C 
ATOM     14  H1  UNL     1       7.024  -1.453  13.412  1.00  0.00     0.165 HD
BRANCH  11  15
HETATM   15  C11 UNL     1       2.853   0.092  11.872  1.00  0.00     0.026 C 
BRANCH  15  16
HETATM   16  C12 UNL     1       1.550   0.153  12.612  1.00  0.00     0.007 C 
BRANCH  16  17
HETATM   17  C13 UNL     1       0.481   0.492  11.580  1.00  0.00    -0.010 C 
HETATM   18  C14 UNL     1       1.148   1.048  10.301  1.00  0.00     0.009 C 
HETATM   19  C15 UNL     1       0.478   2.383  10.243  1.00  0.00    -0.013 C 
HETATM   20  C16 UNL     1      -0.969   2.038  10.611  1.00  0.00     0.009 C 
HETATM   21  C18 UNL     1       0.594   2.845  11.698  1.00  0.00     0.009 C 
HETATM   22  C17 UNL     1      -0.334   1.679  11.965  1.00  0.00    -0.010 C 
ENDBRANCH  16  17
ENDBRANCH  15  16
ENDBRANCH  11  15
ENDBRANCH   1   6
BRANCH   1  23
HETATM   23  C19 UNL     1       6.144  -3.225  15.688  1.00  0.00     0.240 C 
HETATM   24  O2  UNL     1       5.968  -4.089  14.765  1.00  0.00    -0.271 OA
HETATM   25  N3  UNL     1       5.616  -3.518  16.947  1.00  0.00    -0.352 N 
ATOM     26  H3  UNL     1       5.749  -2.848  17.704  1.00  0.00     0.163 HD
BRANCH  25  27
HETATM   27  C20 UNL     1       4.875  -4.761  17.222  1.00  0.00     0.116 C 
BRANCH  27  28
HETATM   28  C21 UNL     1       3.912  -4.465  18.293  1.00  0.00     0.003 C 
HETATM   29  C22 UNL     1       3.444  -5.817  18.870  1.00  0.00     0.011 C 
HETATM   30  C23 UNL     1       2.702  -3.695  17.899  1.00  0.00     0.011 C 
ENDBRANCH  27  28
BRANCH  27  31
HETATM   31  C24 UNL     1       5.856  -5.881  17.473  1.00  0.00     0.145 C 
BRANCH  31  32
HETATM   32  O3  UNL     1       6.034  -6.754  16.437  1.00  0.00    -0.393 OA
ATOM     33  H3  UNL     1       6.420  -6.385  15.651  1.00  0.00     0.210 HD
ENDBRANCH  31  32
BRANCH  31  34
HETATM   34  C25 UNL     1       7.122  -5.526  18.142  1.00  0.00     0.016 C 
HETATM   35  C26 UNL     1       7.221  -6.450  19.375  1.00  0.00     0.007 C 
HETATM   36  C27 UNL     1       8.033  -7.682  19.046  1.00  0.00     0.000 C 
HETATM   37  C28 UNL     1       9.489  -7.253  19.075  1.00  0.00     0.000 C 
HETATM   38  C29 UNL     1       9.543  -5.907  18.394  1.00  0.00     0.000 C 
HETATM   39  C30 UNL     1       8.390  -5.715  17.395  1.00  0.00     0.007 C 
ENDBRANCH  31  34
ENDBRANCH  27  31
ENDBRANCH  25  27
ENDBRANCH   1  23
TORSDOF 12
ENDMDL
MODEL 2
REMARK VINA RESULT: -8.447292274      0.994      1.135
REMARK  12 active torsions:
REMARK  status: ('A' for Active; 'I' for Inactive)
REMARK    1  A    between atoms: C2_2  and  C4_4 
REMARK    2  A    between atoms: C4_4  and  C5_5 
REMARK    3  A    between atoms: C5_5  and  N1_6 
REMARK    4  A    between atoms: C5_5  and  C19_23 
REMARK       I    between atoms: N1_6  and  C6_8 
REMARK       I    between atoms: C6_8  and  N2_10 
REMARK    5  A    between atoms: C10_14  and  C11_15 
REMARK    6  A    between atoms: C11_15  and  C12_16 
REMARK    7  A    between atoms: C12_16  and  C13_17 
REMARK       I    between atoms: C19_23  and  N3_25 
REMARK    8  A    between atoms: N3_25  and  C20_27 
REMARK    9  A    between atoms: C20_27  and  C21_28 
REMARK   10  A    between atoms: C20_27  and  C24_31 
REMARK   11  A    between atoms: C24_31  and  O3_32 
REMARK   12  A    between atoms: C24_31  and  C25_34 
ROOT
HETATM    1  C5  UNL     1       7.485  -2.549  14.187  1.00  0.00     0.178 C 
ENDROOT
BRANCH   1   2
HETATM    2  C4  UNL     1       8.910  -2.713  13.933  1.00  0.00     0.038 C 
BRANCH   2   3
HETATM    3  C2  UNL     1       9.745  -3.678  14.639  1.00  0.00    -0.020 C 
HETATM    4  C1  UNL     1      10.259  -2.954  15.912  1.00  0.00     0.009 C 
HETATM    5  C3  UNL     1      10.965  -4.220  13.978  1.00  0.00     0.009 C 
ENDBRANCH   2   3
ENDBRANCH   1   2
BRANCH   1   6
HETATM    6  N1  UNL     1       6.826  -1.701  13.235  1.00  0.00    -0.330 N 
HETATM    7  C6  UNL     1       5.672  -0.925  13.464  1.00  0.00     0.319 C 
HETATM    8  O1  UNL     1       5.094  -0.925  14.604  1.00  0.00    -0.247 OA
HETATM    9  N2  UNL     1       5.132  -0.137  12.445  1.00  0.00    -0.330 N 
HETATM   10  C7  UNL     1       5.634   0.033  11.104  1.00  0.00     0.128 C 
HETATM   11  C10 UNL     1       3.922   0.674  12.543  1.00  0.00     0.089 C 
HETATM   12  C8  UNL     1       4.934   1.251  10.527  1.00  0.00     0.022 C 
HETATM   13  C9  UNL     1       4.287   1.897  11.744  1.00  0.00     0.027 C 
ATOM     14  H1  UNL     1       7.232  -1.655  12.300  1.00  0.00     0.165 HD
BRANCH  11  15
HETATM   15  C11 UNL     1       2.810  -0.095  11.885  1.00  0.00     0.026 C 
BRANCH  15  16
HETATM   16  C12 UNL     1       1.538   0.109  12.654  1.00  0.00     0.007 C 
BRANCH  16  17
HETATM   17  C13 UNL     1       0.464   0.453  11.630  1.00  0.00    -0.010 C 
HETATM   18  C14 UNL     1       1.126   0.963  10.330  1.00  0.00     0.009 C 
HETATM   19  C15 UNL     1       0.490   2.314  10.252  1.00  0.00    -0.013 C 
HETATM   20  C16 UNL     1      -0.960   2.015  10.646  1.00  0.00     0.009 C 
HETATM   21  C18 UNL     1       0.639   2.804  11.693  1.00  0.00     0.009 C 
HETATM   22  C17 UNL     1      -0.315   1.669  11.999  1.00  0.00    -0.010 C 
ENDBRANCH  16  17
ENDBRANCH  15  16
ENDBRANCH  11  15
ENDBRANCH   1   6
BRANCH   1  23
HETATM   23  C19 UNL     1       6.698  -3.757  14.509  1.00  0.00     0.240 C 
HETATM   24  O2  UNL     1       6.510  -4.687  13.655  1.00  0.00    -0.271 OA
HETATM   25  N3  UNL     1       6.129  -3.925  15.773  1.00  0.00    -0.352 N 
ATOM     26  H3  UNL     1       6.270  -3.201  16.476  1.00  0.00     0.163 HD
BRANCH  25  27
HETATM   27  C20 UNL     1       5.331  -5.112  16.127  1.00  0.00     0.116 C 
BRANCH  27  28
HETATM   28  C21 UNL     1       4.050  -4.630  16.664  1.00  0.00     0.003 C 
HETATM   29  C22 UNL     1       3.035  -4.647  15.504  1.00  0.00     0.011 C 
HETATM   30  C23 UNL     1       4.052  -3.261  17.248  1.00  0.00     0.011 C 
ENDBRANCH  27  28
BRANCH  27  31
HETATM   31  C24 UNL     1       6.150  -6.016  17.016  1.00  0.00     0.145 C 
BRANCH  31  32
HETATM   32  O3  UNL     1       5.945  -7.356  16.845  1.00  0.00    -0.393 OA
ATOM     33  H3  UNL     1       6.711  -7.906  16.960  1.00  0.00     0.210 HD
ENDBRANCH  31  32
BRANCH  31  34
HETATM   34  C25 UNL     1       7.575  -5.676  17.187  1.00  0.00     0.016 C 
HETATM   35  C26 UNL     1       7.834  -5.698  18.709  1.00  0.00     0.007 C 
HETATM   36  C27 UNL     1       8.365  -7.048  19.134  1.00  0.00     0.000 C 
HETATM   37  C28 UNL     1       9.832  -7.071  18.742  1.00  0.00     0.000 C 
HETATM   38  C29 UNL     1       9.910  -6.441  17.372  1.00  0.00     0.000 C 
HETATM   39  C30 UNL     1       8.591  -6.580  16.594  1.00  0.00     0.007 C 
ENDBRANCH  31  34
ENDBRANCH  27  31
ENDBRANCH  25  27
ENDBRANCH   1  23
TORSDOF 12
ENDMDL
MODEL 3
REMARK VINA RESULT: -8.295286075      1.143      1.671
REMARK  12 active torsions:
REMARK  status: ('A' for Active; 'I' for Inactive)
REMARK    1  A    between atoms: C2_2  and  C4_4 
REMARK    2  A    between atoms: C4_4  and  C5_5 
REMARK    3  A    between atoms: C5_5  and  N1_6 
REMARK    4  A    between atoms: C5_5  and  C19_23 
REMARK       I    between atoms: N1_6  and  C6_8 
REMARK       I    between atoms: C6_8  and  N2_10 
REMARK    5  A    between atoms: C10_14  and  C11_15 
REMARK    6  A    between atoms: C11_15  and  C12_16 
REMARK    7  A    between atoms: C12_16  and  C13_17 
REMARK       I    between atoms: C19_23  and  N3_25 
REMARK    8  A    between atoms: N3_25  and  C20_27 
REMARK    9  A    between atoms: C20_27  and  C21_28 
REMARK   10  A    between atoms: C20_27  and  C24_31 
REMARK   11  A    between atoms: C24_31  and  O3_32 
REMARK   12  A    between atoms: C24_31  and  C25_34 
ROOT
HETATM    1  C5  UNL     1       6.630  -1.644  14.507  1.00  0.00     0.178 C 
ENDROOT
BRANCH   1   2
HETATM    2  C4  UNL     1       8.031  -1.710  14.898  1.00  0.00     0.038 C 
BRANCH   2   3
HETATM    3  C2  UNL     1       8.797  -2.951  14.933  1.00  0.00    -0.020 C 
HETATM    4  C1  UNL     1       9.908  -2.743  15.997  1.00  0.00     0.009 C 
HETATM    5  C3  UNL     1       9.509  -3.412  13.709  1.00  0.00     0.009 C 
ENDBRANCH   2   3
ENDBRANCH   1   2
BRANCH   1   6
HETATM    6  N1  UNL     1       6.410  -0.936  13.278  1.00  0.00    -0.330 N 
HETATM    7  C6  UNL     1       5.571   0.182  13.095  1.00  0.00     0.319 C 
HETATM    8  O1  UNL     1       4.905   0.672  14.069  1.00  0.00    -0.247 OA
HETATM    9  N2  UNL     1       5.450   0.780  11.838  1.00  0.00    -0.330 N 
HETATM   10  C7  UNL     1       6.125   0.413  10.619  1.00  0.00     0.128 C 
HETATM   11  C10 UNL     1       4.585   1.910  11.511  1.00  0.00     0.089 C 
HETATM   12  C8  UNL     1       5.952   1.574   9.657  1.00  0.00     0.022 C 
HETATM   13  C9  UNL     1       5.432   2.696  10.545  1.00  0.00     0.027 C 
ATOM     14  H1  UNL     1       6.909  -1.276  12.455  1.00  0.00     0.165 HD
BRANCH  11  15
HETATM   15  C11 UNL     1       3.359   1.360  10.839  1.00  0.00     0.026 C 
BRANCH  15  16
HETATM   16  C12 UNL     1       2.151   2.122  11.298  1.00  0.00     0.007 C 
BRANCH  16  17
HETATM   17  C13 UNL     1       0.966   1.172  11.177  1.00  0.00    -0.010 C 
HETATM   18  C14 UNL     1      -0.103   1.535  12.232  1.00  0.00     0.009 C 
HETATM   19  C15 UNL     1      -0.169   0.232  12.963  1.00  0.00    -0.013 C 
HETATM   20  C16 UNL     1      -0.123  -0.786  11.819  1.00  0.00     0.009 C 
HETATM   21  C18 UNL     1       1.315  -0.096  13.134  1.00  0.00     0.009 C 
HETATM   22  C17 UNL     1       1.291  -0.212  11.626  1.00  0.00    -0.010 C 
ENDBRANCH  16  17
ENDBRANCH  15  16
ENDBRANCH  11  15
ENDBRANCH   1   6
BRANCH   1  23
HETATM   23  C19 UNL     1       5.828  -2.881  14.600  1.00  0.00     0.240 C 
HETATM   24  O2  UNL     1       5.505  -3.553  13.564  1.00  0.00    -0.271 OA
HETATM   25  N3  UNL     1       5.394  -3.363  15.836  1.00  0.00    -0.352 N 
ATOM     26  H3  UNL     1       5.645  -2.848  16.680  1.00  0.00     0.163 HD
BRANCH  25  27
HETATM   27  C20 UNL     1       4.585  -4.588  15.965  1.00  0.00     0.116 C 
BRANCH  27  28
HETATM   28  C21 UNL     1       3.265  -4.185  16.471  1.00  0.00     0.003 C 
HETATM   29  C22 UNL     1       3.396  -4.015  17.999  1.00  0.00     0.011 C 
HETATM   30  C23 UNL     1       2.143  -5.127  16.213  1.00  0.00     0.011 C 
ENDBRANCH  27  28
BRANCH  27  31
HETATM   31  C24 UNL     1       5.349  -5.605  16.778  1.00  0.00     0.145 C 
BRANCH  31  32
HETATM   32  O3  UNL     1       5.223  -6.903  16.370  1.00  0.00    -0.393 OA
ATOM     33  H3  UNL     1       5.349  -7.055  15.441  1.00  0.00     0.210 HD
ENDBRANCH  31  32
BRANCH  31  34
HETATM   34  C25 UNL     1       6.734  -5.260  17.154  1.00  0.00     0.016 C 
HETATM   35  C26 UNL     1       6.796  -5.383  18.692  1.00  0.00     0.007 C 
HETATM   36  C27 UNL     1       7.296  -6.752  19.091  1.00  0.00     0.000 C 
HETATM   37  C28 UNL     1       8.801  -6.731  18.892  1.00  0.00     0.000 C 
HETATM   38  C29 UNL     1       9.041  -6.008  17.589  1.00  0.00     0.000 C 
HETATM   39  C30 UNL     1       7.836  -6.109  16.639  1.00  0.00     0.007 C 
ENDBRANCH  31  34
ENDBRANCH  27  31
ENDBRANCH  25  27
ENDBRANCH   1  23
TORSDOF 12
ENDMDL
MODEL 4
REMARK VINA RESULT: -8.259759379      1.815      8.633
REMARK  12 active torsions:
REMARK  status: ('A' for Active; 'I' for Inactive)
REMARK    1  A    between atoms: C2_2  and  C4_4 
REMARK    2  A    between atoms: C4_4  and  C5_5 
REMARK    3  A    between atoms: C5_5  and  N1_6 
REMARK    4  A    between atoms: C5_5  and  C19_23 
REMARK       I    between atoms: N1_6  and  C6_8 
REMARK       I    between atoms: C6_8  and  N2_10 
REMARK    5  A    between atoms: C10_14  and  C11_15 
REMARK    6  A    between atoms: C11_15  and  C12_16 
REMARK    7  A    between atoms: C12_16  and  C13_17 
REMARK       I    between atoms: C19_23  and  N3_25 
REMARK    8  A    between atoms: N3_25  and  C20_27 
REMARK    9  A    between atoms: C20_27  and  C21_28 
REMARK   10  A    between atoms: C20_27  and  C24_31 
REMARK   11  A    between atoms: C24_31  and  O3_32 
REMARK   12  A    between atoms: C24_31  and  C25_34 
ROOT
HETATM    1  C5  UNL     1       3.341  -1.254  14.788  1.00  0.00     0.178 C 
ENDROOT
BRANCH   1   2
HETATM    2  C4  UNL     1       2.531  -1.088  13.588  1.00  0.00     0.038 C 
BRANCH   2   3
HETATM    3  C2  UNL     1       1.942   0.185  13.188  1.00  0.00    -0.020 C 
HETATM    4  C1  UNL     1       0.505  -0.139  12.700  1.00  0.00     0.009 C 
HETATM    5  C3  UNL     1       2.563   0.969  12.083  1.00  0.00     0.009 C 
ENDBRANCH   2   3
ENDBRANCH   1   2
BRANCH   1   6
HETATM    6  N1  UNL     1       3.405  -2.611  15.254  1.00  0.00    -0.330 N 
HETATM    7  C6  UNL     1       4.253  -3.109  16.264  1.00  0.00     0.319 C 
HETATM    8  O1  UNL     1       5.076  -2.342  16.870  1.00  0.00    -0.247 OA
HETATM    9  N2  UNL     1       4.211  -4.458  16.624  1.00  0.00    -0.330 N 
HETATM   10  C7  UNL     1       3.347  -5.485  16.095  1.00  0.00     0.128 C 
HETATM   11  C10 UNL     1       5.063  -5.102  17.618  1.00  0.00     0.089 C 
HETATM   12  C8  UNL     1       3.424  -6.657  17.056  1.00  0.00     0.022 C 
HETATM   13  C9  UNL     1       4.115  -6.069  18.278  1.00  0.00     0.027 C 
ATOM     14  H1  UNL     1       2.776  -3.280  14.810  1.00  0.00     0.165 HD
BRANCH  11  15
HETATM   15  C11 UNL     1       6.153  -5.826  16.878  1.00  0.00     0.026 C 
BRANCH  15  16
HETATM   16  C12 UNL     1       7.137  -6.388  17.860  1.00  0.00     0.007 C 
BRANCH  16  17
HETATM   17  C13 UNL     1       8.521  -5.988  17.363  1.00  0.00    -0.010 C 
HETATM   18  C14 UNL     1       9.242  -7.223  16.775  1.00  0.00     0.009 C 
HETATM   19  C15 UNL     1      10.450  -7.236  17.656  1.00  0.00    -0.013 C 
HETATM   20  C16 UNL     1      10.809  -5.749  17.739  1.00  0.00     0.009 C 
HETATM   21  C18 UNL     1       9.823  -7.022  19.035  1.00  0.00     0.009 C 
HETATM   22  C17 UNL     1       9.461  -5.665  18.474  1.00  0.00    -0.010 C 
ENDBRANCH  16  17
ENDBRANCH  15  16
ENDBRANCH  11  15
ENDBRANCH   1   6
BRANCH   1  23
HETATM   23  C19 UNL     1       4.652  -0.576  14.835  1.00  0.00     0.240 C 
HETATM   24  O2  UNL     1       4.824   0.513  15.477  1.00  0.00    -0.271 OA
HETATM   25  N3  UNL     1       5.759  -1.110  14.173  1.00  0.00    -0.352 N 
ATOM     26  H3  UNL     1       5.650  -1.984  13.659  1.00  0.00     0.163 HD
BRANCH  25  27
HETATM   27  C20 UNL     1       7.079  -0.457  14.191  1.00  0.00     0.116 C 
BRANCH  27  28
HETATM   28  C21 UNL     1       7.309   0.095  12.848  1.00  0.00     0.003 C 
HETATM   29  C22 UNL     1       7.530   1.612  13.012  1.00  0.00     0.011 C 
HETATM   30  C23 UNL     1       6.218  -0.103  11.857  1.00  0.00     0.011 C 
ENDBRANCH  27  28
BRANCH  27  31
HETATM   31  C24 UNL     1       8.109  -1.427  14.719  1.00  0.00     0.145 C 
BRANCH  31  32
HETATM   32  O3  UNL     1       8.002  -1.739  16.045  1.00  0.00    -0.393 OA
ATOM     33  H3  UNL     1       8.541  -2.463  16.341  1.00  0.00     0.210 HD
ENDBRANCH  31  32
BRANCH  31  34
HETATM   34  C25 UNL     1       8.412  -2.604  13.881  1.00  0.00     0.016 C 
HETATM   35  C26 UNL     1       9.943  -2.595  13.682  1.00  0.00     0.007 C 
HETATM   36  C27 UNL     1      10.613  -3.473  14.714  1.00  0.00     0.000 C 
HETATM   37  C28 UNL     1      10.419  -4.905  14.247  1.00  0.00     0.000 C 
HETATM   38  C29 UNL     1       8.997  -4.993  13.748  1.00  0.00     0.000 C 
HETATM   39  C30 UNL     1       8.083  -3.950  14.411  1.00  0.00     0.007 C 
ENDBRANCH  31  34
ENDBRANCH  27  31
ENDBRANCH  25  27
ENDBRANCH   1  23
TORSDOF 12
ENDMDL
MODEL 5
REMARK VINA RESULT: -8.211590238      2.479      9.109
REMARK  12 active torsions:
REMARK  status: ('A' for Active; 'I' for Inactive)
REMARK    1  A    between atoms: C2_2  and  C4_4 
REMARK    2  A    between atoms: C4_4  and  C5_5 
REMARK    3  A    between atoms: C5_5  and  N1_6 
REMARK    4  A    between atoms: C5_5  and  C19_23 
REMARK       I    between atoms: N1_6  and  C6_8 
REMARK       I    between atoms: C6_8  and  N2_10 
REMARK    5  A    between atoms: C10_14  and  C11_15 
REMARK    6  A    between atoms: C11_15  and  C12_16 
REMARK    7  A    between atoms: C12_16  and  C13_17 
REMARK       I    between atoms: C19_23  and  N3_25 
REMARK    8  A    between atoms: N3_25  and  C20_27 
REMARK    9  A    between atoms: C20_27  and  C21_28 
REMARK   10  A    between atoms: C20_27  and  C24_31 
REMARK   11  A    between atoms: C24_31  and  O3_32 
REMARK   12  A    between atoms: C24_31  and  C25_34 
ROOT
HETATM    1  C5  UNL     1       4.847  -5.541  16.768  1.00  0.00     0.178 C 
ENDROOT
BRANCH   1   2
HETATM    2  C4  UNL     1       3.608  -6.308  16.749  1.00  0.00     0.038 C 
BRANCH   2   3
HETATM    3  C2  UNL     1       2.868  -6.665  17.954  1.00  0.00    -0.020 C 
HETATM    4  C1  UNL     1       3.316  -5.661  19.049  1.00  0.00     0.009 C 
HETATM    5  C3  UNL     1       3.051  -8.013  18.560  1.00  0.00     0.009 C 
ENDBRANCH   2   3
ENDBRANCH   1   2
BRANCH   1   6
HETATM    6  N1  UNL     1       6.019  -6.347  16.962  1.00  0.00    -0.330 N 
HETATM    7  C6  UNL     1       7.155  -6.001  17.721  1.00  0.00     0.319 C 
HETATM    8  O1  UNL     1       7.229  -4.875  18.322  1.00  0.00    -0.247 OA
HETATM    9  N2  UNL     1       8.231  -6.885  17.830  1.00  0.00    -0.330 N 
HETATM   10  C7  UNL     1       8.348  -8.206  17.264  1.00  0.00     0.128 C 
HETATM   11  C10 UNL     1       9.477  -6.628  18.546  1.00  0.00     0.089 C 
HETATM   12  C8  UNL     1       9.508  -8.884  17.971  1.00  0.00     0.022 C 
HETATM   13  C9  UNL     1       9.782  -7.970  19.157  1.00  0.00     0.027 C 
ATOM     14  H1  UNL     1       6.030  -7.260  16.507  1.00  0.00     0.165 HD
BRANCH  11  15
HETATM   15  C11 UNL     1      10.513  -6.246  17.525  1.00  0.00     0.026 C 
BRANCH  15  16
HETATM   16  C12 UNL     1      10.008  -5.095  16.707  1.00  0.00     0.007 C 
BRANCH  16  17
HETATM   17  C13 UNL     1      10.417  -5.376  15.266  1.00  0.00    -0.010 C 
HETATM   18  C14 UNL     1      10.306  -4.081  14.430  1.00  0.00     0.009 C 
HETATM   19  C15 UNL     1       9.335  -4.548  13.393  1.00  0.00    -0.013 C 
HETATM   20  C16 UNL     1       9.843  -5.960  13.084  1.00  0.00     0.009 C 
HETATM   21  C18 UNL     1       8.289  -5.259  14.255  1.00  0.00     0.009 C 
HETATM   22  C17 UNL     1       9.424  -6.219  14.541  1.00  0.00    -0.010 C 
ENDBRANCH  16  17
ENDBRANCH  15  16
ENDBRANCH  11  15
ENDBRANCH   1   6
BRANCH   1  23
HETATM   23  C19 UNL     1       5.035  -4.510  15.728  1.00  0.00     0.240 C 
HETATM   24  O2  UNL     1       4.794  -4.743  14.496  1.00  0.00    -0.271 OA
HETATM   25  N3  UNL     1       5.487  -3.231  16.060  1.00  0.00    -0.352 N 
ATOM     26  H3  UNL     1       5.680  -3.017  17.038  1.00  0.00     0.163 HD
BRANCH  25  27
HETATM   27  C20 UNL     1       5.695  -2.181  15.048  1.00  0.00     0.116 C 
BRANCH  27  28
HETATM   28  C21 UNL     1       6.980  -1.534  15.352  1.00  0.00     0.003 C 
HETATM   29  C22 UNL     1       7.767  -1.443  14.029  1.00  0.00     0.011 C 
HETATM   30  C23 UNL     1       7.844  -2.218  16.350  1.00  0.00     0.011 C 
ENDBRANCH  27  28
BRANCH  27  31
HETATM   31  C24 UNL     1       4.476  -1.291  14.996  1.00  0.00     0.145 C 
BRANCH  31  32
HETATM   32  O3  UNL     1       4.527  -0.173  15.778  1.00  0.00    -0.393 OA
ATOM     33  H3  UNL     1       4.026   0.571  15.465  1.00  0.00     0.210 HD
ENDBRANCH  31  32
BRANCH  31  34
HETATM   34  C25 UNL     1       3.895  -1.028  13.665  1.00  0.00     0.016 C 
HETATM   35  C26 UNL     1       3.984   0.499  13.461  1.00  0.00     0.007 C 
HETATM   36  C27 UNL     1       5.242   0.857  12.703  1.00  0.00     0.000 C 
HETATM   37  C28 UNL     1       4.967   0.536  11.244  1.00  0.00     0.000 C 
HETATM   38  C29 UNL     1       4.232  -0.782  11.237  1.00  0.00     0.000 C 
HETATM   39  C30 UNL     1       4.550  -1.632  12.478  1.00  0.00     0.007 C 
ENDBRANCH  31  34
ENDBRANCH  27  31
ENDBRANCH  25  27
ENDBRANCH   1  23
TORSDOF 12
ENDMDL
