MODEL 1
REMARK VINA RESULT: -7.627714596      0.000      0.000
REMARK  11 active torsions:
REMARK  status: ('A' for Active; 'I' for Inactive)
REMARK    1  A    between atoms: C2_2  and  C4_4 
REMARK    2  A    between atoms: C4_4  and  C5_5 
REMARK    3  A    between atoms: C5_5  and  C6_6 
REMARK    4  A    between atoms: C6_6  and  N1_7 
REMARK    5  A    between atoms: N2_10  and  C9_11 
REMARK    6  A    between atoms: C9_11  and  C10_12 
REMARK    7  A    between atoms: C10_12  and  N3_13 
REMARK    8  A    between atoms: N3_13  and  C11_15 
REMARK    9  A    between atoms: C11_15  and  C12_16 
REMARK   10  A    between atoms: C12_16  and  N4_17 
REMARK   11  A    between atoms: N4_17  and  C13_18 
ROOT
HETATM    1  C13 UNL     1       5.600  -2.162  13.743  1.00  0.00     0.133 A 
HETATM    2  C14 UNL     1       6.195  -0.884  13.479  1.00  0.00     0.033 A 
HETATM    3  C15 UNL     1       6.653  -0.531  12.251  1.00  0.00     0.025 A 
HETATM    4  C16 UNL     1       7.193   0.715  11.983  1.00  0.00    -0.051 A 
HETATM    5  C17 UNL     1       7.259   1.648  13.039  1.00  0.00    -0.050 A 
HETATM    6  C18 UNL     1       6.807   1.302  14.270  1.00  0.00     0.038 A 
HETATM    7  C19 UNL     1       6.263   0.026  14.499  1.00  0.00     0.048 A 
HETATM    8  N5  UNL     1       5.812  -0.213  15.722  1.00  0.00    -0.341 N 
ATOM      9  H5  UNL     1       5.887   0.494  16.453  1.00  0.00     0.167 HD
HETATM   10  C20 UNL     1       5.246  -1.423  15.980  1.00  0.00     0.120 A 
HETATM   11  N6  UNL     1       4.694  -1.901  17.103  1.00  0.00    -0.341 N 
ATOM     12  H6  UNL     1       4.644  -1.392  17.986  1.00  0.00     0.167 HD
HETATM   13  C21 UNL     1       4.217  -3.132  16.914  1.00  0.00     0.045 A 
HETATM   14  C22 UNL     1       3.536  -4.016  17.724  1.00  0.00     0.030 A 
HETATM   15  C23 UNL     1       3.106  -5.240  17.241  1.00  0.00     0.002 A 
HETATM   16  C24 UNL     1       3.356  -5.581  15.952  1.00  0.00     0.001 A 
HETATM   17  C25 UNL     1       4.033  -4.716  15.119  1.00  0.00     0.015 A 
HETATM   18  C26 UNL     1       4.458  -3.504  15.590  1.00  0.00     0.008 A 
HETATM   19  C27 UNL     1       5.126  -2.399  15.012  1.00  0.00     0.062 A 
HETATM   20  C28 UNL     1       7.865   2.908  12.505  1.00  0.00     0.039 C 
HETATM   21  C29 UNL     1       7.349   2.839  11.081  1.00  0.00     0.009 C 
HETATM   22  C30 UNL     1       7.737   1.395  10.738  1.00  0.00     0.039 C 
ENDROOT
BRANCH   1  23
HETATM   23  N4  UNL     1       5.605  -2.939  12.837  1.00  0.00    -0.415 NA
BRANCH  23  24
HETATM   24  C12 UNL     1       5.701  -3.821  11.821  1.00  0.00     0.199 C 
BRANCH  24  25
HETATM   25  C11 UNL     1       6.933  -4.716  11.782  1.00  0.00     0.115 C 
BRANCH  25  26
HETATM   26  N3  UNL     1       7.411  -5.316  12.926  1.00  0.00    -0.395 N 
ATOM     27  H3  UNL     1       6.798  -5.828  13.560  1.00  0.00     0.159 HD
BRANCH  26  28
HETATM   28  C10 UNL     1       8.862  -5.180  13.187  1.00  0.00     0.149 C 
BRANCH  28  29
HETATM   29  C9  UNL     1       9.128  -3.743  13.544  1.00  0.00     0.292 C 
BRANCH  29  30
HETATM   30  N2  UNL     1       9.669  -3.618  14.854  1.00  0.00     0.093 N 
HETATM   31  C8  UNL     1       9.831  -4.958  15.458  1.00  0.00     0.302 C 
HETATM   32  C7  UNL     1      10.255  -4.749  16.883  1.00  0.00     0.302 C 
HETATM   33  N1  UNL     1       9.076  -4.356  17.646  1.00  0.00     0.091 N 
HETATM   34  C32 UNL     1       8.151  -3.632  16.798  1.00  0.00     0.302 C 
HETATM   35  C31 UNL     1       8.836  -2.825  15.740  1.00  0.00     0.302 C 
BRANCH  33  36
HETATM   36  C6  UNL     1       8.459  -5.478  18.307  1.00  0.00     0.273 C 
BRANCH  36  37
HETATM   37  C5  UNL     1       7.001  -5.530  18.041  1.00  0.00     0.034 C 
BRANCH  37  38
HETATM   38  C4  UNL     1       6.484  -6.805  17.471  1.00  0.00     0.034 C 
BRANCH  38  39
HETATM   39  C2  UNL     1       5.652  -7.697  18.236  1.00  0.00    -0.093 C 
HETATM   40  C1  UNL     1       5.714  -7.830  19.566  1.00  0.00     0.014 C 
HETATM   41  C3  UNL     1       4.716  -8.667  17.562  1.00  0.00     0.042 C 
ENDBRANCH  38  39
ENDBRANCH  37  38
ENDBRANCH  36  37
ENDBRANCH  33  36
ENDBRANCH  29  30
ENDBRANCH  28  29
ENDBRANCH  26  28
ENDBRANCH  25  26
ENDBRANCH  24  25
ENDBRANCH  23  24
ENDBRANCH   1  23
TORSDOF 11
ENDMDL
MODEL 2
REMARK VINA RESULT: -7.575334944      1.715      5.409
REMARK  11 active torsions:
REMARK  status: ('A' for Active; 'I' for Inactive)
REMARK    1  A    between atoms: C2_2  and  C4_4 
REMARK    2  A    between atoms: C4_4  and  C5_5 
REMARK    3  A    between atoms: C5_5  and  C6_6 
REMARK    4  A    between atoms: C6_6  and  N1_7 
REMARK    5  A    between atoms: N2_10  and  C9_11 
REMARK    6  A    between atoms: C9_11  and  C10_12 
REMARK    7  A    between atoms: C10_12  and  N3_13 
REMARK    8  A    between atoms: N3_13  and  C11_15 
REMARK    9  A    between atoms: C11_15  and  C12_16 
REMARK   10  A    between atoms: C12_16  and  N4_17 
REMARK   11  A    between atoms: N4_17  and  C13_18 
ROOT
HETATM    1  C13 UNL     1       4.887  -3.495  14.199  1.00  0.00     0.133 A 
HETATM    2  C14 UNL     1       4.364  -4.298  15.266  1.00  0.00     0.033 A 
HETATM    3  C15 UNL     1       4.787  -5.566  15.501  1.00  0.00     0.025 A 
HETATM    4  C16 UNL     1       4.313  -6.331  16.552  1.00  0.00    -0.051 A 
HETATM    5  C17 UNL     1       3.353  -5.753  17.410  1.00  0.00    -0.050 A 
HETATM    6  C18 UNL     1       2.922  -4.488  17.180  1.00  0.00     0.038 A 
HETATM    7  C19 UNL     1       3.431  -3.744  16.102  1.00  0.00     0.048 A 
HETATM    8  N5  UNL     1       2.981  -2.504  15.975  1.00  0.00    -0.341 N 
ATOM      9  H5  UNL     1       2.282  -2.134  16.619  1.00  0.00     0.167 HD
HETATM   10  C20 UNL     1       3.473  -1.736  14.965  1.00  0.00     0.120 A 
HETATM   11  N6  UNL     1       3.213  -0.463  14.639  1.00  0.00    -0.341 N 
ATOM     12  H6  UNL     1       2.545   0.135  15.124  1.00  0.00     0.167 HD
HETATM   13  C21 UNL     1       3.947  -0.080  13.593  1.00  0.00     0.045 A 
HETATM   14  C22 UNL     1       4.077   1.116  12.918  1.00  0.00     0.030 A 
HETATM   15  C23 UNL     1       4.975   1.250  11.871  1.00  0.00     0.002 A 
HETATM   16  C24 UNL     1       5.737   0.192  11.499  1.00  0.00     0.001 A 
HETATM   17  C25 UNL     1       5.629  -1.015  12.157  1.00  0.00     0.015 A 
HETATM   18  C26 UNL     1       4.747  -1.151  13.193  1.00  0.00     0.008 A 
HETATM   19  C27 UNL     1       4.422  -2.205  14.079  1.00  0.00     0.062 A 
HETATM   20  C28 UNL     1       3.008  -6.761  18.461  1.00  0.00     0.039 C 
HETATM   21  C29 UNL     1       4.345  -7.469  18.566  1.00  0.00     0.009 C 
HETATM   22  C30 UNL     1       4.616  -7.724  17.077  1.00  0.00     0.039 C 
ENDROOT
BRANCH   1  23
HETATM   23  N4  UNL     1       5.661  -4.034  13.469  1.00  0.00    -0.415 NA
BRANCH  23  24
HETATM   24  C12 UNL     1       6.595  -4.578  12.662  1.00  0.00     0.199 C 
BRANCH  24  25
HETATM   25  C11 UNL     1       7.720  -5.365  13.323  1.00  0.00     0.115 C 
BRANCH  25  26
HETATM   26  N3  UNL     1       8.996  -5.353  12.806  1.00  0.00    -0.395 N 
ATOM     27  H3  UNL     1       9.167  -5.347  11.801  1.00  0.00     0.159 HD
BRANCH  26  28
HETATM   28  C10 UNL     1      10.106  -5.347  13.785  1.00  0.00     0.149 C 
BRANCH  28  29
HETATM   29  C9  UNL     1      10.357  -3.919  14.183  1.00  0.00     0.292 C 
BRANCH  29  30
HETATM   30  N2  UNL     1      10.194  -3.726  15.583  1.00  0.00     0.093 N 
HETATM   31  C8  UNL     1      10.075  -5.037  16.257  1.00  0.00     0.302 C 
HETATM   32  C7  UNL     1       9.752  -4.762  17.698  1.00  0.00     0.302 C 
HETATM   33  N1  UNL     1       8.342  -4.398  17.777  1.00  0.00     0.091 N 
HETATM   34  C32 UNL     1       7.926  -3.744  16.552  1.00  0.00     0.302 C 
HETATM   35  C31 UNL     1       9.018  -2.943  15.917  1.00  0.00     0.302 C 
BRANCH  33  36
HETATM   36  C6  UNL     1       7.509  -5.524  18.114  1.00  0.00     0.273 C 
BRANCH  36  37
HETATM   37  C5  UNL     1       8.187  -6.435  19.067  1.00  0.00     0.034 C 
BRANCH  37  38
HETATM   38  C4  UNL     1       7.949  -7.891  18.865  1.00  0.00     0.034 C 
BRANCH  38  39
HETATM   39  C2  UNL     1       8.876  -8.718  18.137  1.00  0.00    -0.093 C 
HETATM   40  C1  UNL     1      10.161  -8.407  17.931  1.00  0.00     0.014 C 
HETATM   41  C3  UNL     1       8.420  -9.965  17.424  1.00  0.00     0.042 C 
ENDBRANCH  38  39
ENDBRANCH  37  38
ENDBRANCH  36  37
ENDBRANCH  33  36
ENDBRANCH  29  30
ENDBRANCH  28  29
ENDBRANCH  26  28
ENDBRANCH  25  26
ENDBRANCH  24  25
ENDBRANCH  23  24
ENDBRANCH   1  23
TORSDOF 11
ENDMDL
MODEL 3
REMARK VINA RESULT: -7.538743504      2.926      5.175
REMARK  11 active torsions:
REMARK  status: ('A' for Active; 'I' for Inactive)
REMARK    1  A    between atoms: C2_2  and  C4_4 
REMARK    2  A    between atoms: C4_4  and  C5_5 
REMARK    3  A    between atoms: C5_5  and  C6_6 
REMARK    4  A    between atoms: C6_6  and  N1_7 
REMARK    5  A    between atoms: N2_10  and  C9_11 
REMARK    6  A    between atoms: C9_11  and  C10_12 
REMARK    7  A    between atoms: C10_12  and  N3_13 
REMARK    8  A    between atoms: N3_13  and  C11_15 
REMARK    9  A    between atoms: C11_15  and  C12_16 
REMARK   10  A    between atoms: C12_16  and  N4_17 
REMARK   11  A    between atoms: N4_17  and  C13_18 
ROOT
HETATM    1  C13 UNL     1       4.227  -1.658  14.566  1.00  0.00     0.133 A 
HETATM    2  C14 UNL     1       3.416  -0.889  13.665  1.00  0.00     0.033 A 
HETATM    3  C15 UNL     1       2.061  -0.875  13.733  1.00  0.00     0.025 A 
HETATM    4  C16 UNL     1       1.277  -0.105  12.891  1.00  0.00    -0.051 A 
HETATM    5  C17 UNL     1       1.929   0.696  11.931  1.00  0.00    -0.050 A 
HETATM    6  C18 UNL     1       3.283   0.685  11.854  1.00  0.00     0.038 A 
HETATM    7  C19 UNL     1       4.042  -0.109  12.730  1.00  0.00     0.048 A 
HETATM    8  N5  UNL     1       5.360  -0.030  12.608  1.00  0.00    -0.341 N 
ATOM      9  H5  UNL     1       5.782   0.562  11.894  1.00  0.00     0.167 HD
HETATM   10  C20 UNL     1       6.134  -0.756  13.459  1.00  0.00     0.120 A 
HETATM   11  N6  UNL     1       7.468  -0.831  13.568  1.00  0.00    -0.341 N 
ATOM     12  H6  UNL     1       8.126  -0.337  12.966  1.00  0.00     0.167 HD
HETATM   13  C21 UNL     1       7.819  -1.638  14.569  1.00  0.00     0.045 A 
HETATM   14  C22 UNL     1       9.037  -2.004  15.104  1.00  0.00     0.030 A 
HETATM   15  C23 UNL     1       9.110  -2.842  16.205  1.00  0.00     0.002 A 
HETATM   16  C24 UNL     1       7.970  -3.313  16.768  1.00  0.00     0.001 A 
HETATM   17  C25 UNL     1       6.739  -2.961  16.256  1.00  0.00     0.015 A 
HETATM   18  C26 UNL     1       6.662  -2.133  15.171  1.00  0.00     0.008 A 
HETATM   19  C27 UNL     1       5.593  -1.562  14.440  1.00  0.00     0.062 A 
HETATM   20  C28 UNL     1       0.881   1.432  11.156  1.00  0.00     0.039 C 
HETATM   21  C29 UNL     1      -0.161   1.588  12.247  1.00  0.00     0.009 C 
HETATM   22  C30 UNL     1      -0.216   0.141  12.756  1.00  0.00     0.039 C 
ENDROOT
BRANCH   1  23
HETATM   23  N4  UNL     1       3.638  -2.358  15.332  1.00  0.00    -0.415 NA
BRANCH  23  24
HETATM   24  C12 UNL     1       3.049  -3.193  16.212  1.00  0.00     0.199 C 
BRANCH  24  25
HETATM   25  C11 UNL     1       2.717  -4.600  15.728  1.00  0.00     0.115 C 
BRANCH  25  26
HETATM   26  N3  UNL     1       2.885  -5.692  16.550  1.00  0.00    -0.395 N 
ATOM     27  H3  UNL     1       2.094  -6.260  16.856  1.00  0.00     0.159 HD
BRANCH  26  28
HETATM   28  C10 UNL     1       4.271  -5.999  16.967  1.00  0.00     0.149 C 
BRANCH  28  29
HETATM   29  C9  UNL     1       4.207  -7.100  17.991  1.00  0.00     0.292 C 
BRANCH  29  30
HETATM   30  N2  UNL     1       5.372  -7.129  18.806  1.00  0.00     0.093 N 
HETATM   31  C8  UNL     1       6.238  -5.976  18.481  1.00  0.00     0.302 C 
HETATM   32  C7  UNL     1       7.511  -6.148  19.259  1.00  0.00     0.302 C 
HETATM   33  N1  UNL     1       8.312  -7.163  18.583  1.00  0.00     0.091 N 
HETATM   34  C32 UNL     1       7.449  -8.118  17.917  1.00  0.00     0.302 C 
HETATM   35  C31 UNL     1       6.156  -8.339  18.636  1.00  0.00     0.302 C 
BRANCH  33  36
HETATM   36  C6  UNL     1       9.285  -6.581  17.694  1.00  0.00     0.273 C 
BRANCH  36  37
HETATM   37  C5  UNL     1       9.079  -7.030  16.295  1.00  0.00     0.034 C 
BRANCH  37  38
HETATM   38  C4  UNL     1       9.644  -6.150  15.234  1.00  0.00     0.034 C 
BRANCH  38  39
HETATM   39  C2  UNL     1       9.135  -6.164  13.887  1.00  0.00    -0.093 C 
HETATM   40  C1  UNL     1       9.662  -6.884  12.890  1.00  0.00     0.014 C 
HETATM   41  C3  UNL     1       8.021  -5.241  13.462  1.00  0.00     0.042 C 
ENDBRANCH  38  39
ENDBRANCH  37  38
ENDBRANCH  36  37
ENDBRANCH  33  36
ENDBRANCH  29  30
ENDBRANCH  28  29
ENDBRANCH  26  28
ENDBRANCH  25  26
ENDBRANCH  24  25
ENDBRANCH  23  24
ENDBRANCH   1  23
TORSDOF 11
ENDMDL
MODEL 4
REMARK VINA RESULT: -7.446989373      1.653      1.798
REMARK  11 active torsions:
REMARK  status: ('A' for Active; 'I' for Inactive)
REMARK    1  A    between atoms: C2_2  and  C4_4 
REMARK    2  A    between atoms: C4_4  and  C5_5 
REMARK    3  A    between atoms: C5_5  and  C6_6 
REMARK    4  A    between atoms: C6_6  and  N1_7 
REMARK    5  A    between atoms: N2_10  and  C9_11 
REMARK    6  A    between atoms: C9_11  and  C10_12 
REMARK    7  A    between atoms: C10_12  and  N3_13 
REMARK    8  A    between atoms: N3_13  and  C11_15 
REMARK    9  A    between atoms: C11_15  and  C12_16 
REMARK   10  A    between atoms: C12_16  and  N4_17 
REMARK   11  A    between atoms: N4_17  and  C13_18 
ROOT
HETATM    1  C13 UNL     1       5.015  -2.963  13.700  1.00  0.00     0.133 A 
HETATM    2  C14 UNL     1       4.903  -1.634  13.173  1.00  0.00     0.033 A 
HETATM    3  C15 UNL     1       5.486  -1.259  12.006  1.00  0.00     0.025 A 
HETATM    4  C16 UNL     1       5.350   0.012  11.475  1.00  0.00    -0.051 A 
HETATM    5  C17 UNL     1       4.565   0.944  12.185  1.00  0.00    -0.050 A 
HETATM    6  C18 UNL     1       3.981   0.579  13.354  1.00  0.00     0.038 A 
HETATM    7  C19 UNL     1       4.143  -0.724  13.857  1.00  0.00     0.048 A 
HETATM    8  N5  UNL     1       3.508  -1.004  14.986  1.00  0.00    -0.341 N 
ATOM      9  H5  UNL     1       2.956  -0.292  15.464  1.00  0.00     0.167 HD
HETATM   10  C20 UNL     1       3.609  -2.263  15.491  1.00  0.00     0.120 A 
HETATM   11  N6  UNL     1       3.051  -2.808  16.582  1.00  0.00    -0.341 N 
ATOM     12  H6  UNL     1       2.454  -2.305  17.238  1.00  0.00     0.167 HD
HETATM   13  C21 UNL     1       3.381  -4.095  16.693  1.00  0.00     0.045 A 
HETATM   14  C22 UNL     1       3.038  -5.083  17.592  1.00  0.00     0.030 A 
HETATM   15  C23 UNL     1       3.498  -6.380  17.436  1.00  0.00     0.002 A 
HETATM   16  C24 UNL     1       4.300  -6.688  16.387  1.00  0.00     0.001 A 
HETATM   17  C25 UNL     1       4.657  -5.721  15.472  1.00  0.00     0.015 A 
HETATM   18  C26 UNL     1       4.203  -4.439  15.619  1.00  0.00     0.008 A 
HETATM   19  C27 UNL     1       4.344  -3.250  14.866  1.00  0.00     0.062 A 
HETATM   20  C28 UNL     1       4.562   2.226  11.414  1.00  0.00     0.039 C 
HETATM   21  C29 UNL     1       4.664   1.665  10.010  1.00  0.00     0.009 C 
HETATM   22  C30 UNL     1       5.836   0.694  10.207  1.00  0.00     0.039 C 
ENDROOT
BRANCH   1  23
HETATM   23  N4  UNL     1       5.724  -3.708  13.095  1.00  0.00    -0.415 NA
BRANCH  23  24
HETATM   24  C12 UNL     1       6.594  -4.494  12.429  1.00  0.00     0.199 C 
BRANCH  24  25
HETATM   25  C11 UNL     1       7.566  -5.325  13.258  1.00  0.00     0.115 C 
BRANCH  25  26
HETATM   26  N3  UNL     1       8.812  -5.656  12.773  1.00  0.00    -0.395 N 
ATOM     27  H3  UNL     1       8.987  -5.764  11.774  1.00  0.00     0.159 HD
BRANCH  26  28
HETATM   28  C10 UNL     1       9.882  -5.849  13.776  1.00  0.00     0.149 C 
BRANCH  28  29
HETATM   29  C9  UNL     1      10.459  -4.496  14.093  1.00  0.00     0.292 C 
BRANCH  29  30
HETATM   30  N2  UNL     1      10.313  -4.171  15.470  1.00  0.00     0.093 N 
HETATM   31  C8  UNL     1       9.812  -5.348  16.211  1.00  0.00     0.302 C 
HETATM   32  C7  UNL     1       9.534  -4.897  17.617  1.00  0.00     0.302 C 
HETATM   33  N1  UNL     1       8.280  -4.152  17.606  1.00  0.00     0.091 N 
HETATM   34  C32 UNL     1       8.101  -3.494  16.327  1.00  0.00     0.302 C 
HETATM   35  C31 UNL     1       9.393  -3.072  15.701  1.00  0.00     0.302 C 
BRANCH  33  36
HETATM   36  C6  UNL     1       7.156  -4.978  17.966  1.00  0.00     0.273 C 
BRANCH  36  37
HETATM   37  C5  UNL     1       7.488  -5.889  19.088  1.00  0.00     0.034 C 
BRANCH  37  38
HETATM   38  C4  UNL     1       6.738  -7.175  19.132  1.00  0.00     0.034 C 
BRANCH  38  39
HETATM   39  C2  UNL     1       7.180  -8.337  18.406  1.00  0.00    -0.093 C 
HETATM   40  C1  UNL     1       8.407  -8.483  17.893  1.00  0.00     0.014 C 
HETATM   41  C3  UNL     1       6.225  -9.447  18.049  1.00  0.00     0.042 C 
ENDBRANCH  38  39
ENDBRANCH  37  38
ENDBRANCH  36  37
ENDBRANCH  33  36
ENDBRANCH  29  30
ENDBRANCH  28  29
ENDBRANCH  26  28
ENDBRANCH  25  26
ENDBRANCH  24  25
ENDBRANCH  23  24
ENDBRANCH   1  23
TORSDOF 11
ENDMDL
MODEL 5
REMARK VINA RESULT: -7.446562458      1.262      5.241
REMARK  11 active torsions:
REMARK  status: ('A' for Active; 'I' for Inactive)
REMARK    1  A    between atoms: C2_2  and  C4_4 
REMARK    2  A    between atoms: C4_4  and  C5_5 
REMARK    3  A    between atoms: C5_5  and  C6_6 
REMARK    4  A    between atoms: C6_6  and  N1_7 
REMARK    5  A    between atoms: N2_10  and  C9_11 
REMARK    6  A    between atoms: C9_11  and  C10_12 
REMARK    7  A    between atoms: C10_12  and  N3_13 
REMARK    8  A    between atoms: N3_13  and  C11_15 
REMARK    9  A    between atoms: C11_15  and  C12_16 
REMARK   10  A    between atoms: C12_16  and  N4_17 
REMARK   11  A    between atoms: N4_17  and  C13_18 
ROOT
HETATM    1  C13 UNL     1       5.674  -2.972  14.535  1.00  0.00     0.133 A 
HETATM    2  C14 UNL     1       5.028  -3.729  15.569  1.00  0.00     0.033 A 
HETATM    3  C15 UNL     1       4.856  -5.072  15.492  1.00  0.00     0.025 A 
HETATM    4  C16 UNL     1       4.268  -5.811  16.504  1.00  0.00    -0.051 A 
HETATM    5  C17 UNL     1       3.838  -5.124  17.659  1.00  0.00    -0.050 A 
HETATM    6  C18 UNL     1       4.003  -3.781  17.742  1.00  0.00     0.038 A 
HETATM    7  C19 UNL     1       4.608  -3.068  16.692  1.00  0.00     0.048 A 
HETATM    8  N5  UNL     1       4.761  -1.765  16.874  1.00  0.00    -0.341 N 
ATOM      9  H5  UNL     1       4.429  -1.314  17.726  1.00  0.00     0.167 HD
HETATM   10  C20 UNL     1       5.373  -1.041  15.898  1.00  0.00     0.120 A 
HETATM   11  N6  UNL     1       5.676   0.263  15.845  1.00  0.00    -0.341 N 
ATOM     12  H6  UNL     1       5.447   0.940  16.573  1.00  0.00     0.167 HD
HETATM   13  C21 UNL     1       6.316   0.558  14.713  1.00  0.00     0.045 A 
HETATM   14  C22 UNL     1       6.865   1.721  14.215  1.00  0.00     0.030 A 
HETATM   15  C23 UNL     1       7.534   1.731  13.002  1.00  0.00     0.002 A 
HETATM   16  C24 UNL     1       7.653   0.584  12.290  1.00  0.00     0.001 A 
HETATM   17  C25 UNL     1       7.117  -0.594  12.765  1.00  0.00     0.015 A 
HETATM   18  C26 UNL     1       6.457  -0.610  13.963  1.00  0.00     0.008 A 
HETATM   19  C27 UNL     1       5.839  -1.622  14.735  1.00  0.00     0.062 A 
HETATM   20  C28 UNL     1       3.251  -6.128  18.601  1.00  0.00     0.039 C 
HETATM   21  C29 UNL     1       4.111  -7.325  18.245  1.00  0.00     0.009 C 
HETATM   22  C30 UNL     1       3.982  -7.288  16.716  1.00  0.00     0.039 C 
ENDROOT
BRANCH   1  23
HETATM   23  N4  UNL     1       5.981  -3.581  13.555  1.00  0.00    -0.415 NA
BRANCH  23  24
HETATM   24  C12 UNL     1       6.316  -4.193  12.401  1.00  0.00     0.199 C 
BRANCH  24  25
HETATM   25  C11 UNL     1       7.496  -5.157  12.436  1.00  0.00     0.115 C 
BRANCH  25  26
HETATM   26  N3  UNL     1       7.945  -5.689  13.624  1.00  0.00    -0.395 N 
ATOM     27  H3  UNL     1       7.326  -6.206  14.248  1.00  0.00     0.159 HD
BRANCH  26  28
HETATM   28  C10 UNL     1       9.372  -5.470  13.950  1.00  0.00     0.149 C 
BRANCH  28  29
HETATM   29  C9  UNL     1       9.549  -4.011  14.272  1.00  0.00     0.292 C 
BRANCH  29  30
HETATM   30  N2  UNL     1       9.865  -3.810  15.644  1.00  0.00     0.093 N 
HETATM   31  C8  UNL     1      10.483  -5.033  16.199  1.00  0.00     0.302 C 
HETATM   32  C7  UNL     1      10.648  -4.811  17.675  1.00  0.00     0.302 C 
HETATM   33  N1  UNL     1       9.341  -4.979  18.300  1.00  0.00     0.091 N 
HETATM   34  C32 UNL     1       8.293  -4.594  17.376  1.00  0.00     0.302 C 
HETATM   35  C31 UNL     1       8.703  -3.489  16.454  1.00  0.00     0.302 C 
BRANCH  33  36
HETATM   36  C6  UNL     1       9.157  -6.308  18.823  1.00  0.00     0.273 C 
BRANCH  36  37
HETATM   37  C5  UNL     1       7.805  -6.832  18.511  1.00  0.00     0.034 C 
BRANCH  37  38
HETATM   38  C4  UNL     1       7.529  -8.232  18.939  1.00  0.00     0.034 C 
BRANCH  38  39
HETATM   39  C2  UNL     1       7.584  -9.334  18.013  1.00  0.00    -0.093 C 
HETATM   40  C1  UNL     1       6.559 -10.155  17.757  1.00  0.00     0.014 C 
HETATM   41  C3  UNL     1       8.876  -9.730  17.345  1.00  0.00     0.042 C 
ENDBRANCH  38  39
ENDBRANCH  37  38
ENDBRANCH  36  37
ENDBRANCH  33  36
ENDBRANCH  29  30
ENDBRANCH  28  29
ENDBRANCH  26  28
ENDBRANCH  25  26
ENDBRANCH  24  25
ENDBRANCH  23  24
ENDBRANCH   1  23
TORSDOF 11
ENDMDL
