MODEL 1
REMARK VINA RESULT: -8.689700173      0.000      0.000
REMARK  10 active torsions:
REMARK  status: ('A' for Active; 'I' for Inactive)
REMARK    1  A    between atoms: C11_11  and  N1_12 
REMARK       I    between atoms: N1_12  and  C12_14 
REMARK    2  A    between atoms: C12_14  and  C13_16 
REMARK    3  A    between atoms: C13_16  and  C14_17 
REMARK    4  A    between atoms: C14_17  and  C15_18 
REMARK    5  A    between atoms: C18_24  and  N3_25 
REMARK       I    between atoms: N3_25  and  C19_27 
REMARK    6  A    between atoms: C19_27  and  C20_29 
REMARK    7  A    between atoms: C20_29  and  C21_30 
REMARK    8  A    between atoms: C21_30  and  C22_31 
REMARK    9  A    between atoms: C22_31  and  C23_32 
REMARK   10  A    between atoms: C23_32  and  N4_33 
ROOT
HETATM    1  C15 UNL     1       4.088  -7.071  17.639  1.00  0.00     0.038 C 
HETATM    2  C16 UNL     1       3.471  -8.424  17.898  1.00  0.00     0.036 C 
HETATM    3  C17 UNL     1       4.173  -8.962  19.100  1.00  0.00     0.235 C 
HETATM    4  N2  UNL     1       5.187  -8.015  19.510  1.00  0.00    -0.054 N 
ATOM      5  H21 UNL     1       6.055  -8.465  19.803  1.00  0.00     0.279 HD
ATOM      6  H22 UNL     1       4.968  -7.557  20.395  1.00  0.00     0.279 HD
HETATM    7  C18 UNL     1       5.377  -7.084  18.431  1.00  0.00     0.290 C 
ENDROOT
BRANCH   1   8
HETATM    8  C14 UNL     1       3.196  -5.933  17.997  1.00  0.00     0.017 C 
BRANCH   8   9
HETATM    9  C13 UNL     1       2.392  -5.446  16.839  1.00  0.00     0.103 C 
BRANCH   9  10
HETATM   10  C12 UNL     1       3.234  -4.844  15.750  1.00  0.00     0.218 C 
HETATM   11  N1  UNL     1       4.100  -3.789  16.065  1.00  0.00    -0.351 N 
ATOM     12  H1  UNL     1       4.113  -3.487  17.039  1.00  0.00     0.163 HD
HETATM   13  O1  UNL     1       3.063  -5.373  14.625  1.00  0.00    -0.274 OA
BRANCH  11  14
HETATM   14  C11 UNL     1       4.980  -3.081  15.158  1.00  0.00     0.041 C 
HETATM   15  C8  UNL     1       6.034  -2.362  15.970  1.00  0.00    -0.022 C 
HETATM   16  C7  UNL     1       7.244  -1.982  15.150  1.00  0.00     0.016 C 
HETATM   17  C9  UNL     1       6.545  -3.335  17.044  1.00  0.00     0.017 C 
HETATM   18  C10 UNL     1       5.511  -1.191  16.728  1.00  0.00     0.017 C 
HETATM   19  C6  UNL     1       7.011  -1.986  13.677  1.00  0.00    -0.005 C 
HETATM   20  C2  UNL     1       6.395  -3.235  13.140  1.00  0.00    -0.038 C 
HETATM   21  C5  UNL     1       6.079  -0.839  13.364  1.00  0.00     0.010 C 
HETATM   22  C1  UNL     1       7.340  -4.100  12.366  1.00  0.00     0.015 C 
HETATM   23  C3  UNL     1       5.262  -2.703  12.246  1.00  0.00     0.014 C 
HETATM   24  C31 UNL     1       5.659  -4.043  14.213  1.00  0.00     0.041 C 
HETATM   25  C4  UNL     1       4.794  -1.546  13.145  1.00  0.00    -0.011 C 
HETATM   26  C30 UNL     1       4.143  -2.144  14.341  1.00  0.00     0.036 C 
ENDBRANCH  11  14
ENDBRANCH   9  10
ENDBRANCH   8   9
ENDBRANCH   1   8
BRANCH   7  27
HETATM   27  N3  UNL     1       6.488  -7.564  17.632  1.00  0.00    -0.333 N 
HETATM   28  C19 UNL     1       7.760  -7.824  18.166  1.00  0.00     0.219 C 
HETATM   29  O2  UNL     1       7.996  -7.648  19.379  1.00  0.00    -0.274 OA
ATOM     30  H3  UNL     1       6.339  -7.719  16.635  1.00  0.00     0.164 HD
BRANCH  28  31
HETATM   31  C20 UNL     1       8.852  -8.319  17.279  1.00  0.00     0.103 C 
BRANCH  31  32
HETATM   32  C21 UNL     1      10.168  -8.284  17.999  1.00  0.00     0.011 C 
BRANCH  32  33
HETATM   33  C22 UNL     1      11.054  -7.225  17.433  1.00  0.00     0.031 C 
BRANCH  33  34
HETATM   34  C23 UNL     1      10.601  -5.825  17.749  1.00  0.00     0.272 C 
BRANCH  34  35
HETATM   35  N4  UNL     1      10.460  -5.082  16.530  1.00  0.00     0.088 N 
HETATM   36  C24 UNL     1       9.245  -5.270  15.817  1.00  0.00     0.272 C 
HETATM   37  C25 UNL     1       9.631  -5.603  14.370  1.00  0.00     0.030 C 
HETATM   38  C26 UNL     1      10.880  -4.788  14.086  1.00  0.00     0.002 C 
HETATM   39  C27 UNL     1      10.565  -3.330  14.187  1.00  0.00     0.002 C 
HETATM   40  C28 UNL     1      10.360  -2.821  15.574  1.00  0.00     0.030 C 
HETATM   41  C29 UNL     1      10.886  -3.707  16.656  1.00  0.00     0.272 C 
ENDBRANCH  34  35
ENDBRANCH  33  34
ENDBRANCH  32  33
ENDBRANCH  31  32
ENDBRANCH  28  31
ENDBRANCH   7  27
TORSDOF 10
ENDMDL
MODEL 2
REMARK VINA RESULT: -8.470253393      2.061      4.281
REMARK  10 active torsions:
REMARK  status: ('A' for Active; 'I' for Inactive)
REMARK    1  A    between atoms: C11_11  and  N1_12 
REMARK       I    between atoms: N1_12  and  C12_14 
REMARK    2  A    between atoms: C12_14  and  C13_16 
REMARK    3  A    between atoms: C13_16  and  C14_17 
REMARK    4  A    between atoms: C14_17  and  C15_18 
REMARK    5  A    between atoms: C18_24  and  N3_25 
REMARK       I    between atoms: N3_25  and  C19_27 
REMARK    6  A    between atoms: C19_27  and  C20_29 
REMARK    7  A    between atoms: C20_29  and  C21_30 
REMARK    8  A    between atoms: C21_30  and  C22_31 
REMARK    9  A    between atoms: C22_31  and  C23_32 
REMARK   10  A    between atoms: C23_32  and  N4_33 
ROOT
HETATM    1  C15 UNL     1       8.316  -9.344  18.018  1.00  0.00     0.038 C 
HETATM    2  C16 UNL     1       9.257 -10.523  17.951  1.00  0.00     0.036 C 
HETATM    3  C17 UNL     1      10.315 -10.249  18.967  1.00  0.00     0.235 C 
HETATM    4  N2  UNL     1      10.058  -8.960  19.572  1.00  0.00    -0.054 N 
ATOM      5  H21 UNL     1      10.908  -8.417  19.725  1.00  0.00     0.279 HD
ATOM      6  H22 UNL     1       9.767  -9.031  20.547  1.00  0.00     0.279 HD
HETATM    7  C18 UNL     1       9.097  -8.276  18.751  1.00  0.00     0.290 C 
ENDROOT
BRANCH   1   8
HETATM    8  C14 UNL     1       7.013  -9.662  18.666  1.00  0.00     0.017 C 
BRANCH   8   9
HETATM    9  C13 UNL     1       5.907  -9.835  17.680  1.00  0.00     0.103 C 
BRANCH   9  10
HETATM   10  C12 UNL     1       4.991  -8.647  17.607  1.00  0.00     0.218 C 
HETATM   11  N1  UNL     1       5.479  -7.444  17.081  1.00  0.00    -0.351 N 
ATOM     12  H1  UNL     1       6.449  -7.445  16.767  1.00  0.00     0.163 HD
HETATM   13  O1  UNL     1       3.836  -8.869  18.044  1.00  0.00    -0.274 OA
BRANCH  11  14
HETATM   14  C11 UNL     1       4.755  -6.198  16.935  1.00  0.00     0.041 C 
HETATM   15  C8  UNL     1       5.175  -5.262  18.047  1.00  0.00    -0.022 C 
HETATM   16  C7  UNL     1       4.853  -3.817  17.747  1.00  0.00     0.016 C 
HETATM   17  C9  UNL     1       6.705  -5.333  18.168  1.00  0.00     0.017 C 
HETATM   18  C10 UNL     1       4.663  -5.657  19.389  1.00  0.00     0.017 C 
HETATM   19  C6  UNL     1       3.838  -3.627  16.671  1.00  0.00    -0.005 C 
HETATM   20  C2  UNL     1       4.116  -4.368  15.405  1.00  0.00    -0.038 C 
HETATM   21  C5  UNL     1       2.513  -4.113  17.209  1.00  0.00     0.010 C 
HETATM   22  C1  UNL     1       4.569  -3.499  14.274  1.00  0.00     0.015 C 
HETATM   23  C3  UNL     1       2.765  -5.036  15.094  1.00  0.00     0.014 C 
HETATM   24  C31 UNL     1       5.066  -5.553  15.606  1.00  0.00     0.041 C 
HETATM   25  C4  UNL     1       2.373  -5.423  16.529  1.00  0.00    -0.011 C 
HETATM   26  C30 UNL     1       3.290  -6.509  16.967  1.00  0.00     0.036 C 
ENDBRANCH  11  14
ENDBRANCH   9  10
ENDBRANCH   8   9
ENDBRANCH   1   8
BRANCH   7  27
HETATM   27  N3  UNL     1       9.833  -7.429  17.831  1.00  0.00    -0.333 N 
HETATM   28  C19 UNL     1      10.366  -6.183  18.197  1.00  0.00     0.219 C 
HETATM   29  O2  UNL     1      10.225  -5.738  19.355  1.00  0.00    -0.274 OA
ATOM     30  H3  UNL     1       9.969  -7.754  16.874  1.00  0.00     0.164 HD
BRANCH  28  31
HETATM   31  C20 UNL     1      11.114  -5.371  17.195  1.00  0.00     0.103 C 
BRANCH  31  32
HETATM   32  C21 UNL     1      10.594  -3.964  17.166  1.00  0.00     0.011 C 
BRANCH  32  33
HETATM   33  C22 UNL     1      10.422  -3.491  15.762  1.00  0.00     0.031 C 
BRANCH  33  34
HETATM   34  C23 UNL     1       8.996  -3.529  15.282  1.00  0.00     0.272 C 
BRANCH  34  35
HETATM   35  N4  UNL     1       8.849  -4.570  14.306  1.00  0.00     0.088 N 
HETATM   36  C24 UNL     1       8.497  -5.854  14.805  1.00  0.00     0.272 C 
HETATM   37  C25 UNL     1       9.506  -6.848  14.216  1.00  0.00     0.030 C 
HETATM   38  C26 UNL     1       9.815  -6.331  12.822  1.00  0.00     0.002 C 
HETATM   39  C27 UNL     1       8.572  -6.342  11.991  1.00  0.00     0.002 C 
HETATM   40  C28 UNL     1       7.575  -5.285  12.330  1.00  0.00     0.030 C 
HETATM   41  C29 UNL     1       8.110  -4.148  13.138  1.00  0.00     0.272 C 
ENDBRANCH  34  35
ENDBRANCH  33  34
ENDBRANCH  32  33
ENDBRANCH  31  32
ENDBRANCH  28  31
ENDBRANCH   7  27
TORSDOF 10
ENDMDL
MODEL 3
REMARK VINA RESULT: -8.435507361      2.032      6.299
REMARK  10 active torsions:
REMARK  status: ('A' for Active; 'I' for Inactive)
REMARK    1  A    between atoms: C11_11  and  N1_12 
REMARK       I    between atoms: N1_12  and  C12_14 
REMARK    2  A    between atoms: C12_14  and  C13_16 
REMARK    3  A    between atoms: C13_16  and  C14_17 
REMARK    4  A    between atoms: C14_17  and  C15_18 
REMARK    5  A    between atoms: C18_24  and  N3_25 
REMARK       I    between atoms: N3_25  and  C19_27 
REMARK    6  A    between atoms: C19_27  and  C20_29 
REMARK    7  A    between atoms: C20_29  and  C21_30 
REMARK    8  A    between atoms: C21_30  and  C22_31 
REMARK    9  A    between atoms: C22_31  and  C23_32 
REMARK   10  A    between atoms: C23_32  and  N4_33 
ROOT
HETATM    1  C15 UNL     1       3.864  -1.554  13.320  1.00  0.00     0.038 C 
HETATM    2  C16 UNL     1       3.099  -0.253  13.363  1.00  0.00     0.036 C 
HETATM    3  C17 UNL     1       3.408   0.349  14.694  1.00  0.00     0.235 C 
HETATM    4  N2  UNL     1       4.264  -0.557  15.429  1.00  0.00    -0.054 N 
ATOM      5  H21 UNL     1       4.020  -0.618  16.418  1.00  0.00     0.279 HD
ATOM      6  H22 UNL     1       5.212  -0.199  15.546  1.00  0.00     0.279 HD
HETATM    7  C18 UNL     1       4.224  -1.831  14.763  1.00  0.00     0.290 C 
ENDROOT
BRANCH   1   8
HETATM    8  C14 UNL     1       5.050  -1.515  12.421  1.00  0.00     0.017 C 
BRANCH   8   9
HETATM    9  C13 UNL     1       5.349  -2.841  11.806  1.00  0.00     0.103 C 
BRANCH   9  10
HETATM   10  C12 UNL     1       6.575  -3.493  12.378  1.00  0.00     0.218 C 
HETATM   11  N1  UNL     1       7.000  -3.133  13.664  1.00  0.00    -0.351 N 
ATOM     12  H1  UNL     1       6.436  -2.435  14.150  1.00  0.00     0.163 HD
HETATM   13  O1  UNL     1       7.112  -4.327  11.609  1.00  0.00    -0.274 OA
BRANCH  11  14
HETATM   14  C11 UNL     1       8.152  -3.643  14.378  1.00  0.00     0.041 C 
HETATM   15  C8  UNL     1       8.079  -3.170  15.813  1.00  0.00    -0.022 C 
HETATM   16  C7  UNL     1       8.944  -3.989  16.742  1.00  0.00     0.016 C 
HETATM   17  C9  UNL     1       6.636  -3.368  16.301  1.00  0.00     0.017 C 
HETATM   18  C10 UNL     1       8.345  -1.713  15.978  1.00  0.00     0.017 C 
HETATM   19  C6  UNL     1       9.996  -4.789  16.052  1.00  0.00    -0.005 C 
HETATM   20  C2  UNL     1       9.507  -5.634  14.923  1.00  0.00    -0.038 C 
HETATM   21  C5  UNL     1      11.010  -3.817  15.496  1.00  0.00     0.010 C 
HETATM   22  C1  UNL     1       9.469  -7.099  15.227  1.00  0.00     0.015 C 
HETATM   23  C3  UNL     1      10.508  -5.320  13.798  1.00  0.00     0.014 C 
HETATM   24  C31 UNL     1       8.167  -5.152  14.358  1.00  0.00     0.041 C 
HETATM   25  C4  UNL     1      10.663  -3.811  14.054  1.00  0.00    -0.011 C 
HETATM   26  C30 UNL     1       9.383  -3.159  13.673  1.00  0.00     0.036 C 
ENDBRANCH  11  14
ENDBRANCH   9  10
ENDBRANCH   8   9
ENDBRANCH   1   8
BRANCH   7  27
HETATM   27  N3  UNL     1       3.211  -2.635  15.420  1.00  0.00    -0.333 N 
HETATM   28  C19 UNL     1       3.127  -4.028  15.276  1.00  0.00     0.219 C 
HETATM   29  O2  UNL     1       3.936  -4.650  14.558  1.00  0.00    -0.274 OA
ATOM     30  H3  UNL     1       2.529  -2.166  16.015  1.00  0.00     0.164 HD
BRANCH  28  31
HETATM   31  C20 UNL     1       2.058  -4.787  15.987  1.00  0.00     0.103 C 
BRANCH  31  32
HETATM   32  C21 UNL     1       2.662  -5.787  16.928  1.00  0.00     0.011 C 
BRANCH  32  33
HETATM   33  C22 UNL     1       3.255  -5.107  18.116  1.00  0.00     0.031 C 
BRANCH  33  34
HETATM   34  C23 UNL     1       3.486  -6.025  19.286  1.00  0.00     0.272 C 
BRANCH  34  35
HETATM   35  N4  UNL     1       4.775  -6.641  19.162  1.00  0.00     0.088 N 
HETATM   36  C24 UNL     1       5.784  -6.172  20.046  1.00  0.00     0.272 C 
HETATM   37  C25 UNL     1       7.001  -5.821  19.181  1.00  0.00     0.030 C 
HETATM   38  C26 UNL     1       7.006  -6.844  18.058  1.00  0.00     0.002 C 
HETATM   39  C27 UNL     1       7.185  -8.216  18.625  1.00  0.00     0.002 C 
HETATM   40  C28 UNL     1       5.993  -8.769  19.332  1.00  0.00     0.030 C 
HETATM   41  C29 UNL     1       4.703  -8.078  19.029  1.00  0.00     0.272 C 
ENDBRANCH  34  35
ENDBRANCH  33  34
ENDBRANCH  32  33
ENDBRANCH  31  32
ENDBRANCH  28  31
ENDBRANCH   7  27
TORSDOF 10
ENDMDL
MODEL 4
REMARK VINA RESULT: -8.404105590      4.308      9.443
REMARK  10 active torsions:
REMARK  status: ('A' for Active; 'I' for Inactive)
REMARK    1  A    between atoms: C11_11  and  N1_12 
REMARK       I    between atoms: N1_12  and  C12_14 
REMARK    2  A    between atoms: C12_14  and  C13_16 
REMARK    3  A    between atoms: C13_16  and  C14_17 
REMARK    4  A    between atoms: C14_17  and  C15_18 
REMARK    5  A    between atoms: C18_24  and  N3_25 
REMARK       I    between atoms: N3_25  and  C19_27 
REMARK    6  A    between atoms: C19_27  and  C20_29 
REMARK    7  A    between atoms: C20_29  and  C21_30 
REMARK    8  A    between atoms: C21_30  and  C22_31 
REMARK    9  A    between atoms: C22_31  and  C23_32 
REMARK   10  A    between atoms: C23_32  and  N4_33 
ROOT
HETATM    1  C15 UNL     1       4.609   0.324  13.949  1.00  0.00     0.038 C 
HETATM    2  C16 UNL     1       3.889  -0.793  13.234  1.00  0.00     0.036 C 
HETATM    3  C17 UNL     1       4.763  -1.158  12.080  1.00  0.00     0.235 C 
HETATM    4  N2  UNL     1       5.913  -0.281  12.071  1.00  0.00    -0.054 N 
ATOM      5  H21 UNL     1       6.176   0.018  11.131  1.00  0.00     0.279 HD
ATOM      6  H22 UNL     1       6.781  -0.763  12.305  1.00  0.00     0.279 HD
HETATM    7  C18 UNL     1       5.630   0.821  12.949  1.00  0.00     0.290 C 
ENDROOT
BRANCH   1   8
HETATM    8  C14 UNL     1       5.216  -0.095  15.243  1.00  0.00     0.017 C 
BRANCH   8   9
HETATM    9  C13 UNL     1       5.102  -1.562  15.484  1.00  0.00     0.103 C 
BRANCH   9  10
HETATM   10  C12 UNL     1       6.410  -2.286  15.343  1.00  0.00     0.218 C 
HETATM   11  N1  UNL     1       6.584  -3.511  15.999  1.00  0.00    -0.351 N 
ATOM     12  H1  UNL     1       5.792  -3.851  16.545  1.00  0.00     0.163 HD
HETATM   13  O1  UNL     1       7.245  -1.689  14.619  1.00  0.00    -0.274 OA
BRANCH  11  14
HETATM   14  C11 UNL     1       7.766  -4.348  15.988  1.00  0.00     0.041 C 
HETATM   15  C8  UNL     1       7.578  -5.462  16.994  1.00  0.00    -0.022 C 
HETATM   16  C7  UNL     1       8.508  -6.628  16.754  1.00  0.00     0.016 C 
HETATM   17  C9  UNL     1       6.157  -6.018  16.820  1.00  0.00     0.017 C 
HETATM   18  C10 UNL     1       7.644  -5.008  18.411  1.00  0.00     0.017 C 
HETATM   19  C6  UNL     1       9.682  -6.307  15.891  1.00  0.00    -0.005 C 
HETATM   20  C2  UNL     1       9.350  -5.637  14.599  1.00  0.00    -0.038 C 
HETATM   21  C5  UNL     1      10.579  -5.380  16.676  1.00  0.00     0.010 C 
HETATM   22  C1  UNL     1       9.494  -6.517  13.398  1.00  0.00     0.015 C 
HETATM   23  C3  UNL     1      10.342  -4.462  14.556  1.00  0.00     0.014 C 
HETATM   24  C31 UNL     1       7.980  -4.951  14.621  1.00  0.00     0.041 C 
HETATM   25  C4  UNL     1      10.288  -4.071  16.043  1.00  0.00    -0.011 C 
HETATM   26  C30 UNL     1       8.948  -3.482  16.302  1.00  0.00     0.036 C 
ENDBRANCH  11  14
ENDBRANCH   9  10
ENDBRANCH   8   9
ENDBRANCH   1   8
BRANCH   7  27
HETATM   27  N3  UNL     1       5.099   1.900  12.139  1.00  0.00    -0.333 N 
HETATM   28  C19 UNL     1       5.869   2.599  11.195  1.00  0.00     0.219 C 
HETATM   29  O2  UNL     1       7.071   2.317  11.011  1.00  0.00    -0.274 OA
ATOM     30  H3  UNL     1       4.122   2.164  12.259  1.00  0.00     0.164 HD
BRANCH  28  31
HETATM   31  C20 UNL     1       5.251   3.696  10.397  1.00  0.00     0.103 C 
BRANCH  31  32
HETATM   32  C21 UNL     1       3.950   4.124  11.011  1.00  0.00     0.011 C 
BRANCH  32  33
HETATM   33  C22 UNL     1       2.908   4.320   9.962  1.00  0.00     0.031 C 
BRANCH  33  34
HETATM   34  C23 UNL     1       2.586   3.070   9.188  1.00  0.00     0.272 C 
BRANCH  34  35
HETATM   35  N4  UNL     1       1.792   2.196  10.002  1.00  0.00     0.088 N 
HETATM   36  C24 UNL     1       0.388   2.238   9.785  1.00  0.00     0.272 C 
HETATM   37  C25 UNL     1      -0.265   2.438  11.159  1.00  0.00     0.030 C 
HETATM   38  C26 UNL     1       0.607   1.670  12.137  1.00  0.00     0.002 C 
HETATM   39  C27 UNL     1       0.590   0.215  11.793  1.00  0.00     0.002 C 
HETATM   40  C28 UNL     1       1.364  -0.156  10.572  1.00  0.00     0.030 C 
HETATM   41  C29 UNL     1       2.351   0.868  10.115  1.00  0.00     0.272 C 
ENDBRANCH  34  35
ENDBRANCH  33  34
ENDBRANCH  32  33
ENDBRANCH  31  32
ENDBRANCH  28  31
ENDBRANCH   7  27
TORSDOF 10
ENDMDL
MODEL 5
REMARK VINA RESULT: -8.396123621      1.078      1.715
REMARK  10 active torsions:
REMARK  status: ('A' for Active; 'I' for Inactive)
REMARK    1  A    between atoms: C11_11  and  N1_12 
REMARK       I    between atoms: N1_12  and  C12_14 
REMARK    2  A    between atoms: C12_14  and  C13_16 
REMARK    3  A    between atoms: C13_16  and  C14_17 
REMARK    4  A    between atoms: C14_17  and  C15_18 
REMARK    5  A    between atoms: C18_24  and  N3_25 
REMARK       I    between atoms: N3_25  and  C19_27 
REMARK    6  A    between atoms: C19_27  and  C20_29 
REMARK    7  A    between atoms: C20_29  and  C21_30 
REMARK    8  A    between atoms: C21_30  and  C22_31 
REMARK    9  A    between atoms: C22_31  and  C23_32 
REMARK   10  A    between atoms: C23_32  and  N4_33 
ROOT
HETATM    1  C15 UNL     1       4.765  -6.959  17.750  1.00  0.00     0.038 C 
HETATM    2  C16 UNL     1       4.203  -8.165  17.036  1.00  0.00     0.036 C 
HETATM    3  C17 UNL     1       4.140  -9.245  18.064  1.00  0.00     0.235 C 
HETATM    4  N2  UNL     1       4.679  -8.739  19.307  1.00  0.00    -0.054 N 
ATOM      5  H21 UNL     1       5.258  -9.422  19.796  1.00  0.00     0.279 HD
ATOM      6  H22 UNL     1       3.968  -8.625  20.030  1.00  0.00     0.279 HD
HETATM    7  C18 UNL     1       5.380  -7.518  19.014  1.00  0.00     0.290 C 
ENDROOT
BRANCH   1   8
HETATM    8  C14 UNL     1       3.750  -5.901  18.015  1.00  0.00     0.017 C 
BRANCH   8   9
HETATM    9  C13 UNL     1       2.794  -5.724  16.884  1.00  0.00     0.103 C 
BRANCH   9  10
HETATM   10  C12 UNL     1       3.298  -4.780  15.829  1.00  0.00     0.218 C 
HETATM   11  N1  UNL     1       3.965  -3.614  16.223  1.00  0.00    -0.351 N 
ATOM     12  H1  UNL     1       4.078  -3.471  17.227  1.00  0.00     0.163 HD
HETATM   13  O1  UNL     1       3.055  -5.155  14.656  1.00  0.00    -0.274 OA
BRANCH  11  14
HETATM   14  C11 UNL     1       4.513  -2.588  15.361  1.00  0.00     0.041 C 
HETATM   15  C8  UNL     1       5.795  -2.072  15.977  1.00  0.00    -0.022 C 
HETATM   16  C7  UNL     1       6.676  -1.356  14.980  1.00  0.00     0.016 C 
HETATM   17  C9  UNL     1       6.607  -3.285  16.456  1.00  0.00     0.017 C 
HETATM   18  C10 UNL     1       5.583  -1.244  17.197  1.00  0.00     0.017 C 
HETATM   19  C6  UNL     1       5.968  -0.920  13.742  1.00  0.00    -0.005 C 
HETATM   20  C2  UNL     1       5.177  -1.986  13.059  1.00  0.00    -0.038 C 
HETATM   21  C5  UNL     1       5.015   0.185  14.132  1.00  0.00     0.010 C 
HETATM   22  C1  UNL     1       5.790  -2.485  11.789  1.00  0.00     0.015 C 
HETATM   23  C3  UNL     1       3.826  -1.298  12.799  1.00  0.00     0.014 C 
HETATM   24  C31 UNL     1       4.817  -3.147  13.992  1.00  0.00     0.041 C 
HETATM   25  C4  UNL     1       3.712  -0.522  14.122  1.00  0.00    -0.011 C 
HETATM   26  C30 UNL     1       3.478  -1.515  15.204  1.00  0.00     0.036 C 
ENDBRANCH  11  14
ENDBRANCH   9  10
ENDBRANCH   8   9
ENDBRANCH   1   8
BRANCH   7  27
HETATM   27  N3  UNL     1       6.778  -7.854  18.822  1.00  0.00    -0.333 N 
HETATM   28  C19 UNL     1       7.825  -6.961  19.098  1.00  0.00     0.219 C 
HETATM   29  O2  UNL     1       7.593  -5.812  19.528  1.00  0.00    -0.274 OA
ATOM     30  H3  UNL     1       7.011  -8.782  18.470  1.00  0.00     0.164 HD
BRANCH  28  31
HETATM   31  C20 UNL     1       9.239  -7.380  18.878  1.00  0.00     0.103 C 
BRANCH  31  32
HETATM   32  C21 UNL     1      10.139  -6.181  18.821  1.00  0.00     0.011 C 
BRANCH  32  33
HETATM   33  C22 UNL     1      10.653  -5.970  17.436  1.00  0.00     0.031 C 
BRANCH  33  34
HETATM   34  C23 UNL     1      10.229  -4.660  16.828  1.00  0.00     0.272 C 
BRANCH  34  35
HETATM   35  N4  UNL     1       9.799  -4.879  15.477  1.00  0.00     0.088 N 
HETATM   36  C24 UNL     1      10.549  -4.221  14.465  1.00  0.00     0.272 C 
HETATM   37  C25 UNL     1       9.541  -3.474  13.583  1.00  0.00     0.030 C 
HETATM   38  C26 UNL     1       8.306  -4.357  13.544  1.00  0.00     0.002 C 
HETATM   39  C27 UNL     1       8.642  -5.667  12.905  1.00  0.00     0.002 C 
HETATM   40  C28 UNL     1       9.465  -6.587  13.742  1.00  0.00     0.030 C 
HETATM   41  C29 UNL     1       9.488  -6.263  15.201  1.00  0.00     0.272 C 
ENDBRANCH  34  35
ENDBRANCH  33  34
ENDBRANCH  32  33
ENDBRANCH  31  32
ENDBRANCH  28  31
ENDBRANCH   7  27
TORSDOF 10
ENDMDL
