MODEL 1
REMARK VINA RESULT: -9.083601030      0.000      0.000
REMARK  10 active torsions:
REMARK  status: ('A' for Active; 'I' for Inactive)
REMARK    1  A    between atoms: C2_2  and  N1_3 
REMARK    2  A    between atoms: C2_2  and  C28_36 
REMARK       I    between atoms: N1_3  and  C3_5 
REMARK    3  A    between atoms: C3_5  and  C4_7 
REMARK    4  A    between atoms: C4_7  and  C5_8 
REMARK    5  A    between atoms: C6_11  and  C7_12 
REMARK    6  A    between atoms: C18_23  and  C19_24 
REMARK    7  A    between atoms: C19_24  and  S1_25 
REMARK    8  A    between atoms: S1_25  and  C20_28 
REMARK    9  A    between atoms: C20_28  and  C21_29 
REMARK   10  A    between atoms: C21_29  and  C22_30 
ROOT
HETATM    1  C5  UNL     1       6.053  -1.337  14.724  1.00  0.00     0.025 A 
HETATM    2  N2  UNL     1       5.666  -0.702  13.620  1.00  0.00    -0.361 N 
ATOM      3  H2  UNL     1       6.278  -0.311  12.904  1.00  0.00     0.165 HD
HETATM    4  C6  UNL     1       4.313  -0.670  13.620  1.00  0.00     0.018 A 
HETATM    5  C17 UNL     1       3.851  -1.296  14.749  1.00  0.00     0.035 A 
HETATM    6  C18 UNL     1       4.932  -1.739  15.485  1.00  0.00    -0.019 A 
ENDROOT
BRANCH   6   7
HETATM    7  C19 UNL     1       5.018  -2.469  16.761  1.00  0.00     0.180 C 
BRANCH   7   8
HETATM    8  S1  UNL     1       4.829  -4.196  16.497  1.00  0.00     0.148 S 
HETATM    9  O2  UNL     1       3.460  -4.653  16.850  1.00  0.00    -0.228 OA
HETATM   10  O3  UNL     1       5.223  -4.518  15.078  1.00  0.00    -0.228 OA
BRANCH   8  11
HETATM   11  C20 UNL     1       5.961  -5.111  17.545  1.00  0.00     0.141 C 
BRANCH  11  12
HETATM   12  C21 UNL     1       7.279  -4.386  17.635  1.00  0.00     0.019 C 
BRANCH  12  13
HETATM   13  C22 UNL     1       8.291  -5.126  16.801  1.00  0.00    -0.014 C 
HETATM   14  C23 UNL     1       8.363  -6.596  17.099  1.00  0.00     0.005 C 
HETATM   15  C24 UNL     1       9.790  -7.078  16.861  1.00  0.00     0.000 C 
HETATM   16  C25 UNL     1      10.731  -6.476  17.883  1.00  0.00     0.000 C 
HETATM   17  C26 UNL     1      10.422  -5.008  18.106  1.00  0.00     0.000 C 
HETATM   18  C27 UNL     1       9.659  -4.462  16.895  1.00  0.00     0.005 C 
ENDBRANCH  12  13
ENDBRANCH  11  12
ENDBRANCH   8  11
ENDBRANCH   7   8
ENDBRANCH   6   7
BRANCH   1  19
HETATM   19  C4  UNL     1       7.452  -1.636  15.126  1.00  0.00     0.160 C 
BRANCH  19  20
HETATM   20  C3  UNL     1       8.117  -2.552  14.136  1.00  0.00     0.224 C 
HETATM   21  N1  UNL     1       7.373  -3.596  13.524  1.00  0.00    -0.347 N 
ATOM     22  H1  UNL     1       6.387  -3.682  13.768  1.00  0.00     0.163 HD
HETATM   23  O1  UNL     1       9.306  -2.399  13.853  1.00  0.00    -0.273 OA
BRANCH  21  24
HETATM   24  C2  UNL     1       7.913  -4.537  12.588  1.00  0.00     0.181 C 
HETATM   25  C1  UNL     1       8.357  -5.761  13.348  1.00  0.00     0.043 C 
BRANCH  24  26
HETATM   26  C28 UNL     1       6.923  -4.865  11.507  1.00  0.00     0.196 C 
HETATM   27  O4  UNL     1       5.967  -4.103  11.236  1.00  0.00    -0.646 OA
HETATM   28  O5  UNL     1       7.056  -6.041  10.784  1.00  0.00    -0.646 OA
ENDBRANCH  24  26
ENDBRANCH  21  24
ENDBRANCH  19  20
ENDBRANCH   1  19
BRANCH   4  29
HETATM   29  C7  UNL     1       3.418  -0.079  12.581  1.00  0.00     0.003 C 
HETATM   30  C8  UNL     1       2.012  -0.255  13.121  1.00  0.00     0.020 C 
HETATM   31  C9  UNL     1       1.034   0.423  12.183  1.00  0.00    -0.013 C 
HETATM   32  C10 UNL     1       1.388   1.880  12.104  1.00  0.00     0.009 C 
HETATM   33  C14 UNL     1       1.169  -0.254  10.844  1.00  0.00     0.009 C 
HETATM   34  C11 UNL     1       2.780   2.051  11.534  1.00  0.00    -0.013 C 
HETATM   35  C12 UNL     1       2.802   1.411  10.171  1.00  0.00     0.009 C 
HETATM   36  C16 UNL     1       3.755   1.389  12.472  1.00  0.00     0.020 C 
HETATM   37  C13 UNL     1       2.564  -0.083  10.307  1.00  0.00    -0.013 C 
HETATM   38  C15 UNL     1       3.606  -0.683  11.229  1.00  0.00     0.020 C 
ENDBRANCH   4  29
TORSDOF 10
ENDMDL
MODEL 2
REMARK VINA RESULT: -9.080692226      0.173      1.348
REMARK  10 active torsions:
REMARK  status: ('A' for Active; 'I' for Inactive)
REMARK    1  A    between atoms: C2_2  and  N1_3 
REMARK    2  A    between atoms: C2_2  and  C28_36 
REMARK       I    between atoms: N1_3  and  C3_5 
REMARK    3  A    between atoms: C3_5  and  C4_7 
REMARK    4  A    between atoms: C4_7  and  C5_8 
REMARK    5  A    between atoms: C6_11  and  C7_12 
REMARK    6  A    between atoms: C18_23  and  C19_24 
REMARK    7  A    between atoms: C19_24  and  S1_25 
REMARK    8  A    between atoms: S1_25  and  C20_28 
REMARK    9  A    between atoms: C20_28  and  C21_29 
REMARK   10  A    between atoms: C21_29  and  C22_30 
ROOT
HETATM    1  C5  UNL     1       6.117  -1.340  14.778  1.00  0.00     0.025 A 
HETATM    2  N2  UNL     1       5.701  -0.704  13.685  1.00  0.00    -0.361 N 
ATOM      3  H2  UNL     1       6.295  -0.319  12.950  1.00  0.00     0.165 HD
HETATM    4  C6  UNL     1       4.350  -0.663  13.724  1.00  0.00     0.018 A 
HETATM    5  C17 UNL     1       3.916  -1.284  14.868  1.00  0.00     0.035 A 
HETATM    6  C18 UNL     1       5.016  -1.733  15.573  1.00  0.00    -0.019 A 
ENDROOT
BRANCH   6   7
HETATM    7  C19 UNL     1       5.134  -2.460  16.848  1.00  0.00     0.180 C 
BRANCH   7   8
HETATM    8  S1  UNL     1       4.887  -4.183  16.599  1.00  0.00     0.148 S 
HETATM    9  O2  UNL     1       3.520  -4.599  17.007  1.00  0.00    -0.228 OA
HETATM   10  O3  UNL     1       5.216  -4.520  15.168  1.00  0.00    -0.228 OA
BRANCH   8  11
HETATM   11  C20 UNL     1       6.031  -5.126  17.608  1.00  0.00     0.141 C 
BRANCH  11  12
HETATM   12  C21 UNL     1       7.346  -4.396  17.713  1.00  0.00     0.019 C 
BRANCH  12  13
HETATM   13  C22 UNL     1       8.353  -5.093  16.836  1.00  0.00    -0.014 C 
HETATM   14  C23 UNL     1       8.416  -6.578  17.050  1.00  0.00     0.005 C 
HETATM   15  C24 UNL     1       9.839  -7.055  16.783  1.00  0.00     0.000 C 
HETATM   16  C25 UNL     1      10.785  -6.518  17.837  1.00  0.00     0.000 C 
HETATM   17  C26 UNL     1      10.485  -5.063  18.143  1.00  0.00     0.000 C 
HETATM   18  C27 UNL     1       9.725  -4.444  16.967  1.00  0.00     0.005 C 
ENDBRANCH  12  13
ENDBRANCH  11  12
ENDBRANCH   8  11
ENDBRANCH   7   8
ENDBRANCH   6   7
BRANCH   1  19
HETATM   19  C4  UNL     1       7.524  -1.647  15.141  1.00  0.00     0.160 C 
BRANCH  19  20
HETATM   20  C3  UNL     1       8.151  -2.579  14.139  1.00  0.00     0.224 C 
HETATM   21  N1  UNL     1       7.366  -3.588  13.520  1.00  0.00    -0.347 N 
ATOM     22  H1  UNL     1       6.378  -3.639  13.768  1.00  0.00     0.163 HD
HETATM   23  O1  UNL     1       9.344  -2.468  13.853  1.00  0.00    -0.273 OA
BRANCH  21  24
HETATM   24  C2  UNL     1       7.867  -4.539  12.573  1.00  0.00     0.181 C 
HETATM   25  C1  UNL     1       8.291  -5.777  13.323  1.00  0.00     0.043 C 
BRANCH  24  26
HETATM   26  C28 UNL     1       6.851  -4.839  11.509  1.00  0.00     0.196 C 
HETATM   27  O4  UNL     1       6.895  -5.893  10.834  1.00  0.00    -0.646 OA
HETATM   28  O5  UNL     1       5.832  -3.934  11.253  1.00  0.00    -0.646 OA
ENDBRANCH  24  26
ENDBRANCH  21  24
ENDBRANCH  19  20
ENDBRANCH   1  19
BRANCH   4  29
HETATM   29  C7  UNL     1       3.428  -0.069  12.711  1.00  0.00     0.003 C 
HETATM   30  C8  UNL     1       3.835   1.388  12.608  1.00  0.00     0.020 C 
HETATM   31  C9  UNL     1       3.027   2.051  11.511  1.00  0.00    -0.013 C 
HETATM   32  C10 UNL     1       3.307   1.336  10.221  1.00  0.00     0.009 C 
HETATM   33  C14 UNL     1       1.577   1.938  11.905  1.00  0.00     0.009 C 
HETATM   34  C11 UNL     1       2.869  -0.111  10.318  1.00  0.00    -0.013 C 
HETATM   35  C12 UNL     1       1.398  -0.127  10.642  1.00  0.00     0.009 C 
HETATM   36  C16 UNL     1       3.681  -0.774  11.400  1.00  0.00     0.020 C 
HETATM   37  C13 UNL     1       1.171   0.493  12.009  1.00  0.00    -0.013 C 
HETATM   38  C15 UNL     1       1.986  -0.252  13.048  1.00  0.00     0.020 C 
ENDBRANCH   4  29
TORSDOF 10
ENDMDL
MODEL 3
REMARK VINA RESULT: -9.022793888      0.692      1.603
REMARK  10 active torsions:
REMARK  status: ('A' for Active; 'I' for Inactive)
REMARK    1  A    between atoms: C2_2  and  N1_3 
REMARK    2  A    between atoms: C2_2  and  C28_36 
REMARK       I    between atoms: N1_3  and  C3_5 
REMARK    3  A    between atoms: C3_5  and  C4_7 
REMARK    4  A    between atoms: C4_7  and  C5_8 
REMARK    5  A    between atoms: C6_11  and  C7_12 
REMARK    6  A    between atoms: C18_23  and  C19_24 
REMARK    7  A    between atoms: C19_24  and  S1_25 
REMARK    8  A    between atoms: S1_25  and  C20_28 
REMARK    9  A    between atoms: C20_28  and  C21_29 
REMARK   10  A    between atoms: C21_29  and  C22_30 
ROOT
HETATM    1  C5  UNL     1       5.674  -1.562  14.923  1.00  0.00     0.025 A 
HETATM    2  N2  UNL     1       5.412  -0.783  13.875  1.00  0.00    -0.361 N 
ATOM      3  H2  UNL     1       6.101  -0.320  13.282  1.00  0.00     0.165 HD
HETATM    4  C6  UNL     1       4.068  -0.716  13.740  1.00  0.00     0.018 A 
HETATM    5  C17 UNL     1       3.481  -1.468  14.727  1.00  0.00     0.035 A 
HETATM    6  C18 UNL     1       4.474  -2.028  15.507  1.00  0.00    -0.019 A 
ENDROOT
BRANCH   6   7
HETATM    7  C19 UNL     1       4.416  -2.914  16.681  1.00  0.00     0.180 C 
BRANCH   7   8
HETATM    8  S1  UNL     1       4.211  -4.587  16.181  1.00  0.00     0.148 S 
HETATM    9  O2  UNL     1       2.812  -5.046  16.382  1.00  0.00    -0.228 OA
HETATM   10  O3  UNL     1       4.693  -4.733  14.760  1.00  0.00    -0.228 OA
BRANCH   8  11
HETATM   11  C20 UNL     1       5.251  -5.662  17.170  1.00  0.00     0.141 C 
BRANCH  11  12
HETATM   12  C21 UNL     1       6.637  -5.722  16.581  1.00  0.00     0.019 C 
BRANCH  12  13
HETATM   13  C22 UNL     1       7.591  -5.045  17.530  1.00  0.00    -0.014 C 
HETATM   14  C23 UNL     1       8.994  -4.939  17.006  1.00  0.00     0.005 C 
HETATM   15  C24 UNL     1       9.965  -5.000  18.179  1.00  0.00     0.000 C 
HETATM   16  C25 UNL     1       9.942  -6.373  18.817  1.00  0.00     0.000 C 
HETATM   17  C26 UNL     1       8.521  -6.888  18.942  1.00  0.00     0.000 C 
HETATM   18  C27 UNL     1       7.548  -5.706  18.903  1.00  0.00     0.005 C 
ENDBRANCH  12  13
ENDBRANCH  11  12
ENDBRANCH   8  11
ENDBRANCH   7   8
ENDBRANCH   6   7
BRANCH   1  19
HETATM   19  C4  UNL     1       7.018  -1.945  15.426  1.00  0.00     0.160 C 
BRANCH  19  20
HETATM   20  C3  UNL     1       7.800  -2.684  14.374  1.00  0.00     0.224 C 
HETATM   21  N1  UNL     1       7.200  -3.761  13.669  1.00  0.00    -0.347 N 
ATOM     22  H1  UNL     1       6.231  -3.992  13.891  1.00  0.00     0.163 HD
HETATM   23  O1  UNL     1       8.960  -2.357  14.122  1.00  0.00    -0.273 OA
BRANCH  21  24
HETATM   24  C2  UNL     1       7.860  -4.544  12.667  1.00  0.00     0.181 C 
HETATM   25  C1  UNL     1       8.427  -5.776  13.327  1.00  0.00     0.043 C 
BRANCH  24  26
HETATM   26  C28 UNL     1       6.933  -4.880  11.534  1.00  0.00     0.196 C 
HETATM   27  O4  UNL     1       5.978  -4.133  11.220  1.00  0.00    -0.646 OA
HETATM   28  O5  UNL     1       7.125  -6.046  10.809  1.00  0.00    -0.646 OA
ENDBRANCH  24  26
ENDBRANCH  21  24
ENDBRANCH  19  20
ENDBRANCH   1  19
BRANCH   4  29
HETATM   29  C7  UNL     1       3.294   0.023  12.699  1.00  0.00     0.003 C 
HETATM   30  C8  UNL     1       3.544  -0.731  11.408  1.00  0.00     0.020 C 
HETATM   31  C9  UNL     1       2.701  -0.120  10.308  1.00  0.00    -0.013 C 
HETATM   32  C10 UNL     1       1.257  -0.225  10.705  1.00  0.00     0.009 C 
HETATM   33  C14 UNL     1       3.134   1.317  10.169  1.00  0.00     0.009 C 
HETATM   34  C11 UNL     1       1.005   0.555  11.979  1.00  0.00    -0.013 C 
HETATM   35  C12 UNL     1       1.397   1.988  11.726  1.00  0.00     0.009 C 
HETATM   36  C16 UNL     1       1.834  -0.059  13.076  1.00  0.00     0.020 C 
HETATM   37  C13 UNL     1       2.889   2.067  11.450  1.00  0.00    -0.013 C 
HETATM   38  C15 UNL     1       3.654   1.469  12.613  1.00  0.00     0.020 C 
ENDBRANCH   4  29
TORSDOF 10
ENDMDL
MODEL 4
REMARK VINA RESULT: -8.843868200      1.875      3.724
REMARK  10 active torsions:
REMARK  status: ('A' for Active; 'I' for Inactive)
REMARK    1  A    between atoms: C2_2  and  N1_3 
REMARK    2  A    between atoms: C2_2  and  C28_36 
REMARK       I    between atoms: N1_3  and  C3_5 
REMARK    3  A    between atoms: C3_5  and  C4_7 
REMARK    4  A    between atoms: C4_7  and  C5_8 
REMARK    5  A    between atoms: C6_11  and  C7_12 
REMARK    6  A    between atoms: C18_23  and  C19_24 
REMARK    7  A    between atoms: C19_24  and  S1_25 
REMARK    8  A    between atoms: S1_25  and  C20_28 
REMARK    9  A    between atoms: C20_28  and  C21_29 
REMARK   10  A    between atoms: C21_29  and  C22_30 
ROOT
HETATM    1  C5  UNL     1       5.314  -0.863  14.612  1.00  0.00     0.025 A 
HETATM    2  N2  UNL     1       4.247  -0.123  14.320  1.00  0.00    -0.361 N 
ATOM      3  H2  UNL     1       3.705   0.438  14.978  1.00  0.00     0.165 HD
HETATM    4  C6  UNL     1       4.012  -0.248  12.994  1.00  0.00     0.018 A 
HETATM    5  C17 UNL     1       4.952  -1.087  12.450  1.00  0.00     0.035 A 
HETATM    6  C18 UNL     1       5.806  -1.503  13.452  1.00  0.00    -0.019 A 
ENDROOT
BRANCH   6   7
HETATM    7  C19 UNL     1       6.981  -2.391  13.434  1.00  0.00     0.180 C 
BRANCH   7   8
HETATM    8  S1  UNL     1       6.506  -4.034  13.029  1.00  0.00     0.148 S 
HETATM    9  O2  UNL     1       5.062  -4.262  13.294  1.00  0.00    -0.228 OA
HETATM   10  O3  UNL     1       6.910  -4.321  11.606  1.00  0.00    -0.228 OA
BRANCH   8  11
HETATM   11  C20 UNL     1       7.404  -5.207  14.046  1.00  0.00     0.141 C 
BRANCH  11  12
HETATM   12  C21 UNL     1       8.692  -5.597  13.367  1.00  0.00     0.019 C 
BRANCH  12  13
HETATM   13  C22 UNL     1       9.810  -5.506  14.371  1.00  0.00    -0.014 C 
HETATM   14  C23 UNL     1       9.349  -5.186  15.763  1.00  0.00     0.005 C 
HETATM   15  C24 UNL     1      10.435  -4.384  16.471  1.00  0.00     0.000 C 
HETATM   16  C25 UNL     1      10.581  -3.016  15.838  1.00  0.00     0.000 C 
HETATM   17  C26 UNL     1      10.530  -3.111  14.325  1.00  0.00     0.000 C 
HETATM   18  C27 UNL     1      10.886  -4.537  13.895  1.00  0.00     0.005 C 
ENDBRANCH  12  13
ENDBRANCH  11  12
ENDBRANCH   8  11
ENDBRANCH   7   8
ENDBRANCH   6   7
BRANCH   1  19
HETATM   19  C4  UNL     1       5.955  -1.002  15.945  1.00  0.00     0.160 C 
BRANCH  19  20
HETATM   20  C3  UNL     1       5.586  -2.309  16.591  1.00  0.00     0.224 C 
HETATM   21  N1  UNL     1       4.224  -2.706  16.663  1.00  0.00    -0.347 N 
ATOM     22  H1  UNL     1       3.527  -2.086  16.251  1.00  0.00     0.163 HD
HETATM   23  O1  UNL     1       6.462  -3.039  17.057  1.00  0.00    -0.273 OA
BRANCH  21  24
HETATM   24  C2  UNL     1       3.762  -3.916  17.275  1.00  0.00     0.181 C 
HETATM   25  C1  UNL     1       2.449  -3.629  17.959  1.00  0.00     0.043 C 
BRANCH  24  26
HETATM   26  C28 UNL     1       3.651  -5.029  16.273  1.00  0.00     0.196 C 
HETATM   27  O4  UNL     1       4.529  -5.915  16.172  1.00  0.00    -0.646 OA
HETATM   28  O5  UNL     1       2.553  -5.090  15.429  1.00  0.00    -0.646 OA
ENDBRANCH  24  26
ENDBRANCH  21  24
ENDBRANCH  19  20
ENDBRANCH   1  19
BRANCH   4  29
HETATM   29  C7  UNL     1       2.934   0.407  12.195  1.00  0.00     0.003 C 
HETATM   30  C8  UNL     1       2.961  -0.286  10.847  1.00  0.00     0.020 C 
HETATM   31  C9  UNL     1       1.817   0.235  10.001  1.00  0.00    -0.013 C 
HETATM   32  C10 UNL     1       0.530  -0.059  10.716  1.00  0.00     0.009 C 
HETATM   33  C14 UNL     1       2.033   1.717   9.834  1.00  0.00     0.009 C 
HETATM   34  C11 UNL     1       0.493   0.661  12.048  1.00  0.00    -0.013 C 
HETATM   35  C12 UNL     1       0.644   2.136  11.779  1.00  0.00     0.009 C 
HETATM   36  C16 UNL     1       1.623   0.135  12.895  1.00  0.00     0.020 C 
HETATM   37  C13 UNL     1       2.009   2.406  11.171  1.00  0.00    -0.013 C 
HETATM   38  C15 UNL     1       3.091   1.888  12.097  1.00  0.00     0.020 C 
ENDBRANCH   4  29
TORSDOF 10
ENDMDL
MODEL 5
REMARK VINA RESULT: -8.785774617      1.861      3.916
REMARK  10 active torsions:
REMARK  status: ('A' for Active; 'I' for Inactive)
REMARK    1  A    between atoms: C2_2  and  N1_3 
REMARK    2  A    between atoms: C2_2  and  C28_36 
REMARK       I    between atoms: N1_3  and  C3_5 
REMARK    3  A    between atoms: C3_5  and  C4_7 
REMARK    4  A    between atoms: C4_7  and  C5_8 
REMARK    5  A    between atoms: C6_11  and  C7_12 
REMARK    6  A    between atoms: C18_23  and  C19_24 
REMARK    7  A    between atoms: C19_24  and  S1_25 
REMARK    8  A    between atoms: S1_25  and  C20_28 
REMARK    9  A    between atoms: C20_28  and  C21_29 
REMARK   10  A    between atoms: C21_29  and  C22_30 
ROOT
HETATM    1  C5  UNL     1       5.175  -1.217  14.854  1.00  0.00     0.025 A 
HETATM    2  N2  UNL     1       4.099  -0.487  14.569  1.00  0.00    -0.361 N 
ATOM      3  H2  UNL     1       3.495  -0.017  15.244  1.00  0.00     0.165 HD
HETATM    4  C6  UNL     1       3.952  -0.481  13.225  1.00  0.00     0.018 A 
HETATM    5  C17 UNL     1       4.957  -1.226  12.661  1.00  0.00     0.035 A 
HETATM    6  C18 UNL     1       5.764  -1.715  13.669  1.00  0.00    -0.019 A 
ENDROOT
BRANCH   6   7
HETATM    7  C19 UNL     1       6.973  -2.555  13.637  1.00  0.00     0.180 C 
BRANCH   7   8
HETATM    8  S1  UNL     1       6.583  -4.177  13.083  1.00  0.00     0.148 S 
HETATM    9  O2  UNL     1       5.215  -4.579  13.502  1.00  0.00    -0.228 OA
HETATM   10  O3  UNL     1       6.801  -4.248  11.593  1.00  0.00    -0.228 OA
BRANCH   8  11
HETATM   11  C20 UNL     1       7.712  -5.368  13.807  1.00  0.00     0.141 C 
BRANCH  11  12
HETATM   12  C21 UNL     1       9.039  -5.319  13.093  1.00  0.00     0.019 C 
BRANCH  12  13
HETATM   13  C22 UNL     1      10.138  -5.411  14.118  1.00  0.00    -0.014 C 
HETATM   14  C23 UNL     1       9.655  -5.779  15.492  1.00  0.00     0.005 C 
HETATM   15  C24 UNL     1      10.563  -5.123  16.526  1.00  0.00     0.000 C 
HETATM   16  C25 UNL     1      10.400  -3.618  16.499  1.00  0.00     0.000 C 
HETATM   17  C26 UNL     1      10.331  -3.107  15.072  1.00  0.00     0.000 C 
HETATM   18  C27 UNL     1      10.970  -4.134  14.134  1.00  0.00     0.005 C 
ENDBRANCH  12  13
ENDBRANCH  11  12
ENDBRANCH   8  11
ENDBRANCH   7   8
ENDBRANCH   6   7
BRANCH   1  19
HETATM   19  C4  UNL     1       5.738  -1.472  16.204  1.00  0.00     0.160 C 
BRANCH  19  20
HETATM   20  C3  UNL     1       5.196  -2.748  16.786  1.00  0.00     0.224 C 
HETATM   21  N1  UNL     1       6.086  -3.736  17.286  1.00  0.00    -0.347 N 
ATOM     22  H1  UNL     1       7.086  -3.536  17.248  1.00  0.00     0.163 HD
HETATM   23  O1  UNL     1       3.980  -2.940  16.833  1.00  0.00    -0.273 OA
BRANCH  21  24
HETATM   24  C2  UNL     1       5.678  -4.993  17.838  1.00  0.00     0.181 C 
HETATM   25  C1  UNL     1       5.596  -5.999  16.718  1.00  0.00     0.043 C 
BRANCH  24  26
HETATM   26  C28 UNL     1       6.603  -5.436  18.935  1.00  0.00     0.196 C 
HETATM   27  O4  UNL     1       6.197  -6.114  19.907  1.00  0.00    -0.646 OA
HETATM   28  O5  UNL     1       7.946  -5.092  18.885  1.00  0.00    -0.646 OA
ENDBRANCH  24  26
ENDBRANCH  21  24
ENDBRANCH  19  20
ENDBRANCH   1  19
BRANCH   4  29
HETATM   29  C7  UNL     1       2.899   0.216  12.428  1.00  0.00     0.003 C 
HETATM   30  C8  UNL     1       2.925  -0.449  11.065  1.00  0.00     0.020 C 
HETATM   31  C9  UNL     1       1.804   0.117  10.218  1.00  0.00    -0.013 C 
HETATM   32  C10 UNL     1       0.502  -0.160  10.911  1.00  0.00     0.009 C 
HETATM   33  C14 UNL     1       2.058   1.596  10.085  1.00  0.00     0.009 C 
HETATM   34  C11 UNL     1       0.467   0.532  12.258  1.00  0.00    -0.013 C 
HETATM   35  C12 UNL     1       0.656   2.008  12.022  1.00  0.00     0.009 C 
HETATM   36  C16 UNL     1       1.574  -0.038  13.106  1.00  0.00     0.020 C 
HETATM   37  C13 UNL     1       2.034   2.258  11.436  1.00  0.00    -0.013 C 
HETATM   38  C15 UNL     1       3.092   1.694  12.363  1.00  0.00     0.020 C 
ENDBRANCH   4  29
TORSDOF 10
ENDMDL
