MODEL 1
REMARK VINA RESULT: -4.838765539      0.000      0.000
REMARK  5 active torsions:
REMARK  status: ('A' for Active; 'I' for Inactive)
REMARK    1  A    between atoms: N1_1  and  C1_5 
REMARK    2  A    between atoms: C1_5  and  C2_6 
REMARK    3  A    between atoms: C2_6  and  N2_7 
REMARK    4  A    between atoms: C2_6  and  N3_11 
REMARK    5  A    between atoms: N3_11  and  C3_13 
ROOT
HETATM    1  C3  UNL     1      73.687  16.209  26.550  1.00  0.00     0.133 A 
HETATM    2  N4  UNL     1      73.677  15.100  27.303  1.00  0.00    -0.337 N 
ATOM      3  H4  UNL     1      73.079  15.047  28.128  1.00  0.00     0.168 HD
HETATM    4  C4  UNL     1      74.464  14.048  26.964  1.00  0.00     0.182 A 
HETATM    5  N5  UNL     1      75.253  14.118  25.880  1.00  0.00    -0.346 N 
ATOM      6  H5  UNL     1      75.841  13.319  25.639  1.00  0.00     0.167 HD
HETATM    7  C5  UNL     1      75.288  15.215  25.102  1.00  0.00     0.132 A 
HETATM    8  C6  UNL     1      76.110  15.278  23.977  1.00  0.00     0.275 A 
HETATM    9  O1  UNL     1      76.832  14.290  23.684  1.00  0.00    -0.266 OA
HETATM   10  N6  UNL     1      76.103  16.418  23.229  1.00  0.00    -0.318 N 
ATOM     11  H6  UNL     1      76.702  16.474  22.404  1.00  0.00     0.169 HD
HETATM   12  C7  UNL     1      75.328  17.471  23.547  1.00  0.00     0.184 A 
HETATM   13  N7  UNL     1      74.536  17.404  24.637  1.00  0.00    -0.347 N 
ATOM     14  H7  UNL     1      73.948  18.201  24.882  1.00  0.00     0.167 HD
HETATM   15  C8  UNL     1      74.512  16.294  25.407  1.00  0.00     0.110 A 
ENDROOT
BRANCH   1  16
HETATM   16  N3  UNL     1      72.997  17.254  26.763  1.00  0.00    -0.346 N 
ATOM     17  H3  UNL     1      73.509  18.078  27.077  1.00  0.00     0.163 HD
BRANCH  16  18
HETATM   18  C2  UNL     1      71.612  17.404  26.615  1.00  0.00     0.308 C 
BRANCH  18  19
HETATM   19  C1  UNL     1      70.964  18.117  27.786  1.00  0.00     0.283 C 
BRANCH  19  20
HETATM   20  N1  UNL     1      71.350  17.478  29.050  1.00  0.00    -0.076 N 
ATOM     21  H13 UNL     1      72.350  17.563  29.229  1.00  0.00     0.274 HD
ATOM     22  H12 UNL     1      71.006  17.996  29.859  1.00  0.00     0.274 HD
ATOM     23  H11 UNL     1      71.043  16.505  29.064  1.00  0.00     0.274 HD
ENDBRANCH  19  20
ENDBRANCH  18  19
BRANCH  18  24
HETATM   24  N2  UNL     1      70.861  16.235  26.242  1.00  0.00    -0.057 N 
ATOM     25  H23 UNL     1      71.191  15.404  26.732  1.00  0.00     0.276 HD
ATOM     26  H22 UNL     1      69.910  16.265  26.612  1.00  0.00     0.276 HD
ATOM     27  H21 UNL     1      70.867  16.104  25.231  1.00  0.00     0.276 HD
ENDBRANCH  18  24
ENDBRANCH  16  18
ENDBRANCH   1  16
TORSDOF 5
ENDMDL
MODEL 2
REMARK VINA RESULT: -4.692863100      2.347      4.989
REMARK  5 active torsions:
REMARK  status: ('A' for Active; 'I' for Inactive)
REMARK    1  A    between atoms: N1_1  and  C1_5 
REMARK    2  A    between atoms: C1_5  and  C2_6 
REMARK    3  A    between atoms: C2_6  and  N2_7 
REMARK    4  A    between atoms: C2_6  and  N3_11 
REMARK    5  A    between atoms: N3_11  and  C3_13 
ROOT
HETATM    1  C3  UNL     1      75.581  15.813  25.387  1.00  0.00     0.133 A 
HETATM    2  N4  UNL     1      75.385  14.550  25.789  1.00  0.00    -0.337 N 
ATOM      3  H4  UNL     1      76.120  13.853  25.665  1.00  0.00     0.168 HD
HETATM    4  C4  UNL     1      74.205  14.200  26.362  1.00  0.00     0.182 A 
HETATM    5  N5  UNL     1      73.237  15.116  26.524  1.00  0.00    -0.346 N 
ATOM      6  H5  UNL     1      72.355  14.837  26.954  1.00  0.00     0.167 HD
HETATM    7  C5  UNL     1      73.400  16.393  26.132  1.00  0.00     0.132 A 
HETATM    8  C6  UNL     1      72.389  17.338  26.305  1.00  0.00     0.275 A 
HETATM    9  O1  UNL     1      71.304  16.989  26.838  1.00  0.00    -0.266 OA
HETATM   10  N6  UNL     1      72.613  18.616  25.886  1.00  0.00    -0.318 N 
ATOM     11  H6  UNL     1      71.879  19.314  26.008  1.00  0.00     0.169 HD
HETATM   12  C7  UNL     1      73.776  18.982  25.318  1.00  0.00     0.184 A 
HETATM   13  N7  UNL     1      74.751  18.064  25.153  1.00  0.00    -0.347 N 
ATOM     14  H7  UNL     1      75.634  18.337  24.721  1.00  0.00     0.167 HD
HETATM   15  C8  UNL     1      74.570  16.785  25.553  1.00  0.00     0.110 A 
ENDROOT
BRANCH   1  16
HETATM   16  N3  UNL     1      76.638  16.260  24.841  1.00  0.00    -0.346 N 
ATOM     17  H3  UNL     1      77.212  16.883  25.408  1.00  0.00     0.163 HD
BRANCH  16  18
HETATM   18  C2  UNL     1      77.103  15.993  23.547  1.00  0.00     0.308 C 
BRANCH  18  19
HETATM   19  C1  UNL     1      75.984  15.799  22.542  1.00  0.00     0.283 C 
BRANCH  19  20
HETATM   20  N1  UNL     1      76.511  15.228  21.296  1.00  0.00    -0.076 N 
ATOM     21  H13 UNL     1      77.090  15.895  20.787  1.00  0.00     0.274 HD
ATOM     22  H12 UNL     1      77.219  14.516  21.474  1.00  0.00     0.274 HD
ATOM     23  H11 UNL     1      75.749  14.870  20.720  1.00  0.00     0.274 HD
ENDBRANCH  19  20
ENDBRANCH  18  19
BRANCH  18  24
HETATM   24  N2  UNL     1      78.107  14.972  23.406  1.00  0.00    -0.057 N 
ATOM     25  H23 UNL     1      78.265  14.733  22.428  1.00  0.00     0.276 HD
ATOM     26  H22 UNL     1      79.037  15.324  23.632  1.00  0.00     0.276 HD
ATOM     27  H21 UNL     1      77.871  14.149  23.961  1.00  0.00     0.276 HD
ENDBRANCH  18  24
ENDBRANCH  16  18
ENDBRANCH   1  16
TORSDOF 5
ENDMDL
MODEL 3
REMARK VINA RESULT: -4.551243044      0.849      2.637
REMARK  5 active torsions:
REMARK  status: ('A' for Active; 'I' for Inactive)
REMARK    1  A    between atoms: N1_1  and  C1_5 
REMARK    2  A    between atoms: C1_5  and  C2_6 
REMARK    3  A    between atoms: C2_6  and  N2_7 
REMARK    4  A    between atoms: C2_6  and  N3_11 
REMARK    5  A    between atoms: N3_11  and  C3_13 
ROOT
HETATM    1  C3  UNL     1      73.300  17.575  26.252  1.00  0.00     0.133 A 
HETATM    2  N4  UNL     1      73.549  18.512  25.327  1.00  0.00    -0.337 N 
ATOM      3  H4  UNL     1      73.067  19.411  25.366  1.00  0.00     0.168 HD
HETATM    4  C4  UNL     1      74.444  18.263  24.338  1.00  0.00     0.182 A 
HETATM    5  N5  UNL     1      75.077  17.079  24.285  1.00  0.00    -0.346 N 
ATOM      6  H5  UNL     1      75.746  16.906  23.534  1.00  0.00     0.167 HD
HETATM    7  C5  UNL     1      74.851  16.116  25.197  1.00  0.00     0.132 A 
HETATM    8  C6  UNL     1      75.513  14.891  25.134  1.00  0.00     0.275 A 
HETATM    9  O1  UNL     1      76.338  14.682  24.207  1.00  0.00    -0.266 OA
HETATM   10  N6  UNL     1      75.241  13.954  26.086  1.00  0.00    -0.318 N 
ATOM     11  H6  UNL     1      75.720  13.054  26.048  1.00  0.00     0.169 HD
HETATM   12  C7  UNL     1      74.358  14.183  27.075  1.00  0.00     0.184 A 
HETATM   13  N7  UNL     1      73.720  15.371  27.131  1.00  0.00    -0.347 N 
ATOM     14  H7  UNL     1      73.049  15.548  27.878  1.00  0.00     0.167 HD
HETATM   15  C8  UNL     1      73.960  16.327  26.207  1.00  0.00     0.110 A 
ENDROOT
BRANCH   1  16
HETATM   16  N3  UNL     1      72.488  17.691  27.222  1.00  0.00    -0.346 N 
ATOM     17  H3  UNL     1      72.900  17.755  28.152  1.00  0.00     0.163 HD
BRANCH  16  18
HETATM   18  C2  UNL     1      71.089  17.740  27.158  1.00  0.00     0.308 C 
BRANCH  18  19
HETATM   19  C1  UNL     1      70.451  18.178  28.462  1.00  0.00     0.283 C 
BRANCH  19  20
HETATM   20  N1  UNL     1      71.109  17.523  29.598  1.00  0.00    -0.076 N 
ATOM     21  H13 UNL     1      71.910  18.058  29.935  1.00  0.00     0.274 HD
ATOM     22  H12 UNL     1      70.537  17.559  30.442  1.00  0.00     0.274 HD
ATOM     23  H11 UNL     1      71.367  16.566  29.355  1.00  0.00     0.274 HD
ENDBRANCH  19  20
ENDBRANCH  18  19
BRANCH  18  24
HETATM   24  N2  UNL     1      70.414  16.593  26.613  1.00  0.00    -0.057 N 
ATOM     25  H23 UNL     1      69.416  16.765  26.495  1.00  0.00     0.276 HD
ATOM     26  H22 UNL     1      70.661  16.441  25.635  1.00  0.00     0.276 HD
ATOM     27  H21 UNL     1      70.589  15.763  27.179  1.00  0.00     0.276 HD
ENDBRANCH  18  24
ENDBRANCH  16  18
ENDBRANCH   1  16
TORSDOF 5
ENDMDL
MODEL 4
REMARK VINA RESULT: -4.550999008      2.172      3.514
REMARK  5 active torsions:
REMARK  status: ('A' for Active; 'I' for Inactive)
REMARK    1  A    between atoms: N1_1  and  C1_5 
REMARK    2  A    between atoms: C1_5  and  C2_6 
REMARK    3  A    between atoms: C2_6  and  N2_7 
REMARK    4  A    between atoms: C2_6  and  N3_11 
REMARK    5  A    between atoms: N3_11  and  C3_13 
ROOT
HETATM    1  C3  UNL     1      74.918  17.129  25.363  1.00  0.00     0.133 A 
HETATM    2  N4  UNL     1      74.198  18.224  25.080  1.00  0.00    -0.337 N 
ATOM      3  H4  UNL     1      73.653  18.681  25.811  1.00  0.00     0.168 HD
HETATM    4  C4  UNL     1      74.196  18.722  23.817  1.00  0.00     0.182 A 
HETATM    5  N5  UNL     1      74.913  18.119  22.854  1.00  0.00    -0.346 N 
ATOM      6  H5  UNL     1      74.900  18.504  21.909  1.00  0.00     0.167 HD
HETATM    7  C5  UNL     1      75.646  17.019  23.103  1.00  0.00     0.132 A 
HETATM    8  C6  UNL     1      76.387  16.400  22.097  1.00  0.00     0.275 A 
HETATM    9  O1  UNL     1      76.369  16.880  20.934  1.00  0.00    -0.266 OA
HETATM   10  N6  UNL     1      77.110  15.288  22.411  1.00  0.00    -0.318 N 
ATOM     11  H6  UNL     1      77.654  14.827  21.681  1.00  0.00     0.169 HD
HETATM   12  C7  UNL     1      77.125  14.780  23.656  1.00  0.00     0.184 A 
HETATM   13  N7  UNL     1      76.406  15.382  24.626  1.00  0.00    -0.347 N 
ATOM     14  H7  UNL     1      76.415  15.000  25.572  1.00  0.00     0.167 HD
HETATM   15  C8  UNL     1      75.675  16.487  24.358  1.00  0.00     0.110 A 
ENDROOT
BRANCH   1  16
HETATM   16  N3  UNL     1      75.000  16.572  26.502  1.00  0.00    -0.346 N 
ATOM     17  H3  UNL     1      75.858  16.738  27.026  1.00  0.00     0.163 HD
BRANCH  16  18
HETATM   18  C2  UNL     1      74.044  15.754  27.118  1.00  0.00     0.308 C 
BRANCH  18  19
HETATM   19  C1  UNL     1      74.617  14.441  27.615  1.00  0.00     0.283 C 
BRANCH  19  20
HETATM   20  N1  UNL     1      73.794  13.317  27.153  1.00  0.00    -0.076 N 
ATOM     21  H13 UNL     1      72.810  13.574  27.073  1.00  0.00     0.274 HD
ATOM     22  H12 UNL     1      73.973  13.092  26.174  1.00  0.00     0.274 HD
ATOM     23  H11 UNL     1      73.926  12.507  27.760  1.00  0.00     0.274 HD
ENDBRANCH  19  20
ENDBRANCH  18  19
BRANCH  18  24
HETATM   24  N2  UNL     1      72.806  15.544  26.415  1.00  0.00    -0.057 N 
ATOM     25  H23 UNL     1      72.833  14.693  25.854  1.00  0.00     0.276 HD
ATOM     26  H22 UNL     1      72.051  15.286  27.051  1.00  0.00     0.276 HD
ATOM     27  H21 UNL     1      72.562  16.358  25.852  1.00  0.00     0.276 HD
ENDBRANCH  18  24
ENDBRANCH  16  18
ENDBRANCH   1  16
TORSDOF 5
ENDMDL
MODEL 5
REMARK VINA RESULT: -4.550783516      3.441      5.641
REMARK  5 active torsions:
REMARK  status: ('A' for Active; 'I' for Inactive)
REMARK    1  A    between atoms: N1_1  and  C1_5 
REMARK    2  A    between atoms: C1_5  and  C2_6 
REMARK    3  A    between atoms: C2_6  and  N2_7 
REMARK    4  A    between atoms: C2_6  and  N3_11 
REMARK    5  A    between atoms: N3_11  and  C3_13 
ROOT
HETATM    1  C3  UNL     1      76.226  15.827  25.896  1.00  0.00     0.133 A 
HETATM    2  N4  UNL     1      76.898  16.934  26.240  1.00  0.00    -0.337 N 
ATOM      3  H4  UNL     1      77.370  17.490  25.526  1.00  0.00     0.168 HD
HETATM    4  C4  UNL     1      76.950  17.314  27.542  1.00  0.00     0.182 A 
HETATM    5  N5  UNL     1      76.330  16.582  28.483  1.00  0.00    -0.346 N 
ATOM      6  H5  UNL     1      76.380  16.880  29.458  1.00  0.00     0.167 HD
HETATM    7  C5  UNL     1      75.647  15.466  28.172  1.00  0.00     0.132 A 
HETATM    8  C6  UNL     1      75.007  14.713  29.155  1.00  0.00     0.275 A 
HETATM    9  O1  UNL     1      75.069  15.084  30.356  1.00  0.00    -0.266 OA
HETATM   10  N6  UNL     1      74.330  13.590  28.779  1.00  0.00    -0.318 N 
ATOM     11  H6  UNL     1      73.859  13.032  29.492  1.00  0.00     0.169 HD
HETATM   12  C7  UNL     1      74.267  13.198  27.493  1.00  0.00     0.184 A 
HETATM   13  N7  UNL     1      74.889  13.931  26.546  1.00  0.00    -0.347 N 
ATOM     14  H7  UNL     1      74.844  13.636  25.571  1.00  0.00     0.167 HD
HETATM   15  C8  UNL     1      75.571  15.050  26.876  1.00  0.00     0.110 A 
ENDROOT
BRANCH   1  16
HETATM   16  N3  UNL     1      76.106  15.372  24.716  1.00  0.00    -0.346 N 
ATOM     17  H3  UNL     1      75.405  14.644  24.581  1.00  0.00     0.163 HD
BRANCH  16  18
HETATM   18  C2  UNL     1      76.828  15.757  23.579  1.00  0.00     0.308 C 
BRANCH  18  19
HETATM   19  C1  UNL     1      75.965  15.869  22.337  1.00  0.00     0.283 C 
BRANCH  19  20
HETATM   20  N1  UNL     1      76.597  15.172  21.210  1.00  0.00    -0.076 N 
ATOM     21  H13 UNL     1      77.303  15.750  20.754  1.00  0.00     0.274 HD
ATOM     22  H12 UNL     1      77.202  14.414  21.525  1.00  0.00     0.274 HD
ATOM     23  H11 UNL     1      75.889  14.846  20.553  1.00  0.00     0.274 HD
ENDBRANCH  19  20
ENDBRANCH  18  19
BRANCH  18  24
HETATM   24  N2  UNL     1      78.045  15.041  23.298  1.00  0.00    -0.057 N 
ATOM     25  H23 UNL     1      77.914  14.033  23.375  1.00  0.00     0.276 HD
ATOM     26  H22 UNL     1      78.291  15.090  22.309  1.00  0.00     0.276 HD
ATOM     27  H21 UNL     1      78.807  15.368  23.892  1.00  0.00     0.276 HD
ENDBRANCH  18  24
ENDBRANCH  16  18
ENDBRANCH   1  16
TORSDOF 5
ENDMDL
