MODEL 1
REMARK VINA RESULT: -4.875801897      0.000      0.000
REMARK  3 active torsions:
REMARK  status: ('A' for Active; 'I' for Inactive)
REMARK    1  A    between atoms: C3_5  and  C4_6 
REMARK    2  A    between atoms: C5_9  and  N4_10 
REMARK    3  A    between atoms: C7_17  and  C8_18 
ROOT
HETATM    1  N1  UNL     1      76.545  16.171  20.695  1.00  0.00    -0.190 NA
HETATM    2  C1  UNL     1      76.371  15.874  21.799  1.00  0.00     0.114 C 
HETATM    3  C2  UNL     1      76.148  15.527  23.184  1.00  0.00     0.128 C 
HETATM    4  N2  UNL     1      76.848  14.348  23.623  1.00  0.00    -0.090 NA
HETATM    5  C3  UNL     1      75.357  16.230  23.972  1.00  0.00     0.069 C 
ENDROOT
BRANCH   5   6
HETATM    6  C4  UNL     1      75.145  15.868  25.362  1.00  0.00     0.072 A 
HETATM    7  N3  UNL     1      74.454  14.715  25.662  1.00  0.00    -0.191 N 
HETATM    8  C5  UNL     1      74.205  14.330  26.923  1.00  0.00     0.679 A 
ATOM      9  H3  UNL     1      74.119  14.131  24.896  1.00  0.00     0.184 HD
HETATM   10  N5  UNL     1      74.656  15.113  27.913  1.00  0.00    -0.155 N 
HETATM   11  C6  UNL     1      75.327  16.236  27.729  1.00  0.00     0.277 A 
ATOM     12  H5  UNL     1      74.469  14.824  28.873  1.00  0.00     0.187 HD
HETATM   13  O1  UNL     1      75.750  16.969  28.665  1.00  0.00    -0.267 OA
HETATM   14  C7  UNL     1      75.589  16.643  26.407  1.00  0.00     0.124 A 
BRANCH   8  15
HETATM   15  N4  UNL     1      73.549  13.242  27.142  1.00  0.00    -0.234 N 
ATOM     16  H42 UNL     1      73.768  12.613  27.916  1.00  0.00     0.174 HD
ATOM     17  H41 UNL     1      72.776  12.984  26.529  1.00  0.00     0.174 HD
ENDBRANCH   8  15
BRANCH  14  18
HETATM   18  C8  UNL     1      76.299  17.884  26.183  1.00  0.00     0.272 C 
HETATM   19  N6  UNL     1      75.568  19.092  26.083  1.00  0.00    -0.057 NA
HETATM   20  O2  UNL     1      77.529  17.933  26.072  1.00  0.00    -0.271 OA
ENDBRANCH  14  18
ENDBRANCH   5   6
TORSDOF 3
ENDMDL
MODEL 2
REMARK VINA RESULT: -4.775266481      2.147      4.833
REMARK  3 active torsions:
REMARK  status: ('A' for Active; 'I' for Inactive)
REMARK    1  A    between atoms: C3_5  and  C4_6 
REMARK    2  A    between atoms: C5_9  and  N4_10 
REMARK    3  A    between atoms: C7_17  and  C8_18 
ROOT
HETATM    1  N1  UNL     1      74.737  13.365  29.808  1.00  0.00    -0.190 NA
HETATM    2  C1  UNL     1      74.920  13.704  28.718  1.00  0.00     0.114 C 
HETATM    3  C2  UNL     1      75.146  14.151  27.362  1.00  0.00     0.128 C 
HETATM    4  N2  UNL     1      74.874  13.159  26.355  1.00  0.00    -0.090 NA
HETATM    5  C3  UNL     1      75.576  15.365  27.079  1.00  0.00     0.069 C 
ENDROOT
BRANCH   5   6
HETATM    6  C4  UNL     1      75.796  15.799  25.710  1.00  0.00     0.072 A 
HETATM    7  N3  UNL     1      76.876  15.308  25.012  1.00  0.00    -0.191 N 
HETATM    8  C5  UNL     1      77.151  15.680  23.752  1.00  0.00     0.679 A 
ATOM      9  H3  UNL     1      77.492  14.636  25.470  1.00  0.00     0.184 HD
HETATM   10  N5  UNL     1      76.326  16.563  23.171  1.00  0.00    -0.155 N 
HETATM   11  C6  UNL     1      75.266  17.090  23.756  1.00  0.00     0.277 A 
ATOM     12  H5  UNL     1      76.532  16.848  22.214  1.00  0.00     0.187 HD
HETATM   13  O1  UNL     1      74.493  17.922  23.204  1.00  0.00    -0.267 OA
HETATM   14  C7  UNL     1      74.977  16.703  25.078  1.00  0.00     0.124 A 
BRANCH   8  15
HETATM   15  N4  UNL     1      78.180  15.189  23.150  1.00  0.00    -0.234 N 
ATOM     16  H42 UNL     1      78.131  14.794  22.211  1.00  0.00     0.174 HD
ATOM     17  H41 UNL     1      79.087  15.190  23.616  1.00  0.00     0.174 HD
ENDBRANCH   8  15
BRANCH  14  18
HETATM   18  C8  UNL     1      73.834  17.290  25.747  1.00  0.00     0.272 C 
HETATM   19  N6  UNL     1      73.976  18.545  26.386  1.00  0.00    -0.057 NA
HETATM   20  O2  UNL     1      72.731  16.734  25.785  1.00  0.00    -0.271 OA
ENDBRANCH  14  18
ENDBRANCH   5   6
TORSDOF 3
ENDMDL
MODEL 3
REMARK VINA RESULT: -4.673158170      2.631      5.928
REMARK  3 active torsions:
REMARK  status: ('A' for Active; 'I' for Inactive)
REMARK    1  A    between atoms: C3_5  and  C4_6 
REMARK    2  A    between atoms: C5_9  and  N4_10 
REMARK    3  A    between atoms: C7_17  and  C8_18 
ROOT
HETATM    1  N1  UNL     1      74.469  15.434  25.907  1.00  0.00    -0.190 NA
HETATM    2  C1  UNL     1      75.102  15.413  24.941  1.00  0.00     0.114 C 
HETATM    3  C2  UNL     1      75.878  15.401  23.721  1.00  0.00     0.128 C 
HETATM    4  N2  UNL     1      76.813  14.311  23.621  1.00  0.00    -0.090 NA
HETATM    5  C3  UNL     1      75.743  16.322  22.786  1.00  0.00     0.069 C 
ENDROOT
BRANCH   5   6
HETATM    6  C4  UNL     1      76.528  16.293  21.565  1.00  0.00     0.072 A 
HETATM    7  N3  UNL     1      76.466  15.187  20.748  1.00  0.00    -0.191 N 
HETATM    8  C5  UNL     1      77.179  15.084  19.616  1.00  0.00     0.679 A 
ATOM      9  H3  UNL     1      75.854  14.415  21.013  1.00  0.00     0.184 HD
HETATM   10  N5  UNL     1      77.975  16.111  19.288  1.00  0.00    -0.155 N 
HETATM   11  C6  UNL     1      78.104  17.214  20.004  1.00  0.00     0.277 A 
ATOM     12  H5  UNL     1      78.519  16.037  18.428  1.00  0.00     0.187 HD
HETATM   13  O1  UNL     1      78.856  18.178  19.689  1.00  0.00    -0.267 OA
HETATM   14  C7  UNL     1      77.358  17.323  21.192  1.00  0.00     0.124 A 
BRANCH   8  15
HETATM   15  N4  UNL     1      77.082  14.021  18.893  1.00  0.00    -0.234 N 
ATOM     16  H42 UNL     1      76.544  13.992  18.026  1.00  0.00     0.174 HD
ATOM     17  H41 UNL     1      77.558  13.166  19.183  1.00  0.00     0.174 HD
ENDBRANCH   8  15
BRANCH  14  18
HETATM   18  C8  UNL     1      77.505  18.512  22.006  1.00  0.00     0.272 C 
HETATM   19  N6  UNL     1      76.656  19.620  21.773  1.00  0.00    -0.057 NA
HETATM   20  O2  UNL     1      78.350  18.600  22.903  1.00  0.00    -0.271 OA
ENDBRANCH  14  18
ENDBRANCH   5   6
TORSDOF 3
ENDMDL
MODEL 4
REMARK VINA RESULT: -4.614307843      2.172      2.272
REMARK  3 active torsions:
REMARK  status: ('A' for Active; 'I' for Inactive)
REMARK    1  A    between atoms: C3_5  and  C4_6 
REMARK    2  A    between atoms: C5_9  and  N4_10 
REMARK    3  A    between atoms: C7_17  and  C8_18 
ROOT
HETATM    1  N1  UNL     1      79.426  16.632  22.594  1.00  0.00    -0.190 NA
HETATM    2  C1  UNL     1      78.435  16.263  23.060  1.00  0.00     0.114 C 
HETATM    3  C2  UNL     1      77.202  15.809  23.665  1.00  0.00     0.128 C 
HETATM    4  N2  UNL     1      76.518  14.782  22.923  1.00  0.00    -0.090 NA
HETATM    5  C3  UNL     1      76.743  16.307  24.796  1.00  0.00     0.069 C 
ENDROOT
BRANCH   5   6
HETATM    6  C4  UNL     1      75.504  15.838  25.391  1.00  0.00     0.072 A 
HETATM    7  N3  UNL     1      75.441  14.561  25.901  1.00  0.00    -0.191 N 
HETATM    8  C5  UNL     1      74.324  14.055  26.446  1.00  0.00     0.679 A 
ATOM      9  H3  UNL     1      76.275  13.976  25.862  1.00  0.00     0.184 HD
HETATM   10  N5  UNL     1      73.240  14.844  26.487  1.00  0.00    -0.155 N 
HETATM   11  C6  UNL     1      73.200  16.081  26.026  1.00  0.00     0.277 A 
ATOM     12  H5  UNL     1      72.390  14.463  26.901  1.00  0.00     0.187 HD
HETATM   13  O1  UNL     1      72.176  16.818  26.067  1.00  0.00    -0.267 OA
HETATM   14  C7  UNL     1      74.370  16.613  25.452  1.00  0.00     0.124 A 
BRANCH   8  15
HETATM   15  N4  UNL     1      74.324  12.850  26.904  1.00  0.00    -0.234 N 
ATOM     16  H42 UNL     1      74.463  12.034  26.306  1.00  0.00     0.174 HD
ATOM     17  H41 UNL     1      74.184  12.686  27.900  1.00  0.00     0.174 HD
ENDBRANCH   8  15
BRANCH  14  18
HETATM   18  C8  UNL     1      74.340  17.957  24.915  1.00  0.00     0.272 C 
HETATM   19  N6  UNL     1      74.598  19.052  25.775  1.00  0.00    -0.057 NA
HETATM   20  O2  UNL     1      74.094  18.191  23.727  1.00  0.00    -0.271 OA
ENDBRANCH  14  18
ENDBRANCH   5   6
TORSDOF 3
ENDMDL
MODEL 5
REMARK VINA RESULT: -4.597312950      2.775      4.409
REMARK  3 active torsions:
REMARK  status: ('A' for Active; 'I' for Inactive)
REMARK    1  A    between atoms: C3_5  and  C4_6 
REMARK    2  A    between atoms: C5_9  and  N4_10 
REMARK    3  A    between atoms: C7_17  and  C8_18 
ROOT
HETATM    1  N1  UNL     1      71.028  20.354  27.019  1.00  0.00    -0.190 NA
HETATM    2  C1  UNL     1      71.479  19.312  26.802  1.00  0.00     0.114 C 
HETATM    3  C2  UNL     1      72.063  18.019  26.522  1.00  0.00     0.128 C 
HETATM    4  N2  UNL     1      71.108  16.949  26.394  1.00  0.00    -0.090 NA
HETATM    5  C3  UNL     1      73.364  17.840  26.405  1.00  0.00     0.069 C 
ENDROOT
BRANCH   5   6
HETATM    6  C4  UNL     1      73.934  16.535  26.121  1.00  0.00     0.072 A 
HETATM    7  N3  UNL     1      73.540  15.449  26.869  1.00  0.00    -0.191 N 
HETATM    8  C5  UNL     1      74.039  14.219  26.675  1.00  0.00     0.679 A 
ATOM      9  H3  UNL     1      72.842  15.584  27.600  1.00  0.00     0.184 HD
HETATM   10  N5  UNL     1      74.956  14.065  25.708  1.00  0.00    -0.155 N 
HETATM   11  C6  UNL     1      75.397  15.043  24.938  1.00  0.00     0.277 A 
ATOM     12  H5  UNL     1      75.337  13.131  25.558  1.00  0.00     0.187 HD
HETATM   13  O1  UNL     1      76.260  14.892  24.029  1.00  0.00    -0.267 OA
HETATM   14  C7  UNL     1      74.877  16.334  25.141  1.00  0.00     0.124 A 
BRANCH   8  15
HETATM   15  N4  UNL     1      73.635  13.240  27.411  1.00  0.00    -0.234 N 
ATOM     16  H42 UNL     1      73.567  13.307  28.427  1.00  0.00     0.174 HD
ATOM     17  H41 UNL     1      73.365  12.358  26.977  1.00  0.00     0.174 HD
ENDBRANCH   8  15
BRANCH  14  18
HETATM   18  C8  UNL     1      75.368  17.425  24.326  1.00  0.00     0.272 C 
HETATM   19  N6  UNL     1      74.706  17.736  23.113  1.00  0.00    -0.057 NA
HETATM   20  O2  UNL     1      76.350  18.102  24.647  1.00  0.00    -0.271 OA
ENDBRANCH  14  18
ENDBRANCH   5   6
TORSDOF 3
ENDMDL
