MODEL 1
REMARK VINA RESULT: -5.446287375      0.000      0.000
REMARK  3 active torsions:
REMARK  status: ('A' for Active; 'I' for Inactive)
REMARK    1  A    between atoms: C2_3  and  O1_4 
REMARK    2  A    between atoms: C2_3  and  C3_6 
REMARK    3  A    between atoms: C3_6  and  N2_7 
ROOT
HETATM    1  N1  UNL     1      74.908  13.246  26.376  1.00  0.00    -0.194 NA
HETATM    2  C1  UNL     1      75.233  14.338  26.588  1.00  0.00     0.092 C 
HETATM    3  C2  UNL     1      75.621  15.712  26.844  1.00  0.00     0.242 C 
ENDROOT
BRANCH   3   4
HETATM    4  O1  UNL     1      76.837  15.700  27.523  1.00  0.00    -0.380 OA
ATOM      5  H1  UNL     1      77.517  15.972  26.918  1.00  0.00     0.211 HD
ENDBRANCH   3   4
BRANCH   3   6
HETATM    6  C3  UNL     1      75.813  16.451  25.508  1.00  0.00     0.168 C 
BRANCH   6   7
HETATM    7  N2  UNL     1      77.032  16.087  24.888  1.00  0.00    -0.368 N 
HETATM    8  C4  UNL     1      77.249  15.699  23.693  1.00  0.00     0.173 C 
HETATM    9  N3  UNL     1      78.547  15.410  23.359  1.00  0.00    -0.312 N 
HETATM   10  C7  UNL     1      76.205  15.585  22.800  1.00  0.00     0.293 C 
HETATM   11  C5  UNL     1      79.118  15.590  22.135  1.00  0.00     0.198 C 
ATOM     12  H3  UNL     1      79.139  15.024  24.094  1.00  0.00     0.170 HD
HETATM   13  N4  UNL     1      80.531  15.480  22.067  1.00  0.00    -0.063 NA
HETATM   14  N5  UNL     1      78.545  15.863  20.950  1.00  0.00    -0.282 N 
HETATM   15  C6  UNL     1      77.244  15.974  20.618  1.00  0.00     0.329 C 
ATOM     16  H5  UNL     1      79.198  16.008  20.180  1.00  0.00     0.173 HD
HETATM   17  O2  UNL     1      76.986  16.254  19.400  1.00  0.00    -0.247 OA
HETATM   18  N6  UNL     1      76.205  15.817  21.457  1.00  0.00    -0.272 N 
ATOM     19  H6  UNL     1      75.283  15.881  21.026  1.00  0.00     0.174 HD
HETATM   20  O3  UNL     1      75.125  15.217  23.329  1.00  0.00    -0.264 OA
ATOM     21  H2  UNL     1      77.857  16.144  25.484  1.00  0.00     0.161 HD
ENDBRANCH   6   7
ENDBRANCH   3   6
TORSDOF 3
ENDMDL
MODEL 2
REMARK VINA RESULT: -5.267038369      2.108      2.582
REMARK  3 active torsions:
REMARK  status: ('A' for Active; 'I' for Inactive)
REMARK    1  A    between atoms: C2_3  and  O1_4 
REMARK    2  A    between atoms: C2_3  and  C3_6 
REMARK    3  A    between atoms: C3_6  and  N2_7 
ROOT
HETATM    1  N1  UNL     1      73.740  17.537  25.914  1.00  0.00    -0.194 NA
HETATM    2  C1  UNL     1      73.876  16.387  25.950  1.00  0.00     0.092 C 
HETATM    3  C2  UNL     1      74.058  14.949  26.014  1.00  0.00     0.242 C 
ENDROOT
BRANCH   3   4
HETATM    4  O1  UNL     1      73.429  14.383  24.908  1.00  0.00    -0.380 OA
ATOM      5  H1  UNL     1      73.947  13.640  24.620  1.00  0.00     0.211 HD
ENDBRANCH   3   4
BRANCH   3   6
HETATM    6  C3  UNL     1      75.558  14.615  25.950  1.00  0.00     0.168 C 
BRANCH   6   7
HETATM    7  N2  UNL     1      76.324  15.750  25.592  1.00  0.00    -0.368 N 
HETATM    8  C4  UNL     1      76.894  16.027  24.486  1.00  0.00     0.173 C 
HETATM    9  N3  UNL     1      77.579  17.213  24.418  1.00  0.00    -0.312 N 
HETATM   10  C7  UNL     1      76.808  15.153  23.423  1.00  0.00     0.293 C 
HETATM   11  C5  UNL     1      77.712  17.999  23.313  1.00  0.00     0.198 C 
ATOM     12  H3  UNL     1      78.030  17.536  25.274  1.00  0.00     0.170 HD
HETATM   13  N4  UNL     1      78.229  19.305  23.517  1.00  0.00    -0.063 NA
HETATM   14  N5  UNL     1      77.427  17.731  22.027  1.00  0.00    -0.282 N 
HETATM   15  C6  UNL     1      76.987  16.595  21.453  1.00  0.00     0.329 C 
ATOM     16  H5  UNL     1      77.564  18.511  21.385  1.00  0.00     0.173 HD
HETATM   17  O2  UNL     1      76.788  16.630  20.193  1.00  0.00    -0.247 OA
HETATM   18  N6  UNL     1      76.742  15.437  22.092  1.00  0.00    -0.272 N 
ATOM     19  H6  UNL     1      76.467  14.659  21.493  1.00  0.00     0.174 HD
HETATM   20  O3  UNL     1      76.787  13.943  23.764  1.00  0.00    -0.264 OA
ATOM     21  H2  UNL     1      76.437  16.448  26.327  1.00  0.00     0.161 HD
ENDBRANCH   6   7
ENDBRANCH   3   6
TORSDOF 3
ENDMDL
MODEL 3
REMARK VINA RESULT: -5.249115300      2.119      2.268
REMARK  3 active torsions:
REMARK  status: ('A' for Active; 'I' for Inactive)
REMARK    1  A    between atoms: C2_3  and  O1_4 
REMARK    2  A    between atoms: C2_3  and  C3_6 
REMARK    3  A    between atoms: C3_6  and  N2_7 
ROOT
HETATM    1  N1  UNL     1      74.983  13.246  29.671  1.00  0.00    -0.194 NA
HETATM    2  C1  UNL     1      74.902  13.425  28.529  1.00  0.00     0.092 C 
HETATM    3  C2  UNL     1      74.822  13.648  27.098  1.00  0.00     0.242 C 
ENDROOT
BRANCH   3   4
HETATM    4  O1  UNL     1      73.476  13.688  26.739  1.00  0.00    -0.380 OA
ATOM      5  H1  UNL     1      73.423  13.737  25.792  1.00  0.00     0.211 HD
ENDBRANCH   3   4
BRANCH   3   6
HETATM    6  C3  UNL     1      75.463  15.003  26.750  1.00  0.00     0.168 C 
BRANCH   6   7
HETATM    7  N2  UNL     1      76.431  14.869  25.728  1.00  0.00    -0.368 N 
HETATM    8  C4  UNL     1      76.429  15.339  24.542  1.00  0.00     0.173 C 
HETATM    9  N3  UNL     1      77.513  15.048  23.756  1.00  0.00    -0.312 N 
HETATM   10  C7  UNL     1      75.370  16.102  24.101  1.00  0.00     0.293 C 
HETATM   11  C5  UNL     1      78.046  15.854  22.795  1.00  0.00     0.198 C 
ATOM     12  H3  UNL     1      77.962  14.144  23.903  1.00  0.00     0.170 HD
HETATM   13  N4  UNL     1      79.316  15.485  22.283  1.00  0.00    -0.063 NA
HETATM   14  N5  UNL     1      77.549  16.973  22.239  1.00  0.00    -0.282 N 
HETATM   15  C6  UNL     1      76.362  17.583  22.424  1.00  0.00     0.329 C 
ATOM     16  H5  UNL     1      78.168  17.433  21.572  1.00  0.00     0.173 HD
HETATM   17  O2  UNL     1      76.159  18.654  21.760  1.00  0.00    -0.247 OA
HETATM   18  N6  UNL     1      75.383  17.160  23.243  1.00  0.00    -0.272 N 
ATOM     19  H6  UNL     1      74.526  17.713  23.219  1.00  0.00     0.174 HD
HETATM   20  O3  UNL     1      74.259  15.747  24.573  1.00  0.00    -0.264 OA
ATOM     21  H2  UNL     1      77.252  14.315  25.975  1.00  0.00     0.161 HD
ENDBRANCH   6   7
ENDBRANCH   3   6
TORSDOF 3
ENDMDL
MODEL 4
REMARK VINA RESULT: -5.194185522      2.255      2.561
REMARK  3 active torsions:
REMARK  status: ('A' for Active; 'I' for Inactive)
REMARK    1  A    between atoms: C2_3  and  O1_4 
REMARK    2  A    between atoms: C2_3  and  C3_6 
REMARK    3  A    between atoms: C3_6  and  N2_7 
ROOT
HETATM    1  N1  UNL     1      72.592  15.385  25.859  1.00  0.00    -0.194 NA
HETATM    2  C1  UNL     1      73.628  14.909  26.070  1.00  0.00     0.092 C 
HETATM    3  C2  UNL     1      74.930  14.333  26.344  1.00  0.00     0.242 C 
ENDROOT
BRANCH   3   4
HETATM    4  O1  UNL     1      74.969  13.060  25.778  1.00  0.00    -0.380 OA
ATOM      5  H1  UNL     1      75.151  12.434  26.470  1.00  0.00     0.211 HD
ENDBRANCH   3   4
BRANCH   3   6
HETATM    6  C3  UNL     1      76.025  15.194  25.690  1.00  0.00     0.168 C 
BRANCH   6   7
HETATM    7  N2  UNL     1      76.109  14.951  24.299  1.00  0.00    -0.368 N 
HETATM    8  C4  UNL     1      76.129  15.780  23.330  1.00  0.00     0.173 C 
HETATM    9  N3  UNL     1      76.218  15.259  22.066  1.00  0.00    -0.312 N 
HETATM   10  C7  UNL     1      76.061  17.135  23.577  1.00  0.00     0.293 C 
HETATM   11  C5  UNL     1      76.851  15.834  21.005  1.00  0.00     0.198 C 
ATOM     12  H3  UNL     1      75.769  14.358  21.904  1.00  0.00     0.170 HD
HETATM   13  N4  UNL     1      77.056  15.017  19.864  1.00  0.00    -0.063 NA
HETATM   14  N5  UNL     1      77.325  17.084  20.861  1.00  0.00    -0.282 N 
HETATM   15  C6  UNL     1      77.257  18.141  21.693  1.00  0.00     0.329 C 
ATOM     16  H5  UNL     1      77.813  17.260  19.983  1.00  0.00     0.173 HD
HETATM   17  O2  UNL     1      77.812  19.220  21.295  1.00  0.00    -0.247 OA
HETATM   18  N6  UNL     1      76.659  18.154  22.898  1.00  0.00    -0.272 N 
ATOM     19  H6  UNL     1      76.654  19.057  23.372  1.00  0.00     0.174 HD
HETATM   20  O3  UNL     1      75.346  17.435  24.567  1.00  0.00    -0.264 OA
ATOM     21  H2  UNL     1      76.162  13.968  24.031  1.00  0.00     0.161 HD
ENDBRANCH   6   7
ENDBRANCH   3   6
TORSDOF 3
ENDMDL
MODEL 5
REMARK VINA RESULT: -5.189777953      1.517      1.597
REMARK  3 active torsions:
REMARK  status: ('A' for Active; 'I' for Inactive)
REMARK    1  A    between atoms: C2_3  and  O1_4 
REMARK    2  A    between atoms: C2_3  and  C3_6 
REMARK    3  A    between atoms: C3_6  and  N2_7 
ROOT
HETATM    1  N1  UNL     1      74.674  13.716  28.761  1.00  0.00    -0.194 NA
HETATM    2  C1  UNL     1      74.790  13.813  27.612  1.00  0.00     0.092 C 
HETATM    3  C2  UNL     1      74.958  13.935  26.177  1.00  0.00     0.242 C 
ENDROOT
BRANCH   3   4
HETATM    4  O1  UNL     1      73.701  13.842  25.583  1.00  0.00    -0.380 OA
ATOM      5  H1  UNL     1      73.430  14.715  25.326  1.00  0.00     0.211 HD
ENDBRANCH   3   4
BRANCH   3   6
HETATM    6  C3  UNL     1      75.558  15.312  25.843  1.00  0.00     0.168 C 
BRANCH   6   7
HETATM    7  N2  UNL     1      76.781  15.185  25.142  1.00  0.00    -0.368 N 
HETATM    8  C4  UNL     1      77.040  15.418  23.915  1.00  0.00     0.173 C 
HETATM    9  N3  UNL     1      78.329  15.207  23.500  1.00  0.00    -0.312 N 
HETATM   10  C7  UNL     1      76.046  15.860  23.068  1.00  0.00     0.293 C 
HETATM   11  C5  UNL     1      78.986  15.911  22.536  1.00  0.00     0.198 C 
ATOM     12  H3  UNL     1      78.844  14.453  23.956  1.00  0.00     0.170 HD
HETATM   13  N4  UNL     1      80.388  15.713  22.444  1.00  0.00    -0.063 NA
HETATM   14  N5  UNL     1      78.508  16.787  21.635  1.00  0.00    -0.282 N 
HETATM   15  C6  UNL     1      77.243  17.172  21.383  1.00  0.00     0.329 C 
ATOM     16  H5  UNL     1      79.216  17.229  21.048  1.00  0.00     0.173 HD
HETATM   17  O2  UNL     1      77.080  18.040  20.461  1.00  0.00    -0.247 OA
HETATM   18  N6  UNL     1      76.145  16.723  22.019  1.00  0.00    -0.272 N 
ATOM     19  H6  UNL     1      75.259  17.080  21.663  1.00  0.00     0.174 HD
HETATM   20  O3  UNL     1      74.911  15.386  23.329  1.00  0.00    -0.264 OA
ATOM     21  H2  UNL     1      77.571  14.861  25.700  1.00  0.00     0.161 HD
ENDBRANCH   6   7
ENDBRANCH   3   6
TORSDOF 3
ENDMDL
