MODEL 1
REMARK VINA RESULT: -5.493822553      0.000      0.000
REMARK  5 active torsions:
REMARK  status: ('A' for Active; 'I' for Inactive)
REMARK    1  A    between atoms: C3_4  and  C4_5 
REMARK    2  A    between atoms: C4_5  and  N2_6 
REMARK    3  A    between atoms: C6_11  and  N4_12 
REMARK       I    between atoms: N4_12  and  C7_14 
REMARK       I    between atoms: C7_14  and  N5_15 
REMARK       I    between atoms: C7_14  and  N6_19 
REMARK    4  A    between atoms: C8_25  and  N8_26 
REMARK    5  A    between atoms: N8_26  and  C9_28 
ROOT
HETATM    1  N2  UNL     1      16.354 -36.555  30.841  1.00  0.00    -0.126 N 
HETATM    2  C5  UNL     1      16.852 -35.667  31.715  1.00  0.00     0.355 A 
HETATM    3  O1  UNL     1      16.071 -34.827  32.262  1.00  0.00    -0.245 OA
HETATM    4  N3  UNL     1      18.166 -35.641  32.031  1.00  0.00    -0.140 N 
ATOM      5  H3  UNL     1      18.505 -34.950  32.701  1.00  0.00     0.189 HD
HETATM    6  C6  UNL     1      19.033 -36.504  31.483  1.00  0.00     0.699 A 
HETATM    7  N7  UNL     1      18.525 -37.403  30.597  1.00  0.00    -0.022 N 
ATOM      8  H7  UNL     1      19.153 -38.077  30.158  1.00  0.00     0.203 HD
HETATM    9  C8  UNL     1      17.215 -37.428  30.283  1.00  0.00     0.700 A 
ENDROOT
BRANCH   6  10
HETATM   10  N4  UNL     1      20.292 -36.507  31.762  1.00  0.00    -0.173 N 
HETATM   11  C7  UNL     1      21.006 -37.489  32.503  1.00  0.00     0.494 C 
HETATM   12  N5  UNL     1      20.551 -37.552  33.861  1.00  0.00    -0.032 N 
HETATM   13  N6  UNL     1      21.005 -38.807  31.897  1.00  0.00    -0.032 N 
ATOM     14  H53 UNL     1      20.594 -36.639  34.313  1.00  0.00     0.278 HD
ATOM     15  H52 UNL     1      19.544 -37.705  33.912  1.00  0.00     0.278 HD
ATOM     16  H51 UNL     1      21.063 -38.257  34.393  1.00  0.00     0.278 HD
ATOM     17  H63 UNL     1      20.050 -39.118  31.720  1.00  0.00     0.278 HD
ATOM     18  H62 UNL     1      21.352 -38.760  30.939  1.00  0.00     0.278 HD
ATOM     19  H61 UNL     1      21.517 -39.512  32.428  1.00  0.00     0.278 HD
ATOM     20  H4  UNL     1      20.836 -35.717  31.415  1.00  0.00     0.181 HD
ENDBRANCH   6  10
BRANCH   9  21
HETATM   21  N8  UNL     1      16.779 -38.300  29.440  1.00  0.00    -0.206 N 
ATOM     22  H8  UNL     1      16.257 -37.954  28.634  1.00  0.00     0.179 HD
BRANCH  21  23
HETATM   23  C9  UNL     1      16.970 -39.708  29.545  1.00  0.00     0.210 C 
HETATM   24  C10 UNL     1      16.451 -40.304  30.814  1.00  0.00     0.061 C 
HETATM   25  C11 UNL     1      17.572 -41.228  31.238  1.00  0.00     0.133 C 
HETATM   26  N9  UNL     1      18.737 -40.530  30.726  1.00  0.00    -0.146 NA
HETATM   27  N10 UNL     1      18.365 -40.097  29.450  1.00  0.00    -0.122 NA
ENDBRANCH  21  23
ENDBRANCH   9  21
BRANCH   1  28
HETATM   28  C4  UNL     1      14.974 -36.594  30.502  1.00  0.00     0.211 C 
BRANCH  28  29
HETATM   29  C3  UNL     1      14.142 -37.434  31.414  1.00  0.00     0.046 A 
HETATM   30  C2  UNL     1      13.268 -38.450  31.100  1.00  0.00     0.119 A 
HETATM   31  N1  UNL     1      12.718 -38.948  32.218  1.00  0.00    -0.334 N 
HETATM   32  C1  UNL     1      11.738 -40.036  32.329  1.00  0.00     0.158 C 
HETATM   33  C12 UNL     1      13.235 -38.257  33.247  1.00  0.00     0.194 A 
HETATM   34  N11 UNL     1      14.092 -37.345  32.775  1.00  0.00    -0.331 N 
HETATM   35  N12 UNL     1      12.876 -38.513  34.615  1.00  0.00    -0.063 NA
ATOM     36  H11 UNL     1      14.624 -36.686  33.344  1.00  0.00     0.168 HD
ENDBRANCH  28  29
ENDBRANCH   1  28
TORSDOF 5
ENDMDL
MODEL 2
REMARK VINA RESULT: -5.473297092      2.746      4.184
REMARK  5 active torsions:
REMARK  status: ('A' for Active; 'I' for Inactive)
REMARK    1  A    between atoms: C3_4  and  C4_5 
REMARK    2  A    between atoms: C4_5  and  N2_6 
REMARK    3  A    between atoms: C6_11  and  N4_12 
REMARK       I    between atoms: N4_12  and  C7_14 
REMARK       I    between atoms: C7_14  and  N5_15 
REMARK       I    between atoms: C7_14  and  N6_19 
REMARK    4  A    between atoms: C8_25  and  N8_26 
REMARK    5  A    between atoms: N8_26  and  C9_28 
ROOT
HETATM    1  N2  UNL     1      14.310 -37.577  29.761  1.00  0.00    -0.126 N 
HETATM    2  C5  UNL     1      15.235 -37.608  28.789  1.00  0.00     0.355 A 
HETATM    3  O1  UNL     1      14.880 -37.890  27.602  1.00  0.00    -0.245 OA
HETATM    4  N3  UNL     1      16.537 -37.345  29.039  1.00  0.00    -0.140 N 
ATOM      5  H3  UNL     1      17.209 -37.379  28.271  1.00  0.00     0.189 HD
HETATM    6  C6  UNL     1      16.965 -37.043  30.273  1.00  0.00     0.699 A 
HETATM    7  N7  UNL     1      16.025 -37.013  31.256  1.00  0.00    -0.022 N 
ATOM      8  H7  UNL     1      16.311 -36.786  32.209  1.00  0.00     0.203 HD
HETATM    9  C8  UNL     1      14.727 -37.274  31.006  1.00  0.00     0.700 A 
ENDROOT
BRANCH   6  10
HETATM   10  N4  UNL     1      18.199 -36.788  30.544  1.00  0.00    -0.173 N 
HETATM   11  C7  UNL     1      19.175 -37.694  31.041  1.00  0.00     0.494 C 
HETATM   12  N5  UNL     1      18.830 -38.169  32.350  1.00  0.00    -0.032 N 
HETATM   13  N6  UNL     1      19.465 -38.803  30.150  1.00  0.00    -0.032 N 
ATOM     14  H53 UNL     1      18.672 -37.397  32.998  1.00  0.00     0.278 HD
ATOM     15  H52 UNL     1      17.896 -38.580  32.364  1.00  0.00     0.278 HD
ATOM     16  H51 UNL     1      19.529 -38.820  32.706  1.00  0.00     0.278 HD
ATOM     17  H63 UNL     1      18.607 -39.299  29.908  1.00  0.00     0.278 HD
ATOM     18  H62 UNL     1      19.733 -38.459  29.228  1.00  0.00     0.278 HD
ATOM     19  H61 UNL     1      20.164 -39.454  30.507  1.00  0.00     0.278 HD
ATOM     20  H4  UNL     1      18.510 -35.829  30.386  1.00  0.00     0.181 HD
ENDBRANCH   6  10
BRANCH   9  21
HETATM   21  N8  UNL     1      13.872 -37.231  31.969  1.00  0.00    -0.206 N 
ATOM     22  H8  UNL     1      13.095 -36.577  31.879  1.00  0.00     0.179 HD
BRANCH  21  23
HETATM   23  C9  UNL     1      13.928 -38.026  33.151  1.00  0.00     0.210 C 
HETATM   24  C10 UNL     1      14.361 -37.282  34.371  1.00  0.00     0.061 C 
HETATM   25  C11 UNL     1      15.357 -38.225  35.010  1.00  0.00     0.133 C 
HETATM   26  N9  UNL     1      15.919 -38.888  33.847  1.00  0.00    -0.146 NA
HETATM   27  N10 UNL     1      14.823 -39.162  33.024  1.00  0.00    -0.122 NA
ENDBRANCH  21  23
ENDBRANCH   9  21
BRANCH   1  28
HETATM   28  C4  UNL     1      12.938 -37.848  29.511  1.00  0.00     0.211 C 
BRANCH  28  29
HETATM   29  C3  UNL     1      12.634 -39.287  29.250  1.00  0.00     0.046 A 
HETATM   30  C2  UNL     1      12.532 -40.328  30.144  1.00  0.00     0.119 A 
HETATM   31  N1  UNL     1      12.246 -41.467  29.496  1.00  0.00    -0.334 N 
HETATM   32  C1  UNL     1      12.054 -42.804  30.072  1.00  0.00     0.158 C 
HETATM   33  C12 UNL     1      12.163 -41.161  28.190  1.00  0.00     0.194 A 
HETATM   34  N11 UNL     1      12.395 -39.854  28.031  1.00  0.00    -0.331 N 
HETATM   35  N12 UNL     1      11.869 -42.139  27.179  1.00  0.00    -0.063 NA
ATOM     36  H11 UNL     1      12.394 -39.359  27.139  1.00  0.00     0.168 HD
ENDBRANCH  28  29
ENDBRANCH   1  28
TORSDOF 5
ENDMDL
MODEL 3
REMARK VINA RESULT: -5.459490053      1.910      5.799
REMARK  5 active torsions:
REMARK  status: ('A' for Active; 'I' for Inactive)
REMARK    1  A    between atoms: C3_4  and  C4_5 
REMARK    2  A    between atoms: C4_5  and  N2_6 
REMARK    3  A    between atoms: C6_11  and  N4_12 
REMARK       I    between atoms: N4_12  and  C7_14 
REMARK       I    between atoms: C7_14  and  N5_15 
REMARK       I    between atoms: C7_14  and  N6_19 
REMARK    4  A    between atoms: C8_25  and  N8_26 
REMARK    5  A    between atoms: N8_26  and  C9_28 
ROOT
HETATM    1  N2  UNL     1      14.635 -37.473  31.180  1.00  0.00    -0.126 N 
HETATM    2  C5  UNL     1      13.625 -38.265  31.572  1.00  0.00     0.355 A 
HETATM    3  O1  UNL     1      13.080 -39.043  30.728  1.00  0.00    -0.245 OA
HETATM    4  N3  UNL     1      13.171 -38.259  32.846  1.00  0.00    -0.140 N 
ATOM      5  H3  UNL     1      12.401 -38.877  33.104  1.00  0.00     0.189 HD
HETATM    6  C6  UNL     1      13.710 -37.458  33.776  1.00  0.00     0.699 A 
HETATM    7  N7  UNL     1      14.733 -36.657  33.374  1.00  0.00    -0.022 N 
ATOM      8  H7  UNL     1      15.170 -36.033  34.053  1.00  0.00     0.203 HD
HETATM    9  C8  UNL     1      15.186 -36.664  32.105  1.00  0.00     0.700 A 
ENDROOT
BRANCH   6  10
HETATM   10  N4  UNL     1      13.300 -37.428  34.998  1.00  0.00    -0.173 N 
HETATM   11  C7  UNL     1      12.119 -36.810  35.493  1.00  0.00     0.494 C 
HETATM   12  N5  UNL     1      12.159 -35.387  35.314  1.00  0.00    -0.032 N 
HETATM   13  N6  UNL     1      10.889 -37.363  34.957  1.00  0.00    -0.032 N 
ATOM     14  H53 UNL     1      12.997 -34.981  35.731  1.00  0.00     0.278 HD
ATOM     15  H52 UNL     1      12.331 -35.138  34.340  1.00  0.00     0.278 HD
ATOM     16  H51 UNL     1      11.312 -34.944  35.669  1.00  0.00     0.278 HD
ATOM     17  H63 UNL     1      10.903 -37.340  33.938  1.00  0.00     0.278 HD
ATOM     18  H62 UNL     1      10.855 -38.370  35.109  1.00  0.00     0.278 HD
ATOM     19  H61 UNL     1      10.042 -36.919  35.312  1.00  0.00     0.278 HD
ATOM     20  H4  UNL     1      13.887 -37.899  35.685  1.00  0.00     0.181 HD
ENDBRANCH   6  10
BRANCH   9  21
HETATM   21  N8  UNL     1      16.160 -35.889  31.773  1.00  0.00    -0.206 N 
ATOM     22  H8  UNL     1      16.003 -35.244  30.998  1.00  0.00     0.179 HD
BRANCH  21  23
HETATM   23  C9  UNL     1      17.438 -35.861  32.403  1.00  0.00     0.210 C 
HETATM   24  C10 UNL     1      18.574 -35.588  31.472  1.00  0.00     0.061 C 
HETATM   25  C11 UNL     1      19.610 -36.609  31.891  1.00  0.00     0.133 C 
HETATM   26  N9  UNL     1      18.773 -37.707  32.341  1.00  0.00    -0.146 NA
HETATM   27  N10 UNL     1      17.756 -37.102  33.085  1.00  0.00    -0.122 NA
ENDBRANCH  21  23
ENDBRANCH   9  21
BRANCH   1  28
HETATM   28  C4  UNL     1      15.124 -37.473  29.846  1.00  0.00     0.211 C 
BRANCH  28  29
HETATM   29  C3  UNL     1      16.060 -38.594  29.535  1.00  0.00     0.046 A 
HETATM   30  C2  UNL     1      15.862 -39.692  28.729  1.00  0.00     0.119 A 
HETATM   31  N1  UNL     1      16.959 -40.463  28.721  1.00  0.00    -0.334 N 
HETATM   32  C1  UNL     1      17.166 -41.722  27.993  1.00  0.00     0.158 C 
HETATM   33  C12 UNL     1      17.861 -39.865  29.517  1.00  0.00     0.194 A 
HETATM   34  N11 UNL     1      17.331 -38.742  30.011  1.00  0.00    -0.331 N 
HETATM   35  N12 UNL     1      19.170 -40.408  29.754  1.00  0.00    -0.063 NA
ATOM     36  H11 UNL     1      17.803 -38.096  30.645  1.00  0.00     0.168 HD
ENDBRANCH  28  29
ENDBRANCH   1  28
TORSDOF 5
ENDMDL
MODEL 4
REMARK VINA RESULT: -5.405824405      2.537      3.765
REMARK  5 active torsions:
REMARK  status: ('A' for Active; 'I' for Inactive)
REMARK    1  A    between atoms: C3_4  and  C4_5 
REMARK    2  A    between atoms: C4_5  and  N2_6 
REMARK    3  A    between atoms: C6_11  and  N4_12 
REMARK       I    between atoms: N4_12  and  C7_14 
REMARK       I    between atoms: C7_14  and  N5_15 
REMARK       I    between atoms: C7_14  and  N6_19 
REMARK    4  A    between atoms: C8_25  and  N8_26 
REMARK    5  A    between atoms: N8_26  and  C9_28 
ROOT
HETATM    1  N2  UNL     1      17.552 -36.376  32.358  1.00  0.00    -0.126 N 
HETATM    2  C5  UNL     1      18.512 -35.795  31.622  1.00  0.00     0.355 A 
HETATM    3  O1  UNL     1      18.210 -34.825  30.859  1.00  0.00    -0.245 OA
HETATM    4  N3  UNL     1      19.797 -36.214  31.672  1.00  0.00    -0.140 N 
ATOM      5  H3  UNL     1      20.497 -35.746  31.097  1.00  0.00     0.189 HD
HETATM    6  C6  UNL     1      20.169 -37.233  32.460  1.00  0.00     0.699 A 
HETATM    7  N7  UNL     1      19.192 -37.819  33.204  1.00  0.00    -0.022 N 
ATOM      8  H7  UNL     1      19.436 -38.598  33.817  1.00  0.00     0.203 HD
HETATM    9  C8  UNL     1      17.913 -37.401  33.154  1.00  0.00     0.700 A 
ENDROOT
BRANCH   6  10
HETATM   10  N4  UNL     1      21.384 -37.657  32.531  1.00  0.00    -0.173 N 
HETATM   11  C7  UNL     1      22.417 -37.169  33.378  1.00  0.00     0.494 C 
HETATM   12  N5  UNL     1      22.751 -35.810  33.065  1.00  0.00    -0.032 N 
HETATM   13  N6  UNL     1      22.144 -37.320  34.795  1.00  0.00    -0.032 N 
ATOM     14  H53 UNL     1      22.993 -35.702  32.079  1.00  0.00     0.278 HD
ATOM     15  H52 UNL     1      21.929 -35.207  33.091  1.00  0.00     0.278 HD
ATOM     16  H51 UNL     1      23.492 -35.459  33.672  1.00  0.00     0.278 HD
ATOM     17  H63 UNL     1      21.252 -36.887  35.034  1.00  0.00     0.278 HD
ATOM     18  H62 UNL     1      21.931 -38.292  35.016  1.00  0.00     0.278 HD
ATOM     19  H61 UNL     1      22.885 -36.969  35.402  1.00  0.00     0.278 HD
ATOM     20  H4  UNL     1      21.633 -38.428  31.911  1.00  0.00     0.181 HD
ENDBRANCH   6  10
BRANCH   9  21
HETATM   21  N8  UNL     1      17.023 -37.986  33.880  1.00  0.00    -0.206 N 
ATOM     22  H8  UNL     1      16.057 -37.673  33.782  1.00  0.00     0.179 HD
BRANCH  21  23
HETATM   23  C9  UNL     1      17.283 -39.035  34.808  1.00  0.00     0.210 C 
HETATM   24  C10 UNL     1      16.073 -39.522  35.537  1.00  0.00     0.061 C 
HETATM   25  C11 UNL     1      16.556 -39.624  36.968  1.00  0.00     0.133 C 
HETATM   26  N9  UNL     1      17.538 -38.556  37.021  1.00  0.00    -0.146 NA
HETATM   27  N10 UNL     1      18.251 -38.663  35.824  1.00  0.00    -0.122 NA
ENDBRANCH  21  23
ENDBRANCH   9  21
BRANCH   1  28
HETATM   28  C4  UNL     1      16.199 -35.942  32.317  1.00  0.00     0.211 C 
BRANCH  28  29
HETATM   29  C3  UNL     1      15.377 -36.597  31.256  1.00  0.00     0.046 A 
HETATM   30  C2  UNL     1      15.776 -37.113  30.044  1.00  0.00     0.119 A 
HETATM   31  N1  UNL     1      14.720 -37.611  29.385  1.00  0.00    -0.334 N 
HETATM   32  C1  UNL     1      14.707 -38.251  28.062  1.00  0.00     0.158 C 
HETATM   33  C12 UNL     1      13.645 -37.418  30.167  1.00  0.00     0.194 A 
HETATM   34  N11 UNL     1      14.028 -36.809  31.294  1.00  0.00    -0.331 N 
HETATM   35  N12 UNL     1      12.321 -37.827  29.786  1.00  0.00    -0.063 NA
ATOM     36  H11 UNL     1      13.410 -36.544  32.061  1.00  0.00     0.168 HD
ENDBRANCH  28  29
ENDBRANCH   1  28
TORSDOF 5
ENDMDL
MODEL 5
REMARK VINA RESULT: -5.374901580      2.877      6.211
REMARK  5 active torsions:
REMARK  status: ('A' for Active; 'I' for Inactive)
REMARK    1  A    between atoms: C3_4  and  C4_5 
REMARK    2  A    between atoms: C4_5  and  N2_6 
REMARK    3  A    between atoms: C6_11  and  N4_12 
REMARK       I    between atoms: N4_12  and  C7_14 
REMARK       I    between atoms: C7_14  and  N5_15 
REMARK       I    between atoms: C7_14  and  N6_19 
REMARK    4  A    between atoms: C8_25  and  N8_26 
REMARK    5  A    between atoms: N8_26  and  C9_28 
ROOT
HETATM    1  N2  UNL     1      20.154 -38.753  31.471  1.00  0.00    -0.126 N 
HETATM    2  C5  UNL     1      19.875 -40.023  31.138  1.00  0.00     0.355 A 
HETATM    3  O1  UNL     1      20.613 -40.958  31.581  1.00  0.00    -0.245 OA
HETATM    4  N3  UNL     1      18.827 -40.336  30.343  1.00  0.00    -0.140 N 
ATOM      5  H3  UNL     1      18.649 -41.314  30.114  1.00  0.00     0.189 HD
HETATM    6  C6  UNL     1      18.018 -39.388  29.849  1.00  0.00     0.699 A 
HETATM    7  N7  UNL     1      18.304 -38.102  30.188  1.00  0.00    -0.022 N 
ATOM      8  H7  UNL     1      17.711 -37.351  29.832  1.00  0.00     0.203 HD
HETATM    9  C8  UNL     1      19.348 -37.791  30.981  1.00  0.00     0.700 A 
ENDROOT
BRANCH   6  10
HETATM   10  N4  UNL     1      17.011 -39.652  29.088  1.00  0.00    -0.173 N 
HETATM   11  C7  UNL     1      15.858 -38.847  28.879  1.00  0.00     0.494 C 
HETATM   12  N5  UNL     1      15.098 -38.699  30.087  1.00  0.00    -0.032 N 
HETATM   13  N6  UNL     1      16.135 -37.554  28.283  1.00  0.00    -0.032 N 
ATOM     14  H53 UNL     1      14.854 -39.605  30.489  1.00  0.00     0.278 HD
ATOM     15  H52 UNL     1      15.672 -38.339  30.848  1.00  0.00     0.278 HD
ATOM     16  H51 UNL     1      14.270 -38.122  29.937  1.00  0.00     0.278 HD
ATOM     17  H63 UNL     1      16.828 -37.048  28.835  1.00  0.00     0.278 HD
ATOM     18  H62 UNL     1      16.655 -37.666  27.413  1.00  0.00     0.278 HD
ATOM     19  H61 UNL     1      15.308 -36.977  28.134  1.00  0.00     0.278 HD
ATOM     20  H4  UNL     1      17.046 -40.536  28.581  1.00  0.00     0.181 HD
ENDBRANCH   6  10
BRANCH   9  21
HETATM   21  N8  UNL     1      19.578 -36.558  31.277  1.00  0.00    -0.206 N 
ATOM     22  H8  UNL     1      20.543 -36.234  31.221  1.00  0.00     0.179 HD
BRANCH  21  23
HETATM   23  C9  UNL     1      18.589 -35.613  31.676  1.00  0.00     0.210 C 
HETATM   24  C10 UNL     1      17.629 -36.125  32.702  1.00  0.00     0.061 C 
HETATM   25  C11 UNL     1      16.289 -35.656  32.178  1.00  0.00     0.133 C 
HETATM   26  N9  UNL     1      16.511 -35.682  30.743  1.00  0.00    -0.146 NA
HETATM   27  N10 UNL     1      17.785 -35.135  30.566  1.00  0.00    -0.122 NA
ENDBRANCH  21  23
ENDBRANCH   9  21
BRANCH   1  28
HETATM   28  C4  UNL     1      21.250 -38.412  32.308  1.00  0.00     0.211 C 
BRANCH  28  29
HETATM   29  C3  UNL     1      20.895 -38.250  33.750  1.00  0.00     0.046 A 
HETATM   30  C2  UNL     1      21.610 -37.643  34.757  1.00  0.00     0.119 A 
HETATM   31  N1  UNL     1      20.934 -37.717  35.913  1.00  0.00    -0.334 N 
HETATM   32  C1  UNL     1      21.340 -37.197  37.225  1.00  0.00     0.158 C 
HETATM   33  C12 UNL     1      19.788 -38.368  35.653  1.00  0.00     0.194 A 
HETATM   34  N11 UNL     1      19.754 -38.693  34.356  1.00  0.00    -0.331 N 
HETATM   35  N12 UNL     1      18.800 -38.637  36.661  1.00  0.00    -0.063 NA
ATOM     36  H11 UNL     1      18.996 -39.194  33.893  1.00  0.00     0.168 HD
ENDBRANCH  28  29
ENDBRANCH   1  28
TORSDOF 5
ENDMDL
