MODEL 1
REMARK VINA RESULT: -5.628647570      0.000      0.000
REMARK  12 active torsions:
REMARK  status: ('A' for Active; 'I' for Inactive)
REMARK    1  A    between atoms: N1_1  and  C1_4 
REMARK    2  A    between atoms: C2_5  and  C3_6 
REMARK       I    between atoms: C3_6  and  N2_8 
REMARK    3  A    between atoms: N2_8  and  N3_10 
REMARK       I    between atoms: N3_10  and  C4_11 
REMARK    4  A    between atoms: C4_11  and  C5_13 
REMARK    5  A    between atoms: C6_15  and  C7_16 
REMARK    6  A    between atoms: C7_16  and  O4_17 
REMARK    7  A    between atoms: C8_19  and  C9_20 
REMARK    8  A    between atoms: C9_20  and  N4_21 
REMARK    9  A    between atoms: C9_20  and  O5_25 
REMARK   10  A    between atoms: C11_29  and  C12_30 
REMARK   11  A    between atoms: C12_30  and  O7_31 
REMARK   12  A    between atoms: C12_30  and  O8_33 
ROOT
HETATM    1  C5  UNL     1      19.187 -37.988  33.799  1.00  0.00     0.174 A 
HETATM    2  O3  UNL     1      17.899 -37.671  33.821  1.00  0.00    -0.304 OA
HETATM    3  C6  UNL     1      17.235 -37.052  32.890  1.00  0.00     0.091 A 
HETATM    4  C8  UNL     1      17.961 -36.694  31.769  1.00  0.00     0.080 A 
HETATM    5  C10 UNL     1      19.301 -36.985  31.685  1.00  0.00     0.199 A 
HETATM    6  O6  UNL     1      19.997 -36.659  30.677  1.00  0.00    -0.287 OA
HETATM    7  C11 UNL     1      19.970 -37.653  32.709  1.00  0.00     0.087 A 
ENDROOT
BRANCH   1   8
HETATM    8  C4  UNL     1      19.787 -38.702  34.934  1.00  0.00     0.370 C 
HETATM    9  N3  UNL     1      20.045 -38.220  36.182  1.00  0.00    -0.276 NA
HETATM   10  O2  UNL     1      20.064 -39.924  34.607  1.00  0.00    -0.247 OA
BRANCH   9  11
HETATM   11  N2  UNL     1      20.296 -37.760  37.391  1.00  0.00    -0.188 N 
HETATM   12  C3  UNL     1      19.295 -37.668  38.461  1.00  0.00     0.327 C 
HETATM   13  O1  UNL     1      18.147 -38.023  38.228  1.00  0.00    -0.255 OA
ATOM     14  H2  UNL     1      21.245 -37.448  37.597  1.00  0.00     0.206 HD
BRANCH  12  15
HETATM   15  C2  UNL     1      19.753 -37.142  39.747  1.00  0.00     0.020 C 
HETATM   16  C1  UNL     1      20.119 -36.716  40.826  1.00  0.00     0.013 C 
BRANCH  16  17
HETATM   17  N1  UNL     1      20.479 -36.323  42.040  1.00  0.00    -0.359 N 
ATOM     18  H12 UNL     1      21.343 -36.303  41.498  1.00  0.00     0.166 HD
ATOM     19  H11 UNL     1      20.691 -36.028  42.993  1.00  0.00     0.166 HD
ENDBRANCH  16  17
ENDBRANCH  12  15
ENDBRANCH   9  11
ENDBRANCH   1   8
BRANCH   7  20
HETATM   20  C12 UNL     1      21.407 -37.914  32.630  1.00  0.00     0.295 C 
BRANCH  20  21
HETATM   21  O7  UNL     1      21.587 -38.822  31.584  1.00  0.00    -0.367 OA
ATOM     22  H7  UNL     1      22.521 -38.857  31.416  1.00  0.00     0.213 HD
ENDBRANCH  20  21
BRANCH  20  23
HETATM   23  O8  UNL     1      22.124 -36.713  32.341  1.00  0.00    -0.367 OA
ATOM     24  H8  UNL     1      21.997 -36.456  31.435  1.00  0.00     0.213 HD
ENDBRANCH  20  23
ENDBRANCH   7  20
BRANCH   3  25
HETATM   25  C7  UNL     1      15.800 -36.781  33.084  1.00  0.00     0.230 C 
BRANCH  25  26
HETATM   26  O4  UNL     1      15.547 -35.389  33.100  1.00  0.00    -0.394 OA
ATOM     27  H4  UNL     1      15.477 -35.068  33.991  1.00  0.00     0.209 HD
ENDBRANCH  25  26
ENDBRANCH   3  25
BRANCH   4  28
HETATM   28  C9  UNL     1      17.287 -36.042  30.644  1.00  0.00     0.357 C 
BRANCH  28  29
HETATM   29  N4  UNL     1      16.902 -36.846  29.554  1.00  0.00    -0.049 N 
ATOM     30  H43 UNL     1      17.203 -36.401  28.687  1.00  0.00     0.277 HD
ATOM     31  H42 UNL     1      17.471 -37.693  29.545  1.00  0.00     0.277 HD
ATOM     32  H41 UNL     1      15.918 -37.102  29.477  1.00  0.00     0.277 HD
ENDBRANCH  28  29
BRANCH  28  33
HETATM   33  O5  UNL     1      17.940 -34.832  30.307  1.00  0.00    -0.366 OA
ATOM     34  H5  UNL     1      17.430 -34.085  30.596  1.00  0.00     0.212 HD
ENDBRANCH  28  33
ENDBRANCH   4  28
TORSDOF 12
ENDMDL
MODEL 2
REMARK VINA RESULT: -5.593657933      4.175      5.306
REMARK  12 active torsions:
REMARK  status: ('A' for Active; 'I' for Inactive)
REMARK    1  A    between atoms: N1_1  and  C1_4 
REMARK    2  A    between atoms: C2_5  and  C3_6 
REMARK       I    between atoms: C3_6  and  N2_8 
REMARK    3  A    between atoms: N2_8  and  N3_10 
REMARK       I    between atoms: N3_10  and  C4_11 
REMARK    4  A    between atoms: C4_11  and  C5_13 
REMARK    5  A    between atoms: C6_15  and  C7_16 
REMARK    6  A    between atoms: C7_16  and  O4_17 
REMARK    7  A    between atoms: C8_19  and  C9_20 
REMARK    8  A    between atoms: C9_20  and  N4_21 
REMARK    9  A    between atoms: C9_20  and  O5_25 
REMARK   10  A    between atoms: C11_29  and  C12_30 
REMARK   11  A    between atoms: C12_30  and  O7_31 
REMARK   12  A    between atoms: C12_30  and  O8_33 
ROOT
HETATM    1  C5  UNL     1      18.092 -37.961  30.610  1.00  0.00     0.174 A 
HETATM    2  O3  UNL     1      17.416 -39.069  30.340  1.00  0.00    -0.304 OA
HETATM    3  C6  UNL     1      16.128 -39.178  30.194  1.00  0.00     0.091 A 
HETATM    4  C8  UNL     1      15.405 -38.008  30.340  1.00  0.00     0.080 A 
HETATM    5  C10 UNL     1      16.042 -36.826  30.629  1.00  0.00     0.199 A 
HETATM    6  O6  UNL     1      15.406 -35.740  30.782  1.00  0.00    -0.287 OA
HETATM    7  C11 UNL     1      17.427 -36.758  30.774  1.00  0.00     0.087 A 
ENDROOT
BRANCH   1   8
HETATM    8  C4  UNL     1      19.556 -38.005  30.733  1.00  0.00     0.370 C 
HETATM    9  N3  UNL     1      20.352 -37.226  31.517  1.00  0.00    -0.276 NA
HETATM   10  O2  UNL     1      20.047 -38.927  29.969  1.00  0.00    -0.247 OA
BRANCH   9  11
HETATM   11  N2  UNL     1      21.128 -36.475  32.273  1.00  0.00    -0.188 N 
HETATM   12  C3  UNL     1      22.455 -36.883  32.750  1.00  0.00     0.327 C 
HETATM   13  O1  UNL     1      22.877 -37.991  32.446  1.00  0.00    -0.255 OA
ATOM     14  H2  UNL     1      20.785 -35.553  32.545  1.00  0.00     0.206 HD
BRANCH  12  15
HETATM   15  C2  UNL     1      23.184 -35.917  33.572  1.00  0.00     0.020 C 
HETATM   16  C1  UNL     1      23.800 -35.106  34.238  1.00  0.00     0.013 C 
BRANCH  16  17
HETATM   17  N1  UNL     1      24.485 -34.177  34.889  1.00  0.00    -0.359 N 
ATOM     18  H12 UNL     1      23.612 -33.718  34.631  1.00  0.00     0.166 HD
ATOM     19  H11 UNL     1      25.062 -33.507  35.398  1.00  0.00     0.166 HD
ENDBRANCH  16  17
ENDBRANCH  12  15
ENDBRANCH   9  11
ENDBRANCH   1   8
BRANCH   7  20
HETATM   20  C12 UNL     1      18.090 -35.505  31.129  1.00  0.00     0.295 C 
BRANCH  20  21
HETATM   21  O7  UNL     1      17.917 -34.644  30.044  1.00  0.00    -0.367 OA
ATOM     22  H7  UNL     1      18.303 -35.077  29.292  1.00  0.00     0.213 HD
ENDBRANCH  20  21
BRANCH  20  23
HETATM   23  O8  UNL     1      17.490 -34.927  32.290  1.00  0.00    -0.367 OA
ATOM     24  H8  UNL     1      18.007 -34.196  32.607  1.00  0.00     0.213 HD
ENDBRANCH  20  23
ENDBRANCH   7  20
BRANCH   3  25
HETATM   25  C7  UNL     1      15.543 -40.496  29.894  1.00  0.00     0.230 C 
BRANCH  25  26
HETATM   26  O4  UNL     1      15.547 -40.744  28.501  1.00  0.00    -0.394 OA
ATOM     27  H4  UNL     1      14.835 -41.325  28.258  1.00  0.00     0.209 HD
ENDBRANCH  25  26
ENDBRANCH   3  25
BRANCH   4  28
HETATM   28  C9  UNL     1      13.954 -38.022  30.140  1.00  0.00     0.357 C 
BRANCH  28  29
HETATM   29  N4  UNL     1      13.463 -37.659  28.871  1.00  0.00    -0.049 N 
ATOM     30  H43 UNL     1      12.472 -37.430  28.947  1.00  0.00     0.277 HD
ATOM     31  H42 UNL     1      13.851 -36.752  28.608  1.00  0.00     0.277 HD
ATOM     32  H41 UNL     1      13.599 -38.317  28.104  1.00  0.00     0.277 HD
ENDBRANCH  28  29
BRANCH  28  33
HETATM   33  O5  UNL     1      13.295 -37.423  31.241  1.00  0.00    -0.366 OA
ATOM     34  H5  UNL     1      13.057 -38.079  31.885  1.00  0.00     0.212 HD
ENDBRANCH  28  33
ENDBRANCH   4  28
TORSDOF 12
ENDMDL
MODEL 3
REMARK VINA RESULT: -5.499825252      1.769      1.843
REMARK  12 active torsions:
REMARK  status: ('A' for Active; 'I' for Inactive)
REMARK    1  A    between atoms: N1_1  and  C1_4 
REMARK    2  A    between atoms: C2_5  and  C3_6 
REMARK       I    between atoms: C3_6  and  N2_8 
REMARK    3  A    between atoms: N2_8  and  N3_10 
REMARK       I    between atoms: N3_10  and  C4_11 
REMARK    4  A    between atoms: C4_11  and  C5_13 
REMARK    5  A    between atoms: C6_15  and  C7_16 
REMARK    6  A    between atoms: C7_16  and  O4_17 
REMARK    7  A    between atoms: C8_19  and  C9_20 
REMARK    8  A    between atoms: C9_20  and  N4_21 
REMARK    9  A    between atoms: C9_20  and  O5_25 
REMARK   10  A    between atoms: C11_29  and  C12_30 
REMARK   11  A    between atoms: C12_30  and  O7_31 
REMARK   12  A    between atoms: C12_30  and  O8_33 
ROOT
HETATM    1  C5  UNL     1      19.078 -37.837  33.791  1.00  0.00     0.174 A 
HETATM    2  O3  UNL     1      17.811 -37.445  33.808  1.00  0.00    -0.304 OA
HETATM    3  C6  UNL     1      17.168 -36.853  32.845  1.00  0.00     0.091 A 
HETATM    4  C8  UNL     1      17.896 -36.614  31.693  1.00  0.00     0.080 A 
HETATM    5  C10 UNL     1      19.215 -36.987  31.613  1.00  0.00     0.199 A 
HETATM    6  O6  UNL     1      19.913 -36.770  30.577  1.00  0.00    -0.287 OA
HETATM    7  C11 UNL     1      19.862 -37.622  32.672  1.00  0.00     0.087 A 
ENDROOT
BRANCH   1   8
HETATM    8  C4  UNL     1      19.654 -38.507  34.966  1.00  0.00     0.370 C 
HETATM    9  N3  UNL     1      20.498 -37.981  35.897  1.00  0.00    -0.276 NA
HETATM   10  O2  UNL     1      19.249 -39.735  35.032  1.00  0.00    -0.247 OA
BRANCH   9  11
HETATM   11  N2  UNL     1      21.314 -37.477  36.802  1.00  0.00    -0.188 N 
HETATM   12  C3  UNL     1      22.233 -38.280  37.618  1.00  0.00     0.327 C 
HETATM   13  O1  UNL     1      22.246 -39.495  37.472  1.00  0.00    -0.255 OA
ATOM     14  H2  UNL     1      21.306 -36.467  36.944  1.00  0.00     0.206 HD
BRANCH  12  15
HETATM   15  C2  UNL     1      23.076 -37.552  38.566  1.00  0.00     0.020 C 
HETATM   16  C1  UNL     1      23.789 -36.939  39.338  1.00  0.00     0.013 C 
BRANCH  16  17
HETATM   17  N1  UNL     1      24.589 -36.219  40.112  1.00  0.00    -0.359 N 
ATOM     18  H12 UNL     1      23.652 -36.031  40.468  1.00  0.00     0.166 HD
ATOM     19  H11 UNL     1      25.257 -35.688  40.671  1.00  0.00     0.166 HD
ENDBRANCH  16  17
ENDBRANCH  12  15
ENDBRANCH   9  11
ENDBRANCH   1   8
BRANCH   7  20
HETATM   20  C12 UNL     1      21.280 -37.971  32.594  1.00  0.00     0.295 C 
BRANCH  20  21
HETATM   21  O7  UNL     1      21.400 -38.910  31.568  1.00  0.00    -0.367 OA
ATOM     22  H7  UNL     1      20.681 -38.748  30.969  1.00  0.00     0.213 HD
ENDBRANCH  20  21
BRANCH  20  23
HETATM   23  O8  UNL     1      22.066 -36.821  32.275  1.00  0.00    -0.367 OA
ATOM     24  H8  UNL     1      22.924 -36.878  32.680  1.00  0.00     0.213 HD
ENDBRANCH  20  23
ENDBRANCH   7  20
BRANCH   3  25
HETATM   25  C7  UNL     1      15.754 -36.487  33.036  1.00  0.00     0.230 C 
BRANCH  25  26
HETATM   26  O4  UNL     1      15.570 -35.092  32.890  1.00  0.00    -0.394 OA
ATOM     27  H4  UNL     1      16.026 -34.769  32.122  1.00  0.00     0.209 HD
ENDBRANCH  25  26
ENDBRANCH   3  25
BRANCH   4  28
HETATM   28  C9  UNL     1      17.242 -36.001  30.535  1.00  0.00     0.357 C 
BRANCH  28  29
HETATM   29  N4  UNL     1      16.857 -36.845  29.476  1.00  0.00    -0.049 N 
ATOM     30  H43 UNL     1      16.367 -37.656  29.854  1.00  0.00     0.277 HD
ATOM     31  H42 UNL     1      16.109 -36.398  28.944  1.00  0.00     0.277 HD
ATOM     32  H41 UNL     1      17.583 -37.161  28.833  1.00  0.00     0.277 HD
ENDBRANCH  28  29
BRANCH  28  33
HETATM   33  O5  UNL     1      17.916 -34.816  30.153  1.00  0.00    -0.366 OA
ATOM     34  H5  UNL     1      17.942 -34.736  29.207  1.00  0.00     0.212 HD
ENDBRANCH  28  33
ENDBRANCH   4  28
TORSDOF 12
ENDMDL
MODEL 4
REMARK VINA RESULT: -5.467395390      3.150      7.269
REMARK  12 active torsions:
REMARK  status: ('A' for Active; 'I' for Inactive)
REMARK    1  A    between atoms: N1_1  and  C1_4 
REMARK    2  A    between atoms: C2_5  and  C3_6 
REMARK       I    between atoms: C3_6  and  N2_8 
REMARK    3  A    between atoms: N2_8  and  N3_10 
REMARK       I    between atoms: N3_10  and  C4_11 
REMARK    4  A    between atoms: C4_11  and  C5_13 
REMARK    5  A    between atoms: C6_15  and  C7_16 
REMARK    6  A    between atoms: C7_16  and  O4_17 
REMARK    7  A    between atoms: C8_19  and  C9_20 
REMARK    8  A    between atoms: C9_20  and  N4_21 
REMARK    9  A    between atoms: C9_20  and  O5_25 
REMARK   10  A    between atoms: C11_29  and  C12_30 
REMARK   11  A    between atoms: C12_30  and  O7_31 
REMARK   12  A    between atoms: C12_30  and  O8_33 
ROOT
HETATM    1  C5  UNL     1      17.109 -37.181  32.808  1.00  0.00     0.174 A 
HETATM    2  O3  UNL     1      17.782 -37.753  33.797  1.00  0.00    -0.304 OA
HETATM    3  C6  UNL     1      19.065 -37.955  33.849  1.00  0.00     0.091 A 
HETATM    4  C8  UNL     1      19.788 -37.523  32.751  1.00  0.00     0.080 A 
HETATM    5  C10 UNL     1      19.151 -36.930  31.688  1.00  0.00     0.199 A 
HETATM    6  O6  UNL     1      19.782 -36.536  30.662  1.00  0.00    -0.287 OA
HETATM    7  C11 UNL     1      17.771 -36.733  31.679  1.00  0.00     0.087 A 
ENDROOT
BRANCH   1   8
HETATM    8  C4  UNL     1      15.652 -37.018  32.910  1.00  0.00     0.370 C 
HETATM    9  N3  UNL     1      14.683 -37.762  32.306  1.00  0.00    -0.276 NA
HETATM   10  O2  UNL     1      15.360 -36.025  33.687  1.00  0.00    -0.247 OA
BRANCH   9  11
HETATM   11  N2  UNL     1      13.742 -38.480  31.726  1.00  0.00    -0.188 N 
HETATM   12  C3  UNL     1      13.871 -39.083  30.394  1.00  0.00     0.327 C 
HETATM   13  O1  UNL     1      14.905 -38.908  29.764  1.00  0.00    -0.255 OA
ATOM     14  H2  UNL     1      12.869 -38.625  32.234  1.00  0.00     0.206 HD
BRANCH  12  15
HETATM   15  C2  UNL     1      12.729 -39.859  29.910  1.00  0.00     0.020 C 
HETATM   16  C1  UNL     1      11.792 -40.517  29.499  1.00  0.00     0.013 C 
BRANCH  16  17
HETATM   17  N1  UNL     1      10.828 -41.304  29.042  1.00  0.00    -0.359 N 
ATOM     18  H12 UNL     1      11.676 -41.651  28.593  1.00  0.00     0.166 HD
ATOM     19  H11 UNL     1      10.042 -41.873  28.727  1.00  0.00     0.166 HD
ENDBRANCH  16  17
ENDBRANCH  12  15
ENDBRANCH   9  11
ENDBRANCH   1   8
BRANCH   7  20
HETATM   20  C12 UNL     1      17.098 -36.145  30.522  1.00  0.00     0.295 C 
BRANCH  20  21
HETATM   21  O7  UNL     1      17.811 -34.990  30.194  1.00  0.00    -0.367 OA
ATOM     22  H7  UNL     1      17.358 -34.267  30.611  1.00  0.00     0.213 HD
ENDBRANCH  20  21
BRANCH  20  23
HETATM   23  O8  UNL     1      17.122 -37.045  29.412  1.00  0.00    -0.367 OA
ATOM     24  H8  UNL     1      17.961 -37.487  29.357  1.00  0.00     0.213 HD
ENDBRANCH  20  23
ENDBRANCH   7  20
BRANCH   3  25
HETATM   25  C7  UNL     1      19.648 -38.608  35.034  1.00  0.00     0.230 C 
BRANCH  25  26
HETATM   26  O4  UNL     1      18.919 -38.282  36.200  1.00  0.00    -0.394 OA
ATOM     27  H4  UNL     1      19.369 -37.615  36.706  1.00  0.00     0.209 HD
ENDBRANCH  25  26
ENDBRANCH   3  25
BRANCH   4  28
HETATM   28  C9  UNL     1      21.246 -37.658  32.742  1.00  0.00     0.357 C 
BRANCH  28  29
HETATM   29  N4  UNL     1      22.014 -36.478  32.756  1.00  0.00    -0.049 N 
ATOM     30  H43 UNL     1      22.304 -36.254  31.804  1.00  0.00     0.277 HD
ATOM     31  H42 UNL     1      21.406 -35.685  32.965  1.00  0.00     0.277 HD
ATOM     32  H41 UNL     1      22.827 -36.448  33.371  1.00  0.00     0.277 HD
ENDBRANCH  28  29
BRANCH  28  33
HETATM   33  O5  UNL     1      21.649 -38.634  31.799  1.00  0.00    -0.366 OA
ATOM     34  H5  UNL     1      21.292 -38.437  30.941  1.00  0.00     0.212 HD
ENDBRANCH  28  33
ENDBRANCH   4  28
TORSDOF 12
ENDMDL
MODEL 5
REMARK VINA RESULT: -5.393636660      3.980      7.699
REMARK  12 active torsions:
REMARK  status: ('A' for Active; 'I' for Inactive)
REMARK    1  A    between atoms: N1_1  and  C1_4 
REMARK    2  A    between atoms: C2_5  and  C3_6 
REMARK       I    between atoms: C3_6  and  N2_8 
REMARK    3  A    between atoms: N2_8  and  N3_10 
REMARK       I    between atoms: N3_10  and  C4_11 
REMARK    4  A    between atoms: C4_11  and  C5_13 
REMARK    5  A    between atoms: C6_15  and  C7_16 
REMARK    6  A    between atoms: C7_16  and  O4_17 
REMARK    7  A    between atoms: C8_19  and  C9_20 
REMARK    8  A    between atoms: C9_20  and  N4_21 
REMARK    9  A    between atoms: C9_20  and  O5_25 
REMARK   10  A    between atoms: C11_29  and  C12_30 
REMARK   11  A    between atoms: C12_30  and  O7_31 
REMARK   12  A    between atoms: C12_30  and  O8_33 
ROOT
HETATM    1  C5  UNL     1      16.619 -37.981  29.874  1.00  0.00     0.174 A 
HETATM    2  O3  UNL     1      17.588 -38.886  29.831  1.00  0.00    -0.304 OA
HETATM    3  C6  UNL     1      18.694 -38.873  30.513  1.00  0.00     0.091 A 
HETATM    4  C8  UNL     1      18.863 -37.796  31.366  1.00  0.00     0.080 A 
HETATM    5  C10 UNL     1      17.902 -36.819  31.453  1.00  0.00     0.199 A 
HETATM    6  O6  UNL     1      18.033 -35.814  32.214  1.00  0.00    -0.287 OA
HETATM    7  C11 UNL     1      16.730 -36.878  30.702  1.00  0.00     0.087 A 
ENDROOT
BRANCH   1   8
HETATM    8  C4  UNL     1      15.420 -38.149  29.041  1.00  0.00     0.370 C 
HETATM    9  N3  UNL     1      14.117 -38.105  29.435  1.00  0.00    -0.276 NA
HETATM   10  O2  UNL     1      15.750 -38.357  27.807  1.00  0.00    -0.247 OA
BRANCH   9  11
HETATM   11  N2  UNL     1      12.854 -38.063  29.810  1.00  0.00    -0.188 N 
HETATM   12  C3  UNL     1      12.414 -37.974  31.208  1.00  0.00     0.327 C 
HETATM   13  O1  UNL     1      13.258 -37.951  32.093  1.00  0.00    -0.255 OA
ATOM     14  H2  UNL     1      12.138 -38.094  29.085  1.00  0.00     0.206 HD
BRANCH  12  15
HETATM   15  C2  UNL     1      10.970 -37.925  31.440  1.00  0.00     0.020 C 
HETATM   16  C1  UNL     1       9.766 -37.889  31.613  1.00  0.00     0.013 C 
BRANCH  16  17
HETATM   17  N1  UNL     1       8.446 -37.901  31.728  1.00  0.00    -0.359 N 
ATOM     18  H12 UNL     1       8.656 -38.687  31.113  1.00  0.00     0.166 HD
ATOM     19  H11 UNL     1       7.435 -37.856  31.858  1.00  0.00     0.166 HD
ENDBRANCH  16  17
ENDBRANCH  12  15
ENDBRANCH   9  11
ENDBRANCH   1   8
BRANCH   7  20
HETATM   20  C12 UNL     1      15.736 -35.807  30.765  1.00  0.00     0.295 C 
BRANCH  20  21
HETATM   21  O7  UNL     1      15.270 -35.777  32.081  1.00  0.00    -0.367 OA
ATOM     22  H7  UNL     1      16.017 -35.558  32.626  1.00  0.00     0.213 HD
ENDBRANCH  20  21
BRANCH  20  23
HETATM   23  O8  UNL     1      16.329 -34.547  30.446  1.00  0.00    -0.367 OA
ATOM     24  H8  UNL     1      17.270 -34.579  30.569  1.00  0.00     0.213 HD
ENDBRANCH  20  23
ENDBRANCH   7  20
BRANCH   3  25
HETATM   25  C7  UNL     1      19.665 -39.968  30.340  1.00  0.00     0.230 C 
BRANCH  25  26
HETATM   26  O4  UNL     1      20.683 -39.600  29.430  1.00  0.00    -0.394 OA
ATOM     27  H4  UNL     1      20.808 -40.272  28.771  1.00  0.00     0.209 HD
ENDBRANCH  25  26
ENDBRANCH   3  25
BRANCH   4  28
HETATM   28  C9  UNL     1      20.054 -37.724  32.216  1.00  0.00     0.357 C 
BRANCH  28  29
HETATM   29  N4  UNL     1      19.868 -37.781  33.611  1.00  0.00    -0.049 N 
ATOM     30  H43 UNL     1      18.871 -37.856  33.814  1.00  0.00     0.277 HD
ATOM     31  H42 UNL     1      20.204 -38.680  33.958  1.00  0.00     0.277 HD
ATOM     32  H41 UNL     1      20.271 -37.032  34.175  1.00  0.00     0.277 HD
ENDBRANCH  28  29
BRANCH  28  33
HETATM   33  O5  UNL     1      20.928 -36.708  31.760  1.00  0.00    -0.366 OA
ATOM     34  H5  UNL     1      21.805 -37.052  31.640  1.00  0.00     0.212 HD
ENDBRANCH  28  33
ENDBRANCH   4  28
TORSDOF 12
ENDMDL
