MODEL 1
REMARK VINA RESULT: -5.281161478      0.000      0.000
REMARK  6 active torsions:
REMARK  status: ('A' for Active; 'I' for Inactive)
REMARK    1  A    between atoms: O1_2  and  N1_3 
REMARK       I    between atoms: N1_3  and  C2_5 
REMARK    2  A    between atoms: N3_7  and  N4_9 
REMARK    3  A    between atoms: C3_10  and  C4_11 
REMARK    4  A    between atoms: C4_11  and  C5_12 
REMARK    5  A    between atoms: C6_15  and  N5_16 
REMARK    6  A    between atoms: C7_20  and  O4_21 
ROOT
HETATM    1  N4  UNL     1      17.121 -38.059  30.824  1.00  0.00    -0.263 N 
HETATM    2  C3  UNL     1      18.152 -37.133  30.505  1.00  0.00     0.150 C 
HETATM    3  C6  UNL     1      17.672 -35.772  30.946  1.00  0.00     0.243 C 
HETATM    4  C7  UNL     1      16.538 -36.054  31.919  1.00  0.00     0.230 C 
HETATM    5  C8  UNL     1      16.000 -37.401  31.468  1.00  0.00     0.270 A 
HETATM    6  N6  UNL     1      14.927 -37.129  30.556  1.00  0.00    -0.311 N 
ATOM      7  H6  UNL     1      15.139 -36.570  29.730  1.00  0.00     0.167 HD
HETATM    8  C9  UNL     1      13.721 -37.538  30.704  1.00  0.00     0.194 A 
HETATM    9  N7  UNL     1      12.700 -37.212  29.730  1.00  0.00    -0.063 NA
HETATM   10  N8  UNL     1      13.422 -38.319  31.840  1.00  0.00    -0.299 N 
ATOM     11  H8  UNL     1      12.467 -38.650  31.976  1.00  0.00     0.171 HD
HETATM   12  C10 UNL     1      14.317 -38.623  32.705  1.00  0.00     0.237 A 
HETATM   13  N9  UNL     1      13.924 -39.431  33.852  1.00  0.00    -0.056 NA
HETATM   14  O5  UNL     1      15.602 -38.195  32.548  1.00  0.00    -0.269 OA
ENDROOT
BRANCH   1  15
HETATM   15  N3  UNL     1      17.148 -39.431  30.556  1.00  0.00    -0.270 N 
HETATM   16  C2  UNL     1      16.713 -39.912  29.434  1.00  0.00     0.227 C 
HETATM   17  N1  UNL     1      16.757 -41.297  29.201  1.00  0.00    -0.238 N 
HETATM   18  N2  UNL     1      16.183 -39.064  28.415  1.00  0.00    -0.060 NA
ATOM     19  H1  UNL     1      16.828 -41.940  29.989  1.00  0.00     0.197 HD
ATOM     20  H3  UNL     1      17.520 -40.069  31.261  1.00  0.00     0.189 HD
BRANCH  17  21
HETATM   21  O1  UNL     1      16.706 -41.791  27.921  1.00  0.00    -0.283 OA
HETATM   22  C1  UNL     1      17.844 -42.540  27.647  1.00  0.00     0.237 C 
ENDBRANCH  17  21
ENDBRANCH   1  15
BRANCH   4  23
HETATM   23  O4  UNL     1      15.592 -35.053  31.857  1.00  0.00    -0.386 OA
ATOM     24  H4  UNL     1      14.802 -35.316  32.315  1.00  0.00     0.210 HD
ENDBRANCH   4  23
BRANCH   2  25
HETATM   25  C4  UNL     1      19.518 -37.448  30.986  1.00  0.00     0.142 C 
BRANCH  25  26
HETATM   26  C5  UNL     1      19.944 -38.842  30.851  1.00  0.00     0.174 C 
HETATM   27  O2  UNL     1      20.320 -39.260  29.695  1.00  0.00    -0.648 OA
HETATM   28  O3  UNL     1      19.984 -39.780  31.865  1.00  0.00    -0.648 OA
ENDBRANCH  25  26
ENDBRANCH   2  25
BRANCH   3  29
HETATM   29  N5  UNL     1      18.719 -35.030  31.605  1.00  0.00    -0.070 N 
ATOM     30  H53 UNL     1      18.773 -35.262  32.597  1.00  0.00     0.274 HD
ATOM     31  H52 UNL     1      19.643 -35.353  31.318  1.00  0.00     0.274 HD
ATOM     32  H51 UNL     1      18.613 -34.026  31.461  1.00  0.00     0.274 HD
ENDBRANCH   3  29
TORSDOF 6
ENDMDL
MODEL 2
REMARK VINA RESULT: -5.243797691      2.501      3.502
REMARK  6 active torsions:
REMARK  status: ('A' for Active; 'I' for Inactive)
REMARK    1  A    between atoms: O1_2  and  N1_3 
REMARK       I    between atoms: N1_3  and  C2_5 
REMARK    2  A    between atoms: N3_7  and  N4_9 
REMARK    3  A    between atoms: C3_10  and  C4_11 
REMARK    4  A    between atoms: C4_11  and  C5_12 
REMARK    5  A    between atoms: C6_15  and  N5_16 
REMARK    6  A    between atoms: C7_20  and  O4_21 
ROOT
HETATM    1  N4  UNL     1      14.394 -38.350  30.703  1.00  0.00    -0.263 N 
HETATM    2  C3  UNL     1      14.948 -37.307  29.909  1.00  0.00     0.150 C 
HETATM    3  C6  UNL     1      15.393 -36.221  30.859  1.00  0.00     0.243 C 
HETATM    4  C7  UNL     1      15.472 -36.900  32.219  1.00  0.00     0.230 C 
HETATM    5  C8  UNL     1      14.466 -38.034  32.117  1.00  0.00     0.270 A 
HETATM    6  N6  UNL     1      13.226 -37.527  32.628  1.00  0.00    -0.311 N 
ATOM      7  H6  UNL     1      12.832 -36.701  32.179  1.00  0.00     0.167 HD
HETATM    8  C9  UNL     1      12.577 -38.038  33.608  1.00  0.00     0.194 A 
HETATM    9  N7  UNL     1      11.329 -37.456  34.059  1.00  0.00    -0.063 NA
HETATM   10  N8  UNL     1      13.111 -39.186  34.229  1.00  0.00    -0.299 N 
ATOM     11  H8  UNL     1      12.609 -39.604  35.013  1.00  0.00     0.171 HD
HETATM   12  C10 UNL     1      14.209 -39.717  33.835  1.00  0.00     0.237 A 
HETATM   13  N9  UNL     1      14.693 -40.901  34.533  1.00  0.00    -0.056 NA
HETATM   14  O5  UNL     1      14.899 -39.180  32.789  1.00  0.00    -0.269 OA
ENDROOT
BRANCH   1  15
HETATM   15  N3  UNL     1      13.837 -39.535  30.214  1.00  0.00    -0.270 N 
HETATM   16  C2  UNL     1      12.592 -39.603  29.859  1.00  0.00     0.227 C 
HETATM   17  N1  UNL     1      12.067 -40.811  29.372  1.00  0.00    -0.238 N 
HETATM   18  N2  UNL     1      11.728 -38.470  29.950  1.00  0.00    -0.060 NA
ATOM     19  H1  UNL     1      12.543 -41.689  29.580  1.00  0.00     0.197 HD
ATOM     20  H3  UNL     1      14.423 -40.366  30.134  1.00  0.00     0.189 HD
BRANCH  17  21
HETATM   21  O1  UNL     1      10.920 -40.820  28.617  1.00  0.00    -0.283 OA
HETATM   22  C1  UNL     1      11.215 -41.125  27.293  1.00  0.00     0.237 C 
ENDBRANCH  17  21
ENDBRANCH   1  15
BRANCH   4  23
HETATM   23  O4  UNL     1      15.168 -36.004  33.221  1.00  0.00    -0.386 OA
ATOM     24  H4  UNL     1      15.481 -35.136  32.993  1.00  0.00     0.210 HD
ENDBRANCH   4  23
BRANCH   2  25
HETATM   25  C4  UNL     1      15.995 -37.683  28.931  1.00  0.00     0.142 C 
BRANCH  25  26
HETATM   26  C5  UNL     1      16.857 -38.806  29.308  1.00  0.00     0.174 C 
HETATM   27  O2  UNL     1      16.773 -39.896  28.634  1.00  0.00    -0.648 OA
HETATM   28  O3  UNL     1      17.773 -38.813  30.342  1.00  0.00    -0.648 OA
ENDBRANCH  25  26
ENDBRANCH   2  25
BRANCH   3  29
HETATM   29  N5  UNL     1      16.685 -35.694  30.491  1.00  0.00    -0.070 N 
ATOM     30  H53 UNL     1      16.617 -35.065  29.691  1.00  0.00     0.274 HD
ATOM     31  H52 UNL     1      17.028 -35.030  31.185  1.00  0.00     0.274 HD
ATOM     32  H51 UNL     1      17.358 -36.441  30.323  1.00  0.00     0.274 HD
ENDBRANCH   3  29
TORSDOF 6
ENDMDL
MODEL 3
REMARK VINA RESULT: -5.235987852      2.959      5.890
REMARK  6 active torsions:
REMARK  status: ('A' for Active; 'I' for Inactive)
REMARK    1  A    between atoms: O1_2  and  N1_3 
REMARK       I    between atoms: N1_3  and  C2_5 
REMARK    2  A    between atoms: N3_7  and  N4_9 
REMARK    3  A    between atoms: C3_10  and  C4_11 
REMARK    4  A    between atoms: C4_11  and  C5_12 
REMARK    5  A    between atoms: C6_15  and  N5_16 
REMARK    6  A    between atoms: C7_20  and  O4_21 
ROOT
HETATM    1  N4  UNL     1      17.792 -37.667  32.787  1.00  0.00    -0.263 N 
HETATM    2  C3  UNL     1      17.555 -36.268  32.693  1.00  0.00     0.150 C 
HETATM    3  C6  UNL     1      18.474 -35.738  31.619  1.00  0.00     0.243 C 
HETATM    4  C7  UNL     1      18.896 -36.965  30.825  1.00  0.00     0.230 C 
HETATM    5  C8  UNL     1      18.792 -38.100  31.829  1.00  0.00     0.270 A 
HETATM    6  N6  UNL     1      20.091 -38.243  32.421  1.00  0.00    -0.311 N 
ATOM      7  H6  UNL     1      20.489 -37.429  32.889  1.00  0.00     0.167 HD
HETATM    8  C9  UNL     1      20.787 -39.319  32.404  1.00  0.00     0.194 A 
HETATM    9  N7  UNL     1      22.093 -39.371  33.027  1.00  0.00    -0.063 NA
HETATM   10  N8  UNL     1      20.239 -40.451  31.766  1.00  0.00    -0.299 N 
ATOM     11  H8  UNL     1      20.780 -41.316  31.740  1.00  0.00     0.171 HD
HETATM   12  C10 UNL     1      19.081 -40.423  31.218  1.00  0.00     0.237 A 
HETATM   13  N9  UNL     1      18.590 -41.636  30.577  1.00  0.00    -0.056 NA
HETATM   14  O5  UNL     1      18.335 -39.282  31.239  1.00  0.00    -0.269 OA
ENDROOT
BRANCH   1  15
HETATM   15  N3  UNL     1      17.166 -38.539  33.682  1.00  0.00    -0.270 N 
HETATM   16  C2  UNL     1      17.680 -38.805  34.843  1.00  0.00     0.227 C 
HETATM   17  N1  UNL     1      17.021 -39.686  35.715  1.00  0.00    -0.238 N 
HETATM   18  N2  UNL     1      18.912 -38.219  35.264  1.00  0.00    -0.060 NA
ATOM     19  H1  UNL     1      16.335 -40.345  35.346  1.00  0.00     0.197 HD
ATOM     20  H3  UNL     1      16.283 -38.978  33.416  1.00  0.00     0.189 HD
BRANCH  17  21
HETATM   21  O1  UNL     1      17.294 -39.669  37.061  1.00  0.00    -0.283 OA
HETATM   22  C1  UNL     1      16.367 -38.879  37.731  1.00  0.00     0.237 C 
ENDBRANCH  17  21
ENDBRANCH   1  15
BRANCH   4  23
HETATM   23  O4  UNL     1      20.173 -36.802  30.332  1.00  0.00    -0.386 OA
ATOM     24  H4  UNL     1      20.189 -36.968  29.397  1.00  0.00     0.210 HD
ENDBRANCH   4  23
BRANCH   2  25
HETATM   25  C4  UNL     1      16.150 -35.829  32.518  1.00  0.00     0.142 C 
BRANCH  25  26
HETATM   26  C5  UNL     1      15.284 -36.728  31.751  1.00  0.00     0.174 C 
HETATM   27  O2  UNL     1      15.264 -36.616  30.472  1.00  0.00    -0.648 OA
HETATM   28  O3  UNL     1      14.465 -37.708  32.278  1.00  0.00    -0.648 OA
ENDBRANCH  25  26
ENDBRANCH   2  25
BRANCH   3  29
HETATM   29  N5  UNL     1      17.796 -34.798  30.759  1.00  0.00    -0.070 N 
ATOM     30  H53 UNL     1      16.807 -34.723  30.995  1.00  0.00     0.274 HD
ATOM     31  H52 UNL     1      18.079 -33.839  30.958  1.00  0.00     0.274 HD
ATOM     32  H51 UNL     1      17.929 -35.030  29.776  1.00  0.00     0.274 HD
ENDBRANCH   3  29
TORSDOF 6
ENDMDL
MODEL 4
REMARK VINA RESULT: -5.227710013      3.033      5.399
REMARK  6 active torsions:
REMARK  status: ('A' for Active; 'I' for Inactive)
REMARK    1  A    between atoms: O1_2  and  N1_3 
REMARK       I    between atoms: N1_3  and  C2_5 
REMARK    2  A    between atoms: N3_7  and  N4_9 
REMARK    3  A    between atoms: C3_10  and  C4_11 
REMARK    4  A    between atoms: C4_11  and  C5_12 
REMARK    5  A    between atoms: C6_15  and  N5_16 
REMARK    6  A    between atoms: C7_20  and  O4_21 
ROOT
HETATM    1  N4  UNL     1      14.391 -37.602  31.448  1.00  0.00    -0.263 N 
HETATM    2  C3  UNL     1      15.638 -37.373  30.801  1.00  0.00     0.150 C 
HETATM    3  C6  UNL     1      15.616 -38.163  29.515  1.00  0.00     0.243 C 
HETATM    4  C7  UNL     1      14.147 -38.470  29.268  1.00  0.00     0.230 C 
HETATM    5  C8  UNL     1      13.539 -38.474  30.660  1.00  0.00     0.270 A 
HETATM    6  N6  UNL     1      13.574 -39.832  31.118  1.00  0.00    -0.311 N 
ATOM      7  H6  UNL     1      14.482 -40.295  31.158  1.00  0.00     0.167 HD
HETATM    8  C9  UNL     1      12.546 -40.507  31.480  1.00  0.00     0.194 A 
HETATM    9  N7  UNL     1      12.676 -41.879  31.928  1.00  0.00    -0.063 NA
HETATM   10  N8  UNL     1      11.288 -39.872  31.436  1.00  0.00    -0.299 N 
ATOM     11  H8  UNL     1      10.458 -40.395  31.718  1.00  0.00     0.171 HD
HETATM   12  C10 UNL     1      11.158 -38.656  31.051  1.00  0.00     0.237 A 
HETATM   13  N9  UNL     1       9.822 -38.076  31.033  1.00  0.00    -0.056 NA
HETATM   14  O5  UNL     1      12.250 -37.933  30.671  1.00  0.00    -0.269 OA
ENDROOT
BRANCH   1  15
HETATM   15  N3  UNL     1      14.009 -37.078  32.686  1.00  0.00    -0.270 N 
HETATM   16  C2  UNL     1      14.228 -37.720  33.791  1.00  0.00     0.227 C 
HETATM   17  N1  UNL     1      13.830 -37.161  35.016  1.00  0.00    -0.238 N 
HETATM   18  N2  UNL     1      14.870 -38.995  33.798  1.00  0.00    -0.060 NA
ATOM     19  H1  UNL     1      13.115 -36.434  35.032  1.00  0.00     0.197 HD
ATOM     20  H3  UNL     1      13.547 -36.169  32.721  1.00  0.00     0.189 HD
BRANCH  17  21
HETATM   21  O1  UNL     1      14.395 -37.585  36.193  1.00  0.00    -0.283 OA
HETATM   22  C1  UNL     1      13.677 -37.096  37.278  1.00  0.00     0.237 C 
ENDBRANCH  17  21
ENDBRANCH   1  15
BRANCH   4  23
HETATM   23  O4  UNL     1      14.011 -39.680  28.622  1.00  0.00    -0.386 OA
ATOM     24  H4  UNL     1      14.865 -40.047  28.427  1.00  0.00     0.210 HD
ENDBRANCH   4  23
BRANCH   2  25
HETATM   25  C4  UNL     1      16.050 -35.964  30.607  1.00  0.00     0.142 C 
BRANCH  25  26
HETATM   26  C5  UNL     1      16.693 -35.316  31.753  1.00  0.00     0.174 C 
HETATM   27  O2  UNL     1      15.952 -34.706  32.607  1.00  0.00    -0.648 OA
HETATM   28  O3  UNL     1      18.049 -35.291  32.015  1.00  0.00    -0.648 OA
ENDBRANCH  25  26
ENDBRANCH   2  25
BRANCH   3  29
HETATM   29  N5  UNL     1      16.155 -37.398  28.416  1.00  0.00    -0.070 N 
ATOM     30  H53 UNL     1      15.465 -36.748  28.041  1.00  0.00     0.274 HD
ATOM     31  H52 UNL     1      16.850 -36.724  28.737  1.00  0.00     0.274 HD
ATOM     32  H51 UNL     1      16.532 -38.005  27.689  1.00  0.00     0.274 HD
ENDBRANCH   3  29
TORSDOF 6
ENDMDL
MODEL 5
REMARK VINA RESULT: -5.226804333      2.573      5.994
REMARK  6 active torsions:
REMARK  status: ('A' for Active; 'I' for Inactive)
REMARK    1  A    between atoms: O1_2  and  N1_3 
REMARK       I    between atoms: N1_3  and  C2_5 
REMARK    2  A    between atoms: N3_7  and  N4_9 
REMARK    3  A    between atoms: C3_10  and  C4_11 
REMARK    4  A    between atoms: C4_11  and  C5_12 
REMARK    5  A    between atoms: C6_15  and  N5_16 
REMARK    6  A    between atoms: C7_20  and  O4_21 
ROOT
HETATM    1  N4  UNL     1      15.027 -38.663  30.944  1.00  0.00    -0.263 N 
HETATM    2  C3  UNL     1      13.781 -38.392  30.312  1.00  0.00     0.150 C 
HETATM    3  C6  UNL     1      14.094 -37.827  28.948  1.00  0.00     0.243 C 
HETATM    4  C7  UNL     1      15.541 -38.218  28.685  1.00  0.00     0.230 C 
HETATM    5  C8  UNL     1      16.142 -38.336  30.076  1.00  0.00     0.270 A 
HETATM    6  N6  UNL     1      16.717 -37.058  30.382  1.00  0.00    -0.311 N 
ATOM      7  H6  UNL     1      16.102 -36.245  30.362  1.00  0.00     0.167 HD
HETATM    8  C9  UNL     1      17.949 -36.865  30.680  1.00  0.00     0.194 A 
HETATM    9  N7  UNL     1      18.443 -35.535  30.975  1.00  0.00    -0.063 NA
HETATM   10  N8  UNL     1      18.804 -37.985  30.719  1.00  0.00    -0.299 N 
ATOM     11  H8  UNL     1      19.788 -37.850  30.952  1.00  0.00     0.171 HD
HETATM   12  C10 UNL     1      18.379 -39.168  30.470  1.00  0.00     0.237 A 
HETATM   13  N9  UNL     1      19.329 -40.271  30.530  1.00  0.00    -0.056 NA
HETATM   14  O5  UNL     1      17.068 -39.379  30.159  1.00  0.00    -0.269 OA
ENDROOT
BRANCH   1  15
HETATM   15  N3  UNL     1      15.190 -39.171  32.236  1.00  0.00    -0.270 N 
HETATM   16  C2  UNL     1      15.260 -38.390  33.268  1.00  0.00     0.227 C 
HETATM   17  N1  UNL     1      15.424 -38.937  34.551  1.00  0.00    -0.238 N 
HETATM   18  N2  UNL     1      15.176 -36.971  33.136  1.00  0.00    -0.060 NA
ATOM     19  H1  UNL     1      15.793 -39.883  34.654  1.00  0.00     0.197 HD
ATOM     20  H3  UNL     1      15.254 -40.181  32.370  1.00  0.00     0.189 HD
BRANCH  17  21
HETATM   21  O1  UNL     1      15.092 -38.211  35.667  1.00  0.00    -0.283 OA
HETATM   22  C1  UNL     1      13.842 -38.593  36.138  1.00  0.00     0.237 C 
ENDBRANCH  17  21
ENDBRANCH   1  15
BRANCH   4  23
HETATM   23  O4  UNL     1      16.164 -37.261  27.913  1.00  0.00    -0.386 OA
ATOM     24  H4  UNL     1      17.085 -37.469  27.809  1.00  0.00     0.210 HD
ENDBRANCH   4  23
BRANCH   2  25
HETATM   25  C4  UNL     1      12.790 -39.493  30.268  1.00  0.00     0.142 C 
BRANCH  25  26
HETATM   26  C5  UNL     1      11.671 -39.392  31.208  1.00  0.00     0.174 C 
HETATM   27  O2  UNL     1      11.927 -39.383  32.467  1.00  0.00    -0.648 OA
HETATM   28  O3  UNL     1      10.334 -39.305  30.870  1.00  0.00    -0.648 OA
ENDBRANCH  25  26
ENDBRANCH   2  25
BRANCH   3  29
HETATM   29  N5  UNL     1      13.236 -38.389  27.933  1.00  0.00    -0.070 N 
ATOM     30  H53 UNL     1      13.563 -39.308  27.635  1.00  0.00     0.274 HD
ATOM     31  H52 UNL     1      12.332 -38.662  28.318  1.00  0.00     0.274 HD
ATOM     32  H51 UNL     1      13.129 -37.756  27.142  1.00  0.00     0.274 HD
ENDBRANCH   3  29
TORSDOF 6
ENDMDL
