MODEL 1
REMARK VINA RESULT: -6.450718559      0.000      0.000
REMARK  8 active torsions:
REMARK  status: ('A' for Active; 'I' for Inactive)
REMARK    1  A    between atoms: N1_1  and  C1_4 
REMARK    2  A    between atoms: C2_7  and  O1_8 
REMARK    3  A    between atoms: C3_10  and  N3_11 
REMARK    4  A    between atoms: N4_13  and  N5_15 
REMARK    5  A    between atoms: C5_17  and  O2_18 
REMARK    6  A    between atoms: C6_23  and  C7_24 
REMARK    7  A    between atoms: C8_27  and  C9_28 
REMARK       I    between atoms: C9_28  and  N8_30 
REMARK    8  A    between atoms: N8_30  and  N9_32 
ROOT
HETATM    1  N5  UNL     1      14.650 -37.211  30.339  1.00  0.00    -0.293 N 
HETATM    2  C4  UNL     1      15.610 -37.447  29.290  1.00  0.00     0.206 C 
HETATM    3  C5  UNL     1      15.984 -38.929  29.363  1.00  0.00     0.339 C 
HETATM    4  N6  UNL     1      14.798 -39.752  29.223  1.00  0.00    -0.032 N 
ATOM      5  H61 UNL     1      15.028 -40.740  29.119  1.00  0.00     0.281 HD
ATOM      6  H62 UNL     1      14.338 -39.611  28.324  1.00  0.00     0.281 HD
HETATM    7  C6  UNL     1      13.886 -39.514  30.350  1.00  0.00     0.310 C 
HETATM    8  C8  UNL     1      13.455 -38.048  30.320  1.00  0.00     0.236 C 
ENDROOT
BRANCH   1   9
HETATM    9  N4  UNL     1      14.834 -36.268  31.285  1.00  0.00    -0.243 N 
HETATM   10  N3  UNL     1      15.774 -35.862  31.922  1.00  0.00    -0.278 N 
ATOM     11  H3  UNL     1      15.500 -35.116  32.561  1.00  0.00     0.189 HD
ATOM     12  H4  UNL     1      13.970 -35.781  31.519  1.00  0.00     0.208 HD
BRANCH  10  13
HETATM   13  C3  UNL     1      17.122 -36.140  32.014  1.00  0.00     0.169 A 
HETATM   14  C2  UNL     1      18.092 -35.610  31.154  1.00  0.00     0.189 A 
HETATM   15  N2  UNL     1      19.386 -35.931  31.291  1.00  0.00    -0.168 N 
HETATM   16  C1  UNL     1      19.811 -36.771  32.256  1.00  0.00     0.680 A 
ATOM     17  H2  UNL     1      20.068 -35.529  30.647  1.00  0.00     0.186 HD
HETATM   18  N10 UNL     1      18.892 -37.284  33.086  1.00  0.00    -0.154 N 
HETATM   19  C10 UNL     1      17.606 -36.989  32.979  1.00  0.00     0.292 A 
ATOM     20  H10 UNL     1      19.192 -37.921  33.824  1.00  0.00     0.187 HD
HETATM   21  O5  UNL     1      16.764 -37.494  33.781  1.00  0.00    -0.265 OA
BRANCH  14  22
HETATM   22  O1  UNL     1      17.688 -34.752  30.163  1.00  0.00    -0.344 OA
ATOM     23  H1  UNL     1      16.767 -34.660  29.950  1.00  0.00     0.219 HD
ENDBRANCH  14  22
BRANCH  16  24
HETATM   24  N1  UNL     1      21.081 -37.049  32.347  1.00  0.00    -0.234 N 
ATOM     25  H12 UNL     1      21.451 -37.993  32.235  1.00  0.00     0.174 HD
ATOM     26  H11 UNL     1      21.744 -36.298  32.540  1.00  0.00     0.174 HD
ENDBRANCH  16  24
ENDBRANCH  10  13
ENDBRANCH   1   9
BRANCH   8  27
HETATM   27  C9  UNL     1      12.553 -37.718  31.413  1.00  0.00     0.262 C 
HETATM   28  O4  UNL     1      12.921 -37.989  32.612  1.00  0.00    -0.269 OA
HETATM   29  N8  UNL     1      11.277 -37.112  31.326  1.00  0.00    -0.275 N 
ATOM     30  H8  UNL     1      10.917 -36.860  30.405  1.00  0.00     0.189 HD
BRANCH  29  31
HETATM   31  N9  UNL     1      10.506 -36.852  32.431  1.00  0.00    -0.343 N 
ATOM     32  H92 UNL     1      10.437 -35.883  32.742  1.00  0.00     0.176 HD
ATOM     33  H91 UNL     1      10.010 -37.583  32.940  1.00  0.00     0.176 HD
ENDBRANCH  29  31
ENDBRANCH   8  27
BRANCH   3  34
HETATM   34  O2  UNL     1      16.848 -39.246  28.329  1.00  0.00    -0.368 OA
ATOM     35  H2  UNL     1      17.441 -39.935  28.606  1.00  0.00     0.212 HD
ENDBRANCH   3  34
BRANCH   7  36
HETATM   36  C7  UNL     1      12.719 -40.373  30.137  1.00  0.00     0.264 C 
HETATM   37  N7  UNL     1      11.798 -40.192  29.072  1.00  0.00    -0.060 NA
HETATM   38  O3  UNL     1      12.456 -41.348  30.913  1.00  0.00    -0.274 OA
ENDBRANCH   7  36
TORSDOF 8
ENDMDL
MODEL 2
REMARK VINA RESULT: -6.321530628      2.437      6.357
REMARK  8 active torsions:
REMARK  status: ('A' for Active; 'I' for Inactive)
REMARK    1  A    between atoms: N1_1  and  C1_4 
REMARK    2  A    between atoms: C2_7  and  O1_8 
REMARK    3  A    between atoms: C3_10  and  N3_11 
REMARK    4  A    between atoms: N4_13  and  N5_15 
REMARK    5  A    between atoms: C5_17  and  O2_18 
REMARK    6  A    between atoms: C6_23  and  C7_24 
REMARK    7  A    between atoms: C8_27  and  C9_28 
REMARK       I    between atoms: C9_28  and  N8_30 
REMARK    8  A    between atoms: N8_30  and  N9_32 
ROOT
HETATM    1  N5  UNL     1      16.931 -36.518  31.203  1.00  0.00    -0.293 N 
HETATM    2  C4  UNL     1      15.889 -35.909  31.993  1.00  0.00     0.206 C 
HETATM    3  C5  UNL     1      15.379 -36.986  32.951  1.00  0.00     0.339 C 
HETATM    4  N6  UNL     1      16.468 -37.489  33.766  1.00  0.00    -0.032 N 
ATOM      5  H61 UNL     1      16.137 -38.099  34.513  1.00  0.00     0.281 HD
ATOM      6  H62 UNL     1      16.884 -36.758  34.343  1.00  0.00     0.281 HD
HETATM    7  C6  UNL     1      17.465 -38.153  32.915  1.00  0.00     0.310 C 
HETATM    8  C8  UNL     1      18.035 -37.118  31.945  1.00  0.00     0.236 C 
ENDROOT
BRANCH   1   9
HETATM    9  N4  UNL     1      16.897 -36.532  29.856  1.00  0.00    -0.243 N 
HETATM   10  N3  UNL     1      16.383 -37.229  29.016  1.00  0.00    -0.278 N 
ATOM     11  H3  UNL     1      16.601 -36.904  28.074  1.00  0.00     0.189 HD
ATOM     12  H4  UNL     1      17.438 -35.770  29.447  1.00  0.00     0.208 HD
BRANCH  10  13
HETATM   13  C3  UNL     1      15.577 -38.348  28.994  1.00  0.00     0.169 A 
HETATM   14  C2  UNL     1      16.039 -39.641  28.718  1.00  0.00     0.189 A 
HETATM   15  N2  UNL     1      15.199 -40.685  28.700  1.00  0.00    -0.168 N 
HETATM   16  C1  UNL     1      13.881 -40.541  28.948  1.00  0.00     0.680 A 
ATOM     17  H2  UNL     1      15.567 -41.614  28.494  1.00  0.00     0.186 HD
HETATM   18  N10 UNL     1      13.428 -39.308  29.215  1.00  0.00    -0.154 N 
HETATM   19  C10 UNL     1      14.229 -38.255  29.239  1.00  0.00     0.292 A 
ATOM     20  H10 UNL     1      12.434 -39.177  29.405  1.00  0.00     0.187 HD
HETATM   21  O5  UNL     1      13.764 -37.103  29.495  1.00  0.00    -0.265 OA
BRANCH  14  22
HETATM   22  O1  UNL     1      17.375 -39.817  28.463  1.00  0.00    -0.344 OA
ATOM     23  H1  UNL     1      17.839 -40.567  28.815  1.00  0.00     0.219 HD
ENDBRANCH  14  22
BRANCH  16  24
HETATM   24  N1  UNL     1      13.108 -41.590  28.921  1.00  0.00    -0.234 N 
ATOM     25  H12 UNL     1      12.499 -41.850  29.696  1.00  0.00     0.174 HD
ATOM     26  H11 UNL     1      13.104 -42.186  28.093  1.00  0.00     0.174 HD
ENDBRANCH  16  24
ENDBRANCH  10  13
ENDBRANCH   1   9
BRANCH   8  27
HETATM   27  C9  UNL     1      19.030 -37.692  31.052  1.00  0.00     0.262 C 
HETATM   28  O4  UNL     1      19.919 -36.915  30.549  1.00  0.00    -0.269 OA
HETATM   29  N8  UNL     1      19.153 -39.043  30.651  1.00  0.00    -0.275 N 
ATOM     30  H8  UNL     1      18.487 -39.724  31.015  1.00  0.00     0.189 HD
BRANCH  29  31
HETATM   31  N9  UNL     1      20.134 -39.472  29.792  1.00  0.00    -0.343 N 
ATOM     32  H92 UNL     1      20.789 -40.175  30.135  1.00  0.00     0.176 HD
ATOM     33  H91 UNL     1      20.226 -39.117  28.840  1.00  0.00     0.176 HD
ENDBRANCH  29  31
ENDBRANCH   8  27
BRANCH   3  34
HETATM   34  O2  UNL     1      14.426 -36.446  33.798  1.00  0.00    -0.368 OA
ATOM     35  H2  UNL     1      14.740 -35.622  34.151  1.00  0.00     0.212 HD
ENDBRANCH   3  34
BRANCH   7  36
HETATM   36  C7  UNL     1      18.528 -38.627  33.805  1.00  0.00     0.264 C 
HETATM   37  N7  UNL     1      19.009 -39.962  33.808  1.00  0.00    -0.060 NA
HETATM   38  O3  UNL     1      19.090 -37.853  34.647  1.00  0.00    -0.274 OA
ENDBRANCH   7  36
TORSDOF 8
ENDMDL
MODEL 3
REMARK VINA RESULT: -6.264066531      2.594      6.365
REMARK  8 active torsions:
REMARK  status: ('A' for Active; 'I' for Inactive)
REMARK    1  A    between atoms: N1_1  and  C1_4 
REMARK    2  A    between atoms: C2_7  and  O1_8 
REMARK    3  A    between atoms: C3_10  and  N3_11 
REMARK    4  A    between atoms: N4_13  and  N5_15 
REMARK    5  A    between atoms: C5_17  and  O2_18 
REMARK    6  A    between atoms: C6_23  and  C7_24 
REMARK    7  A    between atoms: C8_27  and  C9_28 
REMARK       I    between atoms: C9_28  and  N8_30 
REMARK    8  A    between atoms: N8_30  and  N9_32 
ROOT
HETATM    1  N5  UNL     1      16.586 -36.886  30.796  1.00  0.00    -0.293 N 
HETATM    2  C4  UNL     1      15.402 -36.394  31.455  1.00  0.00     0.206 C 
HETATM    3  C5  UNL     1      14.936 -37.499  32.404  1.00  0.00     0.339 C 
HETATM    4  N6  UNL     1      15.992 -37.833  33.340  1.00  0.00    -0.032 N 
ATOM      5  H61 UNL     1      15.666 -38.458  34.077  1.00  0.00     0.281 HD
ATOM      6  H62 UNL     1      16.252 -37.038  33.924  1.00  0.00     0.281 HD
HETATM    7  C6  UNL     1      17.146 -38.387  32.619  1.00  0.00     0.310 C 
HETATM    8  C8  UNL     1      17.676 -37.317  31.665  1.00  0.00     0.236 C 
ENDROOT
BRANCH   1   9
HETATM    9  N4  UNL     1      16.691 -36.945  29.453  1.00  0.00    -0.243 N 
HETATM   10  N3  UNL     1      16.284 -37.683  28.590  1.00  0.00    -0.278 N 
ATOM     11  H3  UNL     1      16.589 -37.382  27.665  1.00  0.00     0.189 HD
ATOM     12  H4  UNL     1      17.250 -36.180  29.076  1.00  0.00     0.208 HD
BRANCH  10  13
HETATM   13  C3  UNL     1      15.515 -38.825  28.526  1.00  0.00     0.169 A 
HETATM   14  C2  UNL     1      14.115 -38.826  28.482  1.00  0.00     0.189 A 
HETATM   15  N2  UNL     1      13.426 -39.975  28.432  1.00  0.00    -0.168 N 
HETATM   16  C1  UNL     1      14.044 -41.173  28.419  1.00  0.00     0.680 A 
ATOM     17  H2  UNL     1      12.406 -39.941  28.403  1.00  0.00     0.186 HD
HETATM   18  N10 UNL     1      15.384 -41.185  28.459  1.00  0.00    -0.154 N 
HETATM   19  C10 UNL     1      16.095 -40.070  28.510  1.00  0.00     0.292 A 
ATOM     20  H10 UNL     1      15.871 -42.081  28.449  1.00  0.00     0.187 HD
HETATM   21  O5  UNL     1      17.361 -40.120  28.548  1.00  0.00    -0.265 OA
BRANCH  14  22
HETATM   22  O1  UNL     1      13.460 -37.621  28.494  1.00  0.00    -0.344 OA
ATOM     23  H1  UNL     1      13.454 -37.067  27.722  1.00  0.00     0.219 HD
ENDBRANCH  14  22
BRANCH  16  24
HETATM   24  N1  UNL     1      13.327 -42.260  28.367  1.00  0.00    -0.234 N 
ATOM     25  H12 UNL     1      12.746 -42.504  27.565  1.00  0.00     0.174 HD
ATOM     26  H11 UNL     1      13.338 -42.904  29.159  1.00  0.00     0.174 HD
ENDBRANCH  16  24
ENDBRANCH  10  13
ENDBRANCH   1   9
BRANCH   8  27
HETATM   27  C9  UNL     1      18.820 -37.783  30.898  1.00  0.00     0.262 C 
HETATM   28  O4  UNL     1      19.695 -36.922  30.521  1.00  0.00    -0.269 OA
HETATM   29  N8  UNL     1      19.109 -39.109  30.498  1.00  0.00    -0.275 N 
ATOM     30  H8  UNL     1      18.463 -39.852  30.765  1.00  0.00     0.189 HD
BRANCH  29  31
HETATM   31  N9  UNL     1      20.223 -39.434  29.764  1.00  0.00    -0.343 N 
ATOM     32  H92 UNL     1      20.124 -40.149  29.044  1.00  0.00     0.176 HD
ATOM     33  H91 UNL     1      21.129 -38.989  29.915  1.00  0.00     0.176 HD
ENDBRANCH  29  31
ENDBRANCH   8  27
BRANCH   3  34
HETATM   34  O2  UNL     1      13.842 -37.063  33.131  1.00  0.00    -0.368 OA
ATOM     35  H2  UNL     1      13.338 -36.446  32.614  1.00  0.00     0.212 HD
ENDBRANCH   3  34
BRANCH   7  36
HETATM   36  C7  UNL     1      18.164 -38.694  33.626  1.00  0.00     0.264 C 
HETATM   37  N7  UNL     1      18.890 -39.912  33.659  1.00  0.00    -0.060 NA
HETATM   38  O3  UNL     1      18.459 -37.869  34.552  1.00  0.00    -0.274 OA
ENDBRANCH   7  36
TORSDOF 8
ENDMDL
MODEL 4
REMARK VINA RESULT: -6.091274792      1.927      5.828
REMARK  8 active torsions:
REMARK  status: ('A' for Active; 'I' for Inactive)
REMARK    1  A    between atoms: N1_1  and  C1_4 
REMARK    2  A    between atoms: C2_7  and  O1_8 
REMARK    3  A    between atoms: C3_10  and  N3_11 
REMARK    4  A    between atoms: N4_13  and  N5_15 
REMARK    5  A    between atoms: C5_17  and  O2_18 
REMARK    6  A    between atoms: C6_23  and  C7_24 
REMARK    7  A    between atoms: C8_27  and  C9_28 
REMARK       I    between atoms: C9_28  and  N8_30 
REMARK    8  A    between atoms: N8_30  and  N9_32 
ROOT
HETATM    1  N5  UNL     1      16.445 -36.956  31.337  1.00  0.00    -0.293 N 
HETATM    2  C4  UNL     1      17.538 -36.843  30.404  1.00  0.00     0.206 C 
HETATM    3  C5  UNL     1      18.778 -36.478  31.222  1.00  0.00     0.339 C 
HETATM    4  N6  UNL     1      19.021 -37.484  32.238  1.00  0.00    -0.032 N 
ATOM      5  H61 UNL     1      19.919 -37.350  32.702  1.00  0.00     0.281 HD
ATOM      6  H62 UNL     1      19.198 -38.403  31.832  1.00  0.00     0.281 HD
HETATM    7  C6  UNL     1      17.906 -37.511  33.194  1.00  0.00     0.310 C 
HETATM    8  C8  UNL     1      16.633 -37.894  32.439  1.00  0.00     0.236 C 
ENDROOT
BRANCH   1   9
HETATM    9  N4  UNL     1      15.308 -36.244  31.205  1.00  0.00    -0.243 N 
HETATM   10  N3  UNL     1      14.193 -36.471  30.807  1.00  0.00    -0.278 N 
ATOM     11  H3  UNL     1      13.597 -35.646  30.868  1.00  0.00     0.189 HD
ATOM     12  H4  UNL     1      15.418 -35.280  31.518  1.00  0.00     0.208 HD
BRANCH  10  13
HETATM   13  C3  UNL     1      13.511 -37.553  30.290  1.00  0.00     0.169 A 
HETATM   14  C2  UNL     1      12.453 -38.197  30.944  1.00  0.00     0.189 A 
HETATM   15  N2  UNL     1      11.840 -39.253  30.391  1.00  0.00    -0.168 N 
HETATM   16  C1  UNL     1      12.208 -39.739  29.188  1.00  0.00     0.680 A 
ATOM     17  H2  UNL     1      11.074 -39.702  30.893  1.00  0.00     0.186 HD
HETATM   18  N10 UNL     1      13.219 -39.129  28.552  1.00  0.00    -0.154 N 
HETATM   19  C10 UNL     1      13.847 -38.085  29.070  1.00  0.00     0.292 A 
ATOM     20  H10 UNL     1      13.514 -39.480  27.640  1.00  0.00     0.187 HD
HETATM   21  O5  UNL     1      14.800 -37.534  28.440  1.00  0.00    -0.265 OA
BRANCH  14  22
HETATM   22  O1  UNL     1      12.057 -37.725  32.169  1.00  0.00    -0.344 OA
ATOM     23  H1  UNL     1      11.233 -37.262  32.264  1.00  0.00     0.219 HD
ENDBRANCH  14  22
BRANCH  16  24
HETATM   24  N1  UNL     1      11.578 -40.766  28.693  1.00  0.00    -0.234 N 
ATOM     25  H12 UNL     1      10.993 -40.709  27.859  1.00  0.00     0.174 HD
ATOM     26  H11 UNL     1      11.664 -41.673  29.152  1.00  0.00     0.174 HD
ENDBRANCH  16  24
ENDBRANCH  10  13
ENDBRANCH   1   9
BRANCH   8  27
HETATM   27  C9  UNL     1      15.469 -37.937  33.310  1.00  0.00     0.262 C 
HETATM   28  O4  UNL     1      15.128 -36.864  33.927  1.00  0.00    -0.269 OA
HETATM   29  N8  UNL     1      14.630 -39.044  33.576  1.00  0.00    -0.275 N 
ATOM     30  H8  UNL     1      14.832 -39.933  33.117  1.00  0.00     0.189 HD
BRANCH  29  31
HETATM   31  N9  UNL     1      13.555 -38.970  34.426  1.00  0.00    -0.343 N 
ATOM     32  H92 UNL     1      13.722 -38.626  35.372  1.00  0.00     0.176 HD
ATOM     33  H91 UNL     1      12.613 -39.244  34.147  1.00  0.00     0.176 HD
ENDBRANCH  29  31
ENDBRANCH   8  27
BRANCH   3  34
HETATM   34  O2  UNL     1      19.887 -36.430  30.396  1.00  0.00    -0.368 OA
ATOM     35  H2  UNL     1      20.017 -35.542  30.085  1.00  0.00     0.212 HD
ENDBRANCH   3  34
BRANCH   7  36
HETATM   36  C7  UNL     1      18.221 -38.547  34.180  1.00  0.00     0.264 C 
HETATM   37  N7  UNL     1      18.508 -39.894  33.836  1.00  0.00    -0.060 NA
HETATM   38  O3  UNL     1      18.252 -38.295  35.429  1.00  0.00    -0.274 OA
ENDBRANCH   7  36
TORSDOF 8
ENDMDL
MODEL 5
REMARK VINA RESULT: -6.005643745      2.277      5.918
REMARK  8 active torsions:
REMARK  status: ('A' for Active; 'I' for Inactive)
REMARK    1  A    between atoms: N1_1  and  C1_4 
REMARK    2  A    between atoms: C2_7  and  O1_8 
REMARK    3  A    between atoms: C3_10  and  N3_11 
REMARK    4  A    between atoms: N4_13  and  N5_15 
REMARK    5  A    between atoms: C5_17  and  O2_18 
REMARK    6  A    between atoms: C6_23  and  C7_24 
REMARK    7  A    between atoms: C8_27  and  C9_28 
REMARK       I    between atoms: C9_28  and  N8_30 
REMARK    8  A    between atoms: N8_30  and  N9_32 
ROOT
HETATM    1  N5  UNL     1      18.220 -38.242  30.891  1.00  0.00    -0.293 N 
HETATM    2  C4  UNL     1      19.076 -39.298  30.411  1.00  0.00     0.206 C 
HETATM    3  C5  UNL     1      20.349 -39.251  31.258  1.00  0.00     0.339 C 
HETATM    4  N6  UNL     1      20.021 -39.401  32.663  1.00  0.00    -0.032 N 
ATOM      5  H61 UNL     1      20.854 -39.523  33.239  1.00  0.00     0.281 HD
ATOM      6  H62 UNL     1      19.573 -40.296  32.858  1.00  0.00     0.281 HD
HETATM    7  C6  UNL     1      19.202 -38.267  33.111  1.00  0.00     0.310 C 
HETATM    8  C8  UNL     1      17.897 -38.271  32.315  1.00  0.00     0.236 C 
ENDROOT
BRANCH   1   9
HETATM    9  N4  UNL     1      17.737 -37.280  30.080  1.00  0.00    -0.243 N 
HETATM   10  N3  UNL     1      16.706 -37.099  29.481  1.00  0.00    -0.278 N 
ATOM     11  H3  UNL     1      16.724 -36.224  28.958  1.00  0.00     0.189 HD
ATOM     12  H4  UNL     1      18.404 -36.523  29.937  1.00  0.00     0.208 HD
BRANCH  10  13
HETATM   13  C3  UNL     1      15.508 -37.764  29.317  1.00  0.00     0.169 A 
HETATM   14  C2  UNL     1      14.302 -37.361  29.903  1.00  0.00     0.189 A 
HETATM   15  N2  UNL     1      13.174 -38.060  29.713  1.00  0.00    -0.168 N 
HETATM   16  C1  UNL     1      13.148 -39.173  28.953  1.00  0.00     0.680 A 
ATOM     17  H2  UNL     1      12.312 -37.741  30.156  1.00  0.00     0.186 HD
HETATM   18  N10 UNL     1      14.297 -39.568  28.385  1.00  0.00    -0.154 N 
HETATM   19  C10 UNL     1      15.429 -38.902  28.553  1.00  0.00     0.292 A 
ATOM     20  H10 UNL     1      14.300 -40.408  27.806  1.00  0.00     0.187 HD
HETATM   21  O5  UNL     1      16.497 -39.306  28.001  1.00  0.00    -0.265 OA
BRANCH  14  22
HETATM   22  O1  UNL     1      14.299 -36.232  30.682  1.00  0.00    -0.344 OA
ATOM     23  H1  UNL     1      14.467 -36.288  31.615  1.00  0.00     0.219 HD
ENDBRANCH  14  22
BRANCH  16  24
HETATM   24  N1  UNL     1      12.025 -39.815  28.798  1.00  0.00    -0.234 N 
ATOM     25  H12 UNL     1      11.401 -40.036  29.575  1.00  0.00     0.174 HD
ATOM     26  H11 UNL     1      11.746 -40.116  27.864  1.00  0.00     0.174 HD
ENDBRANCH  16  24
ENDBRANCH  10  13
ENDBRANCH   1   9
BRANCH   8  27
HETATM   27  C9  UNL     1      17.022 -37.170  32.687  1.00  0.00     0.262 C 
HETATM   28  O4  UNL     1      17.450 -35.970  32.530  1.00  0.00    -0.269 OA
HETATM   29  N8  UNL     1      15.713 -37.250  33.217  1.00  0.00    -0.275 N 
ATOM     30  H8  UNL     1      15.300 -38.172  33.365  1.00  0.00     0.189 HD
BRANCH  29  31
HETATM   31  N9  UNL     1      14.977 -36.138  33.541  1.00  0.00    -0.343 N 
ATOM     32  H92 UNL     1      14.959 -35.370  32.869  1.00  0.00     0.176 HD
ATOM     33  H91 UNL     1      14.458 -36.057  34.416  1.00  0.00     0.176 HD
ENDBRANCH  29  31
ENDBRANCH   8  27
BRANCH   3  34
HETATM   34  O2  UNL     1      21.188 -40.292  30.901  1.00  0.00    -0.368 OA
ATOM     35  H2  UNL     1      20.852 -41.109  31.250  1.00  0.00     0.212 HD
ENDBRANCH   3  34
BRANCH   7  36
HETATM   36  C7  UNL     1      18.911 -38.492  34.528  1.00  0.00     0.264 C 
HETATM   37  N7  UNL     1      17.819 -39.271  34.990  1.00  0.00    -0.060 NA
HETATM   38  O3  UNL     1      19.635 -37.987  35.448  1.00  0.00    -0.274 OA
ENDBRANCH   7  36
TORSDOF 8
ENDMDL
