MODEL 1
REMARK VINA RESULT: -8.005575484      0.000      0.000
REMARK  1 active torsions:
REMARK  status: ('A' for Active; 'I' for Inactive)
REMARK    1  A    between atoms: C7_12  and  C8_13 
ROOT
HETATM    1  C1  UNL     1       8.434 -25.698 -11.873  1.00  0.00     0.024 C 
HETATM    2  C2  UNL     1       8.825 -25.911 -10.442  1.00  0.00     0.101 C 
HETATM    3  C3  UNL     1      10.073 -25.176 -10.168  1.00  0.00     0.029 C 
HETATM    4  N1  UNL     1      11.169 -25.790 -10.383  1.00  0.00    -0.403 N 
ATOM      5  H11 UNL     1      12.033 -25.281 -10.193  1.00  0.00     0.155 HD
ATOM      6  H12 UNL     1      11.124 -26.749 -10.726  1.00  0.00     0.155 HD
HETATM    7  C4  UNL     1      10.140 -23.783  -9.670  1.00  0.00     0.184 C 
HETATM    8  C5  UNL     1      11.344 -23.687  -8.838  1.00  0.00     0.091 C 
HETATM    9  N2  UNL     1      12.325 -23.616  -8.189  1.00  0.00    -0.195 NA
HETATM   10  C6  UNL     1      10.464 -22.985 -10.889  1.00  0.00     0.091 C 
HETATM   11  N3  UNL     1      10.713 -22.345 -11.829  1.00  0.00    -0.195 NA
HETATM   12  C7  UNL     1       8.934 -23.277  -8.994  1.00  0.00     0.086 C 
HETATM   13  C14 UNL     1       7.904 -24.289  -8.612  1.00  0.00     0.174 C 
HETATM   14  C15 UNL     1       6.556 -23.686  -8.628  1.00  0.00     0.072 C 
HETATM   15  N4  UNL     1       5.501 -23.196  -8.631  1.00  0.00    -0.196 NA
HETATM   16  C16 UNL     1       7.826 -25.469  -9.469  1.00  0.00     0.154 C 
HETATM   17  O1  UNL     1       6.807 -26.167  -9.363  1.00  0.00    -0.296 OA
ENDROOT
BRANCH  12  18
HETATM   18  C8  UNL     1       9.197 -22.401  -7.819  1.00  0.00    -0.049 A 
HETATM   19  C9  UNL     1       9.964 -21.244  -7.925  1.00  0.00     0.011 A 
HETATM   20  C10 UNL     1      10.202 -20.424  -6.840  1.00  0.00     0.043 A 
HETATM   21  C11 UNL     1       9.678 -20.729  -5.600  1.00  0.00     0.116 A 
HETATM   22  F1  UNL     1       9.924 -19.907  -4.542  1.00  0.00    -0.206 F 
HETATM   23  C12 UNL     1       8.912 -21.869  -5.457  1.00  0.00     0.043 A 
HETATM   24  C13 UNL     1       8.692 -22.668  -6.561  1.00  0.00     0.011 A 
ENDBRANCH  12  18
TORSDOF 1
ENDMDL
MODEL 2
REMARK VINA RESULT: -7.904043617      2.931      4.816
REMARK  1 active torsions:
REMARK  status: ('A' for Active; 'I' for Inactive)
REMARK    1  A    between atoms: C7_12  and  C8_13 
ROOT
HETATM    1  C1  UNL     1       6.335 -23.232  -7.381  1.00  0.00     0.024 C 
HETATM    2  C2  UNL     1       7.610 -24.018  -7.324  1.00  0.00     0.101 C 
HETATM    3  C3  UNL     1       7.835 -24.667  -8.628  1.00  0.00     0.029 C 
HETATM    4  N1  UNL     1       7.328 -25.824  -8.799  1.00  0.00    -0.403 N 
ATOM      5  H11 UNL     1       7.484 -26.272  -9.701  1.00  0.00     0.155 HD
ATOM      6  H12 UNL     1       6.800 -26.235  -8.029  1.00  0.00     0.155 HD
HETATM    7  C4  UNL     1       8.601 -24.070  -9.747  1.00  0.00     0.184 C 
HETATM    8  C5  UNL     1       9.237 -25.178 -10.465  1.00  0.00     0.091 C 
HETATM    9  N2  UNL     1       9.726 -26.079 -11.048  1.00  0.00    -0.195 NA
HETATM   10  C6  UNL     1       7.543 -23.578 -10.678  1.00  0.00     0.091 C 
HETATM   11  N3  UNL     1       6.733 -23.185 -11.415  1.00  0.00    -0.195 NA
HETATM   12  C7  UNL     1       9.547 -23.001  -9.387  1.00  0.00     0.086 C 
HETATM   13  C14 UNL     1       9.861 -22.843  -7.935  1.00  0.00     0.174 C 
HETATM   14  C15 UNL     1      10.183 -21.435  -7.626  1.00  0.00     0.072 C 
HETATM   15  N4  UNL     1      10.448 -20.325  -7.398  1.00  0.00    -0.196 NA
HETATM   16  C16 UNL     1       8.797 -23.223  -7.011  1.00  0.00     0.154 C 
HETATM   17  O1  UNL     1       8.910 -22.830  -5.840  1.00  0.00    -0.296 OA
ENDROOT
BRANCH  12  18
HETATM   18  C8  UNL     1      10.826 -23.016 -10.150  1.00  0.00    -0.049 A 
HETATM   19  C9  UNL     1      11.965 -23.648  -9.657  1.00  0.00     0.011 A 
HETATM   20  C10 UNL     1      13.150 -23.672 -10.365  1.00  0.00     0.043 A 
HETATM   21  C11 UNL     1      13.244 -23.062 -11.600  1.00  0.00     0.116 A 
HETATM   22  F1  UNL     1      14.422 -23.098 -12.282  1.00  0.00    -0.206 F 
HETATM   23  C12 UNL     1      12.135 -22.426 -12.120  1.00  0.00     0.043 A 
HETATM   24  C13 UNL     1      10.964 -22.419 -11.388  1.00  0.00     0.011 A 
ENDBRANCH  12  18
TORSDOF 1
ENDMDL
MODEL 3
REMARK VINA RESULT: -7.618419056      2.876      4.710
REMARK  1 active torsions:
REMARK  status: ('A' for Active; 'I' for Inactive)
REMARK    1  A    between atoms: C7_12  and  C8_13 
ROOT
HETATM    1  C1  UNL     1       5.326 -23.048  -8.745  1.00  0.00     0.024 C 
HETATM    2  C2  UNL     1       6.246 -24.161  -8.343  1.00  0.00     0.101 C 
HETATM    3  C3  UNL     1       6.679 -24.888  -9.550  1.00  0.00     0.029 C 
HETATM    4  N1  UNL     1       5.949 -25.858  -9.939  1.00  0.00    -0.403 N 
ATOM      5  H11 UNL     1       6.248 -26.361 -10.773  1.00  0.00     0.155 HD
ATOM      6  H12 UNL     1       5.114 -26.078  -9.396  1.00  0.00     0.155 HD
HETATM    7  C4  UNL     1       7.892 -24.569 -10.338  1.00  0.00     0.184 C 
HETATM    8  C5  UNL     1       8.385 -25.834 -10.890  1.00  0.00     0.091 C 
HETATM    9  N2  UNL     1       8.760 -26.855 -11.346  1.00  0.00    -0.195 NA
HETATM   10  C6  UNL     1       7.362 -23.827 -11.520  1.00  0.00     0.091 C 
HETATM   11  N3  UNL     1       6.968 -23.243 -12.446  1.00  0.00    -0.195 NA
HETATM   12  C7  UNL     1       8.936 -23.802  -9.639  1.00  0.00     0.086 C 
HETATM   13  C14 UNL     1       8.809 -23.694  -8.155  1.00  0.00     0.174 C 
HETATM   14  C15 UNL     1       9.397 -22.427  -7.677  1.00  0.00     0.072 C 
HETATM   15  N4  UNL     1       9.877 -21.431  -7.311  1.00  0.00    -0.196 NA
HETATM   16  C16 UNL     1       7.447 -23.727  -7.630  1.00  0.00     0.154 C 
HETATM   17  O1  UNL     1       7.291 -23.345  -6.460  1.00  0.00    -0.296 OA
ENDROOT
BRANCH  12  18
HETATM   18  C8  UNL     1      10.332 -24.204  -9.967  1.00  0.00    -0.049 A 
HETATM   19  C9  UNL     1      11.000 -23.689 -11.074  1.00  0.00     0.011 A 
HETATM   20  C10 UNL     1      12.297 -24.050 -11.377  1.00  0.00     0.043 A 
HETATM   21  C11 UNL     1      12.982 -24.946 -10.581  1.00  0.00     0.116 A 
HETATM   22  F1  UNL     1      14.261 -25.290 -10.896  1.00  0.00    -0.206 F 
HETATM   23  C12 UNL     1      12.351 -25.477  -9.474  1.00  0.00     0.043 A 
HETATM   24  C13 UNL     1      11.053 -25.095  -9.197  1.00  0.00     0.011 A 
ENDBRANCH  12  18
TORSDOF 1
ENDMDL
MODEL 4
REMARK VINA RESULT: -7.576118296      2.886      4.813
REMARK  1 active torsions:
REMARK  status: ('A' for Active; 'I' for Inactive)
REMARK    1  A    between atoms: C7_12  and  C8_13 
ROOT
HETATM    1  C1  UNL     1       5.403 -22.981  -8.714  1.00  0.00     0.024 C 
HETATM    2  C2  UNL     1       6.328 -24.092  -8.320  1.00  0.00     0.101 C 
HETATM    3  C3  UNL     1       6.745 -24.825  -9.529  1.00  0.00     0.029 C 
HETATM    4  N1  UNL     1       6.010 -25.796  -9.904  1.00  0.00    -0.403 N 
ATOM      5  H11 UNL     1       6.298 -26.303 -10.741  1.00  0.00     0.155 HD
ATOM      6  H12 UNL     1       5.182 -26.014  -9.350  1.00  0.00     0.155 HD
HETATM    7  C4  UNL     1       7.947 -24.509 -10.335  1.00  0.00     0.184 C 
HETATM    8  C5  UNL     1       8.432 -25.777 -10.888  1.00  0.00     0.091 C 
HETATM    9  N2  UNL     1       8.801 -26.799 -11.345  1.00  0.00    -0.195 NA
HETATM   10  C6  UNL     1       7.401 -23.772 -11.513  1.00  0.00     0.091 C 
HETATM   11  N3  UNL     1       6.995 -23.192 -12.437  1.00  0.00    -0.195 NA
HETATM   12  C7  UNL     1       9.000 -23.739  -9.654  1.00  0.00     0.086 C 
HETATM   13  C14 UNL     1       8.894 -23.625  -8.168  1.00  0.00     0.174 C 
HETATM   14  C15 UNL     1       9.488 -22.355  -7.704  1.00  0.00     0.072 C 
HETATM   15  N4  UNL     1       9.972 -21.358  -7.349  1.00  0.00    -0.196 NA
HETATM   16  C16 UNL     1       7.539 -23.655  -7.625  1.00  0.00     0.154 C 
HETATM   17  O1  UNL     1       7.399 -23.269  -6.455  1.00  0.00    -0.296 OA
ENDROOT
BRANCH  12  18
HETATM   18  C8  UNL     1      10.392 -24.142  -9.999  1.00  0.00    -0.049 A 
HETATM   19  C9  UNL     1      11.104 -25.053  -9.223  1.00  0.00     0.011 A 
HETATM   20  C10 UNL     1      12.390 -25.436  -9.545  1.00  0.00     0.043 A 
HETATM   21  C11 UNL     1      13.019 -24.923 -10.661  1.00  0.00     0.116 A 
HETATM   22  F1  UNL     1      14.288 -25.314 -10.961  1.00  0.00    -0.206 F 
HETATM   23  C12 UNL     1      12.343 -24.018 -11.454  1.00  0.00     0.043 A 
HETATM   24  C13 UNL     1      11.058 -23.654 -11.106  1.00  0.00     0.011 A 
ENDBRANCH  12  18
TORSDOF 1
ENDMDL
MODEL 5
REMARK VINA RESULT: -7.410467181      2.045      3.949
REMARK  1 active torsions:
REMARK  status: ('A' for Active; 'I' for Inactive)
REMARK    1  A    between atoms: C7_12  and  C8_13 
ROOT
HETATM    1  C1  UNL     1       9.191 -26.493 -12.520  1.00  0.00     0.024 C 
HETATM    2  C2  UNL     1       9.175 -25.022 -12.233  1.00  0.00     0.101 C 
HETATM    3  C3  UNL     1       7.893 -24.669 -11.594  1.00  0.00     0.029 C 
HETATM    4  N1  UNL     1       6.926 -24.358 -12.363  1.00  0.00    -0.403 N 
ATOM      5  H11 UNL     1       6.040 -24.114 -11.921  1.00  0.00     0.155 HD
ATOM      6  H12 UNL     1       7.089 -24.368 -13.369  1.00  0.00     0.155 HD
HETATM    7  C4  UNL     1       7.655 -24.656 -10.132  1.00  0.00     0.184 C 
HETATM    8  C5  UNL     1       6.669 -23.602  -9.873  1.00  0.00     0.091 C 
HETATM    9  N2  UNL     1       5.860 -22.766  -9.678  1.00  0.00    -0.195 NA
HETATM   10  C6  UNL     1       6.917 -25.929  -9.881  1.00  0.00     0.091 C 
HETATM   11  N3  UNL     1       6.343 -26.918  -9.666  1.00  0.00    -0.195 NA
HETATM   12  C7  UNL     1       8.851 -24.545  -9.281  1.00  0.00     0.086 C 
HETATM   13  C14 UNL     1      10.123 -24.154  -9.959  1.00  0.00     0.174 C 
HETATM   14  C15 UNL     1      11.284 -24.739  -9.257  1.00  0.00     0.072 C 
HETATM   15  N4  UNL     1      12.190 -25.194  -8.687  1.00  0.00    -0.196 NA
HETATM   16  C16 UNL     1      10.251 -24.564 -11.354  1.00  0.00     0.154 C 
HETATM   17  O1  UNL     1      11.389 -24.522 -11.845  1.00  0.00    -0.296 OA
ENDROOT
BRANCH  12  18
HETATM   18  C8  UNL     1       8.680 -23.697  -8.069  1.00  0.00    -0.049 A 
HETATM   19  C9  UNL     1       7.745 -24.006  -7.085  1.00  0.00     0.011 A 
HETATM   20  C10 UNL     1       7.589 -23.228  -5.956  1.00  0.00     0.043 A 
HETATM   21  C11 UNL     1       8.367 -22.104  -5.764  1.00  0.00     0.116 A 
HETATM   22  F1  UNL     1       8.198 -21.349  -4.643  1.00  0.00    -0.206 F 
HETATM   23  C12 UNL     1       9.304 -21.766  -6.719  1.00  0.00     0.043 A 
HETATM   24  C13 UNL     1       9.436 -22.564  -7.838  1.00  0.00     0.011 A 
ENDBRANCH  12  18
TORSDOF 1
ENDMDL
