MODEL 1
REMARK VINA RESULT: -5.434834005      0.000      0.000
REMARK  4 active torsions:
REMARK  status: ('A' for Active; 'I' for Inactive)
REMARK    1  A    between atoms: C2_2  and  O1_3 
REMARK    2  A    between atoms: O1_3  and  C3_4 
REMARK       I    between atoms: C3_4  and  N1_6 
REMARK    3  A    between atoms: N1_6  and  C4_8 
REMARK    4  A    between atoms: C5_13  and  S1_14 
ROOT
HETATM    1  C4  UNL     1       0.712  12.299  -6.880  1.00  0.00     0.170 A 
HETATM    2  N2  UNL     1       1.711  12.765  -7.638  1.00  0.00    -0.278 N 
ATOM      3  H2  UNL     1       2.051  13.720  -7.520  1.00  0.00     0.189 HD
HETATM    4  N3  UNL     1       2.229  11.997  -8.506  1.00  0.00    -0.286 N 
ATOM      5  H3  UNL     1       2.992  12.338  -9.091  1.00  0.00     0.188 HD
HETATM    6  C5  UNL     1       1.787  10.761  -8.657  1.00  0.00     0.129 A 
HETATM    7  S2  UNL     1       0.555  10.697  -7.482  1.00  0.00    -0.026 SA
ENDROOT
BRANCH   1   8
HETATM    8  N1  UNL     1       0.054  12.929  -5.940  1.00  0.00    -0.281 N 
HETATM    9  C3  UNL     1      -1.370  12.844  -6.028  1.00  0.00     0.366 C 
HETATM   10  O2  UNL     1      -1.958  12.987  -7.138  1.00  0.00    -0.238 OA
ATOM     11  H1  UNL     1       0.525  13.444  -5.196  1.00  0.00     0.173 HD
BRANCH   9  12
HETATM   12  O1  UNL     1      -2.166  12.604  -4.929  1.00  0.00    -0.304 OA
BRANCH  12  13
HETATM   13  C2  UNL     1      -2.242  11.292  -4.371  1.00  0.00     0.176 C 
HETATM   14  C1  UNL     1      -2.741  11.337  -2.943  1.00  0.00     0.034 C 
ENDBRANCH  12  13
ENDBRANCH   9  12
ENDBRANCH   1   8
BRANCH   6  15
HETATM   15  S1  UNL     1       2.276   9.440  -9.759  1.00  0.00    -0.108 SA
HETATM   16  C6  UNL     1       1.728   7.851  -9.161  1.00  0.00     0.097 C 
ENDBRANCH   6  15
TORSDOF 4
ENDMDL
MODEL 2
REMARK VINA RESULT: -5.433592323      2.607      2.949
REMARK  4 active torsions:
REMARK  status: ('A' for Active; 'I' for Inactive)
REMARK    1  A    between atoms: C2_2  and  O1_3 
REMARK    2  A    between atoms: O1_3  and  C3_4 
REMARK       I    between atoms: C3_4  and  N1_6 
REMARK    3  A    between atoms: N1_6  and  C4_8 
REMARK    4  A    between atoms: C5_13  and  S1_14 
ROOT
HETATM    1  C4  UNL     1      -0.245  10.437  -6.590  1.00  0.00     0.170 A 
HETATM    2  N2  UNL     1       0.120  10.372  -7.876  1.00  0.00    -0.278 N 
ATOM      3  H2  UNL     1       0.272  11.224  -8.416  1.00  0.00     0.189 HD
HETATM    4  N3  UNL     1       0.274   9.232  -8.410  1.00  0.00    -0.286 N 
ATOM      5  H3  UNL     1       0.552   9.166  -9.390  1.00  0.00     0.188 HD
HETATM    6  C5  UNL     1       0.077   8.129  -7.709  1.00  0.00     0.129 A 
HETATM    7  S2  UNL     1      -0.356   8.769  -6.190  1.00  0.00    -0.026 SA
ENDROOT
BRANCH   1   8
HETATM    8  N1  UNL     1      -0.453  11.507  -5.866  1.00  0.00    -0.281 N 
HETATM    9  C3  UNL     1       0.042  12.728  -6.421  1.00  0.00     0.366 C 
HETATM   10  O2  UNL     1       1.190  12.778  -6.948  1.00  0.00    -0.238 OA
ATOM     11  H1  UNL     1      -0.934  11.472  -4.967  1.00  0.00     0.173 HD
BRANCH   9  12
HETATM   12  O1  UNL     1      -0.692  13.894  -6.414  1.00  0.00    -0.304 OA
BRANCH  12  13
HETATM   13  C2  UNL     1      -1.978  13.929  -5.795  1.00  0.00     0.176 C 
HETATM   14  C1  UNL     1      -1.866  14.293  -4.330  1.00  0.00     0.034 C 
ENDBRANCH  12  13
ENDBRANCH   9  12
ENDBRANCH   1   8
BRANCH   6  15
HETATM   15  S1  UNL     1       0.200   6.398  -8.138  1.00  0.00    -0.108 SA
HETATM   16  C6  UNL     1      -1.393   5.711  -8.556  1.00  0.00     0.097 C 
ENDBRANCH   6  15
TORSDOF 4
ENDMDL
MODEL 3
REMARK VINA RESULT: -5.359362068      2.525      2.865
REMARK  4 active torsions:
REMARK  status: ('A' for Active; 'I' for Inactive)
REMARK    1  A    between atoms: C2_2  and  O1_3 
REMARK    2  A    between atoms: O1_3  and  C3_4 
REMARK       I    between atoms: C3_4  and  N1_6 
REMARK    3  A    between atoms: N1_6  and  C4_8 
REMARK    4  A    between atoms: C5_13  and  S1_14 
ROOT
HETATM    1  C4  UNL     1       0.274  10.659  -6.750  1.00  0.00     0.170 A 
HETATM    2  N2  UNL     1      -0.314   9.864  -5.849  1.00  0.00    -0.278 N 
ATOM      3  H2  UNL     1      -0.607  10.233  -4.943  1.00  0.00     0.189 HD
HETATM    4  N3  UNL     1      -0.502   8.644  -6.140  1.00  0.00    -0.286 N 
ATOM      5  H3  UNL     1      -0.949   8.025  -5.463  1.00  0.00     0.188 HD
HETATM    6  C5  UNL     1      -0.122   8.168  -7.313  1.00  0.00     0.129 A 
HETATM    7  S2  UNL     1       0.544   9.557  -8.041  1.00  0.00    -0.026 SA
ENDROOT
BRANCH   1   8
HETATM    8  N1  UNL     1       0.552  11.933  -6.639  1.00  0.00    -0.281 N 
HETATM    9  C3  UNL     1      -0.578  12.808  -6.633  1.00  0.00     0.366 C 
HETATM   10  O2  UNL     1      -1.527  12.642  -7.452  1.00  0.00    -0.238 OA
ATOM     11  H1  UNL     1       1.509  12.278  -6.562  1.00  0.00     0.173 HD
BRANCH   9  12
HETATM   12  O1  UNL     1      -0.694  13.860  -5.751  1.00  0.00    -0.304 OA
BRANCH  12  13
HETATM   13  C2  UNL     1      -1.814  13.937  -4.870  1.00  0.00     0.176 C 
HETATM   14  C1  UNL     1      -2.143  12.579  -4.289  1.00  0.00     0.034 C 
ENDBRANCH  12  13
ENDBRANCH   9  12
ENDBRANCH   1   8
BRANCH   6  15
HETATM   15  S1  UNL     1      -0.229   6.536  -8.036  1.00  0.00    -0.108 SA
HETATM   16  C6  UNL     1      -1.661   6.378  -9.088  1.00  0.00     0.097 C 
ENDBRANCH   6  15
TORSDOF 4
ENDMDL
MODEL 4
REMARK VINA RESULT: -5.186240321      2.053      2.304
REMARK  4 active torsions:
REMARK  status: ('A' for Active; 'I' for Inactive)
REMARK    1  A    between atoms: C2_2  and  O1_3 
REMARK    2  A    between atoms: O1_3  and  C3_4 
REMARK       I    between atoms: C3_4  and  N1_6 
REMARK    3  A    between atoms: N1_6  and  C4_8 
REMARK    4  A    between atoms: C5_13  and  S1_14 
ROOT
HETATM    1  C4  UNL     1       0.413  10.995  -6.975  1.00  0.00     0.170 A 
HETATM    2  N2  UNL     1      -0.199  10.044  -6.260  1.00  0.00    -0.278 N 
ATOM      3  H2  UNL     1      -0.623  10.264  -5.358  1.00  0.00     0.189 HD
HETATM    4  N3  UNL     1      -0.242   8.863  -6.723  1.00  0.00    -0.286 N 
ATOM      5  H3  UNL     1      -0.705   8.128  -6.189  1.00  0.00     0.188 HD
HETATM    6  C5  UNL     1       0.309   8.580  -7.890  1.00  0.00     0.129 A 
HETATM    7  S2  UNL     1       0.925  10.101  -8.350  1.00  0.00    -0.026 SA
ENDROOT
BRANCH   1   8
HETATM    8  N1  UNL     1       0.561  12.260  -6.672  1.00  0.00    -0.281 N 
HETATM    9  C3  UNL     1      -0.652  12.989  -6.478  1.00  0.00     0.366 C 
HETATM   10  O2  UNL     1      -1.626  12.845  -7.272  1.00  0.00    -0.238 OA
ATOM     11  H1  UNL     1       1.480  12.695  -6.581  1.00  0.00     0.173 HD
BRANCH   9  12
HETATM   12  O1  UNL     1      -0.826  13.870  -5.433  1.00  0.00    -0.304 OA
BRANCH  12  13
HETATM   13  C2  UNL     1      -1.958  13.749  -4.572  1.00  0.00     0.176 C 
HETATM   14  C1  UNL     1      -2.178  12.308  -4.165  1.00  0.00     0.034 C 
ENDBRANCH  12  13
ENDBRANCH   9  12
ENDBRANCH   1   8
BRANCH   6  15
HETATM   15  S1  UNL     1       0.431   7.057  -8.820  1.00  0.00    -0.108 SA
HETATM   16  C6  UNL     1       2.132   6.592  -9.094  1.00  0.00     0.097 C 
ENDBRANCH   6  15
TORSDOF 4
ENDMDL
MODEL 5
REMARK VINA RESULT: -5.182669047      2.935      5.651
REMARK  4 active torsions:
REMARK  status: ('A' for Active; 'I' for Inactive)
REMARK    1  A    between atoms: C2_2  and  O1_3 
REMARK    2  A    between atoms: O1_3  and  C3_4 
REMARK       I    between atoms: C3_4  and  N1_6 
REMARK    3  A    between atoms: N1_6  and  C4_8 
REMARK    4  A    between atoms: C5_13  and  S1_14 
ROOT
HETATM    1  C4  UNL     1       0.826  11.883  -8.264  1.00  0.00     0.170 A 
HETATM    2  N2  UNL     1       1.377  12.746  -7.403  1.00  0.00    -0.278 N 
ATOM      3  H2  UNL     1       2.323  13.099  -7.555  1.00  0.00     0.189 HD
HETATM    4  N3  UNL     1       0.703  13.117  -6.394  1.00  0.00    -0.286 N 
ATOM      5  H3  UNL     1       1.109  13.774  -5.729  1.00  0.00     0.188 HD
HETATM    6  C5  UNL     1      -0.521  12.658  -6.199  1.00  0.00     0.129 A 
HETATM    7  S2  UNL     1      -0.714  11.632  -7.546  1.00  0.00    -0.026 SA
ENDROOT
BRANCH   1   8
HETATM    8  N1  UNL     1       1.354  11.385  -9.354  1.00  0.00    -0.281 N 
HETATM    9  C3  UNL     1       2.746  11.073  -9.272  1.00  0.00     0.366 C 
HETATM   10  O2  UNL     1       3.557  11.876  -8.726  1.00  0.00    -0.238 OA
ATOM     11  H1  UNL     1       0.810  11.231 -10.203  1.00  0.00     0.173 HD
BRANCH   9  12
HETATM   12  O1  UNL     1       3.272   9.902  -9.773  1.00  0.00    -0.304 OA
BRANCH  12  13
HETATM   13  C2  UNL     1       2.415   8.924 -10.361  1.00  0.00     0.176 C 
HETATM   14  C1  UNL     1       2.116   7.806  -9.385  1.00  0.00     0.034 C 
ENDBRANCH  12  13
ENDBRANCH   9  12
ENDBRANCH   1   8
BRANCH   6  15
HETATM   15  S1  UNL     1      -1.724  12.962  -4.912  1.00  0.00    -0.108 SA
HETATM   16  C6  UNL     1      -2.330  11.439  -4.208  1.00  0.00     0.097 C 
ENDBRANCH   6  15
TORSDOF 4
ENDMDL
