MODEL 1
REMARK VINA RESULT: -6.459369383      0.000      0.000
REMARK  2 active torsions:
REMARK  status: ('A' for Active; 'I' for Inactive)
REMARK    1  A    between atoms: C2_2  and  O1_3 
REMARK    2  A    between atoms: O1_3  and  C3_4 
REMARK       I    between atoms: C3_4  and  N1_6 
ROOT
HETATM    1  C3  UNL     1       2.819  11.475  -9.208  1.00  0.00     0.376 C 
HETATM    2  O2  UNL     1       3.269  10.554  -9.965  1.00  0.00    -0.237 OA
HETATM    3  N1  UNL     1       2.884  12.838  -9.585  1.00  0.00    -0.239 N 
ATOM      4  H1  UNL     1       2.511  13.544  -8.950  1.00  0.00     0.183 HD
HETATM    5  C4  UNL     1       3.439  13.247 -10.794  1.00  0.00     0.186 C 
HETATM    6  N2  UNL     1       3.894  13.569 -11.804  1.00  0.00    -0.172 NA
ENDROOT
BRANCH   1   7
HETATM    7  O1  UNL     1       2.273  11.037  -8.014  1.00  0.00    -0.263 OA
BRANCH   7   8
HETATM    8  C2  UNL     1       0.939  11.299  -7.650  1.00  0.00     0.204 C 
HETATM    9  C1  UNL     1       0.017  11.267  -8.850  1.00  0.00     0.082 C 
HETATM   10  C5  UNL     1       0.457  10.415  -6.532  1.00  0.00     0.074 C 
HETATM   11  C6  UNL     1      -0.945  10.887  -6.155  1.00  0.00     0.047 C 
HETATM   12  C7  UNL     1      -0.864  12.372  -5.944  1.00  0.00     0.097 A 
HETATM   13  C8  UNL     1      -1.801  12.960  -4.976  1.00  0.00     0.044 A 
HETATM   14  C9  UNL     1      -1.889  13.303  -6.417  1.00  0.00     0.044 A 
HETATM   15  O3  UNL     1       0.494  12.714  -5.953  1.00  0.00    -0.227 OA
HETATM   16  O4  UNL     1       0.913  12.623  -7.172  1.00  0.00    -0.200 OA
ENDBRANCH   7   8
ENDBRANCH   1   7
TORSDOF 2
ENDMDL
MODEL 2
REMARK VINA RESULT: -5.791156155      2.849      4.998
REMARK  2 active torsions:
REMARK  status: ('A' for Active; 'I' for Inactive)
REMARK    1  A    between atoms: C2_2  and  O1_3 
REMARK    2  A    between atoms: O1_3  and  C3_4 
REMARK       I    between atoms: C3_4  and  N1_6 
ROOT
HETATM    1  C3  UNL     1       0.172  11.928  -6.365  1.00  0.00     0.376 C 
HETATM    2  O2  UNL     1      -0.724  11.152  -5.897  1.00  0.00    -0.237 OA
HETATM    3  N1  UNL     1       0.039  13.336  -6.295  1.00  0.00    -0.239 N 
ATOM      4  H1  UNL     1       0.780  13.921  -6.681  1.00  0.00     0.183 HD
HETATM    5  C4  UNL     1      -1.070  13.948  -5.719  1.00  0.00     0.186 C 
HETATM    6  N2  UNL     1      -1.991  14.439  -5.228  1.00  0.00    -0.172 NA
ENDROOT
BRANCH   1   7
HETATM    7  O1  UNL     1       1.262  11.290  -6.932  1.00  0.00    -0.263 OA
BRANCH   7   8
HETATM    8  C2  UNL     1       1.371  11.066  -8.317  1.00  0.00     0.204 C 
HETATM    9  C1  UNL     1       2.722  11.497  -8.848  1.00  0.00     0.082 C 
HETATM   10  C5  UNL     1       1.027   9.653  -8.705  1.00  0.00     0.074 C 
HETATM   11  C6  UNL     1       1.061   9.583 -10.230  1.00  0.00     0.047 C 
HETATM   12  C7  UNL     1       0.220  10.719 -10.739  1.00  0.00     0.097 A 
HETATM   13  C8  UNL     1      -0.458  10.520 -12.028  1.00  0.00     0.044 A 
HETATM   14  C9  UNL     1       0.603  11.547 -11.882  1.00  0.00     0.044 A 
HETATM   15  O3  UNL     1      -0.447  11.261  -9.634  1.00  0.00    -0.227 OA
HETATM   16  O4  UNL     1       0.422  11.907  -8.930  1.00  0.00    -0.200 OA
ENDBRANCH   7   8
ENDBRANCH   1   7
TORSDOF 2
ENDMDL
MODEL 3
REMARK VINA RESULT: -5.723422193      1.860      2.132
REMARK  2 active torsions:
REMARK  status: ('A' for Active; 'I' for Inactive)
REMARK    1  A    between atoms: C2_2  and  O1_3 
REMARK    2  A    between atoms: O1_3  and  C3_4 
REMARK       I    between atoms: C3_4  and  N1_6 
ROOT
HETATM    1  C3  UNL     1       2.658  10.643  -9.238  1.00  0.00     0.376 C 
HETATM    2  O2  UNL     1       3.202  11.349 -10.148  1.00  0.00    -0.237 OA
HETATM    3  N1  UNL     1       2.455   9.251  -9.405  1.00  0.00    -0.239 N 
ATOM      4  H1  UNL     1       2.016   8.723  -8.651  1.00  0.00     0.183 HD
HETATM    5  C4  UNL     1       2.835   8.581 -10.564  1.00  0.00     0.186 C 
HETATM    6  N2  UNL     1       3.165   8.039 -11.527  1.00  0.00    -0.172 NA
ENDROOT
BRANCH   1   7
HETATM    7  O1  UNL     1       2.291  11.338  -8.098  1.00  0.00    -0.263 OA
BRANCH   7   8
HETATM    8  C2  UNL     1       0.948  11.495  -7.706  1.00  0.00     0.204 C 
HETATM    9  C1  UNL     1       0.017  11.505  -8.899  1.00  0.00     0.082 C 
HETATM   10  C5  UNL     1       0.529  10.501  -6.658  1.00  0.00     0.074 C 
HETATM   11  C6  UNL     1      -0.894  10.863  -6.237  1.00  0.00     0.047 C 
HETATM   12  C7  UNL     1      -0.893  12.329  -5.911  1.00  0.00     0.097 A 
HETATM   13  C8  UNL     1      -1.851  12.787  -4.894  1.00  0.00     0.044 A 
HETATM   14  C9  UNL     1      -1.973  13.236  -6.303  1.00  0.00     0.044 A 
HETATM   15  O3  UNL     1       0.444  12.746  -5.901  1.00  0.00    -0.227 OA
HETATM   16  O4  UNL     1       0.854  12.775  -7.125  1.00  0.00    -0.200 OA
ENDBRANCH   7   8
ENDBRANCH   1   7
TORSDOF 2
ENDMDL
MODEL 4
REMARK VINA RESULT: -5.662679275      2.664      5.103
REMARK  2 active torsions:
REMARK  status: ('A' for Active; 'I' for Inactive)
REMARK    1  A    between atoms: C2_2  and  O1_3 
REMARK    2  A    between atoms: O1_3  and  C3_4 
REMARK       I    between atoms: C3_4  and  N1_6 
ROOT
HETATM    1  C3  UNL     1      -1.102  11.388  -5.805  1.00  0.00     0.376 C 
HETATM    2  O2  UNL     1      -1.803  11.096  -4.781  1.00  0.00    -0.237 OA
HETATM    3  N1  UNL     1      -0.901  12.731  -6.204  1.00  0.00    -0.239 N 
ATOM      4  H1  UNL     1      -0.333  12.921  -7.029  1.00  0.00     0.183 HD
HETATM    5  C4  UNL     1      -1.455  13.801  -5.508  1.00  0.00     0.186 C 
HETATM    6  N2  UNL     1      -1.913  14.678  -4.913  1.00  0.00    -0.172 NA
ENDROOT
BRANCH   1   7
HETATM    7  O1  UNL     1      -0.565  10.302  -6.476  1.00  0.00    -0.263 OA
BRANCH   7   8
HETATM    8  C2  UNL     1       0.260  10.444  -7.607  1.00  0.00     0.204 C 
HETATM    9  C1  UNL     1       0.765   9.106  -8.102  1.00  0.00     0.082 C 
HETATM   10  C5  UNL     1      -0.385  11.253  -8.699  1.00  0.00     0.074 C 
HETATM   11  C6  UNL     1       0.656  11.436  -9.801  1.00  0.00     0.047 C 
HETATM   12  C7  UNL     1       1.906  11.944  -9.141  1.00  0.00     0.097 A 
HETATM   13  C8  UNL     1       2.782  12.808  -9.947  1.00  0.00     0.044 A 
HETATM   14  C9  UNL     1       3.245  11.473  -9.495  1.00  0.00     0.044 A 
HETATM   15  O3  UNL     1       1.570  12.265  -7.820  1.00  0.00    -0.227 OA
HETATM   16  O4  UNL     1       1.397  11.158  -7.179  1.00  0.00    -0.200 OA
ENDBRANCH   7   8
ENDBRANCH   1   7
TORSDOF 2
ENDMDL
MODEL 5
REMARK VINA RESULT: -5.644997856      3.387      5.623
REMARK  2 active torsions:
REMARK  status: ('A' for Active; 'I' for Inactive)
REMARK    1  A    between atoms: C2_2  and  O1_3 
REMARK    2  A    between atoms: O1_3  and  C3_4 
REMARK       I    between atoms: C3_4  and  N1_6 
ROOT
HETATM    1  C3  UNL     1      -0.774  12.039  -6.838  1.00  0.00     0.376 C 
HETATM    2  O2  UNL     1      -1.750  12.837  -7.023  1.00  0.00    -0.237 OA
HETATM    3  N1  UNL     1      -0.743  11.154  -5.733  1.00  0.00    -0.239 N 
ATOM      4  H1  UNL     1       0.057  10.532  -5.622  1.00  0.00     0.183 HD
HETATM    5  C4  UNL     1      -1.768  11.106  -4.793  1.00  0.00     0.186 C 
HETATM    6  N2  UNL     1      -2.632  11.072  -4.029  1.00  0.00    -0.172 NA
ENDROOT
BRANCH   1   7
HETATM    7  O1  UNL     1       0.230  12.111  -7.789  1.00  0.00    -0.263 OA
BRANCH   7   8
HETATM    8  C2  UNL     1       0.538  11.038  -8.647  1.00  0.00     0.204 C 
HETATM    9  C1  UNL     1      -0.005  11.266 -10.041  1.00  0.00     0.082 C 
HETATM   10  C5  UNL     1       2.003  10.699  -8.649  1.00  0.00     0.074 C 
HETATM   11  C6  UNL     1       2.177   9.451  -9.511  1.00  0.00     0.047 C 
HETATM   12  C7  UNL     1       1.181   8.439  -9.020  1.00  0.00     0.097 A 
HETATM   13  C8  UNL     1       1.545   7.021  -9.165  1.00  0.00     0.044 A 
HETATM   14  C9  UNL     1       0.397   7.589  -9.916  1.00  0.00     0.044 A 
HETATM   15  O3  UNL     1       0.640   8.941  -7.830  1.00  0.00    -0.227 OA
HETATM   16  O4  UNL     1      -0.146   9.917  -8.138  1.00  0.00    -0.200 OA
ENDBRANCH   7   8
ENDBRANCH   1   7
TORSDOF 2
ENDMDL
