MODEL 1
REMARK VINA RESULT: -5.716736572      0.000      0.000
REMARK  1 active torsions:
REMARK  status: ('A' for Active; 'I' for Inactive)
REMARK    1  A    between atoms: C4_4  and  N1_5 
ROOT
HETATM    1  C1  UNL     1      -0.039   9.890  -9.836  1.00  0.00     0.023 C 
HETATM    2  C2  UNL     1       1.105   9.938  -8.861  1.00  0.00     0.022 C 
HETATM    3  C3  UNL     1       2.148   8.936  -9.316  1.00  0.00     0.023 C 
HETATM    4  C4  UNL     1       1.656  11.313  -8.789  1.00  0.00     0.088 C 
HETATM    5  C5  UNL     1       0.940  12.215  -8.137  1.00  0.00     0.030 C 
HETATM    6  C6  UNL     1      -0.362  11.910  -7.492  1.00  0.00     0.164 C 
HETATM    7  C7  UNL     1      -0.565  12.896  -6.419  1.00  0.00     0.073 C 
HETATM    8  N2  UNL     1      -0.722  13.660  -5.560  1.00  0.00    -0.196 NA
HETATM    9  C8  UNL     1      -0.235  10.536  -6.878  1.00  0.00     0.020 C 
HETATM   10  N3  UNL     1      -0.920  10.230  -5.859  1.00  0.00    -0.403 N 
ATOM     11  H31 UNL     1      -0.834   9.302  -5.444  1.00  0.00     0.155 HD
ATOM     12  H32 UNL     1      -1.556  10.921  -5.460  1.00  0.00     0.155 HD
HETATM   13  C9  UNL     1       0.692   9.530  -7.459  1.00  0.00     0.153 C 
HETATM   14  C10 UNL     1      -0.026   8.244  -7.580  1.00  0.00     0.071 C 
HETATM   15  N4  UNL     1      -0.605   7.243  -7.673  1.00  0.00    -0.196 NA
ENDROOT
BRANCH   4  16
HETATM   16  N1  UNL     1       2.904  11.656  -9.393  1.00  0.00    -0.119 N 
HETATM   17  O1  UNL     1       3.837  12.016  -8.651  1.00  0.00    -0.532 OA
HETATM   18  O2  UNL     1       3.149  11.618 -10.741  1.00  0.00    -0.532 OA
ENDBRANCH   4  16
TORSDOF 1
ENDMDL
MODEL 2
REMARK VINA RESULT: -5.716292805      2.280      4.356
REMARK  1 active torsions:
REMARK  status: ('A' for Active; 'I' for Inactive)
REMARK    1  A    between atoms: C4_4  and  N1_5 
ROOT
HETATM    1  C1  UNL     1       0.267  10.695 -10.438  1.00  0.00     0.023 C 
HETATM    2  C2  UNL     1       1.161  10.853  -9.239  1.00  0.00     0.022 C 
HETATM    3  C3  UNL     1       1.833  12.209  -9.334  1.00  0.00     0.023 C 
HETATM    4  C4  UNL     1       0.370  10.715  -7.992  1.00  0.00     0.088 C 
HETATM    5  C5  UNL     1      -0.019   9.495  -7.658  1.00  0.00     0.030 C 
HETATM    6  C6  UNL     1       0.298   8.290  -8.464  1.00  0.00     0.164 C 
HETATM    7  C7  UNL     1       0.254   7.129  -7.561  1.00  0.00     0.073 C 
HETATM    8  N2  UNL     1       0.238   6.213  -6.849  1.00  0.00    -0.196 NA
HETATM    9  C8  UNL     1       1.709   8.462  -8.974  1.00  0.00     0.020 C 
HETATM   10  N3  UNL     1       2.427   7.447  -9.211  1.00  0.00    -0.403 N 
ATOM     11  H31 UNL     1       3.380   7.564  -9.556  1.00  0.00     0.155 HD
ATOM     12  H32 UNL     1       2.041   6.516  -9.056  1.00  0.00     0.155 HD
HETATM   13  C9  UNL     1       2.271   9.819  -9.201  1.00  0.00     0.153 C 
HETATM   14  C10 UNL     1       2.925   9.841 -10.525  1.00  0.00     0.071 C 
HETATM   15  N4  UNL     1       3.429   9.844 -11.570  1.00  0.00    -0.196 NA
ENDROOT
BRANCH   4  16
HETATM   16  N1  UNL     1       0.040  11.844  -7.181  1.00  0.00    -0.119 N 
HETATM   17  O1  UNL     1      -1.046  12.417  -7.384  1.00  0.00    -0.532 OA
HETATM   18  O2  UNL     1       0.842  12.344  -6.189  1.00  0.00    -0.532 OA
ENDBRANCH   4  16
TORSDOF 1
ENDMDL
MODEL 3
REMARK VINA RESULT: -5.588324040      3.398      4.638
REMARK  1 active torsions:
REMARK  status: ('A' for Active; 'I' for Inactive)
REMARK    1  A    between atoms: C4_4  and  N1_5 
ROOT
HETATM    1  C1  UNL     1       1.827   6.817  -8.517  1.00  0.00     0.023 C 
HETATM    2  C2  UNL     1       0.652   7.425  -9.232  1.00  0.00     0.022 C 
HETATM    3  C3  UNL     1       0.594   6.828 -10.624  1.00  0.00     0.023 C 
HETATM    4  C4  UNL     1      -0.595   7.170  -8.470  1.00  0.00     0.088 C 
HETATM    5  C5  UNL     1      -0.781   7.877  -7.367  1.00  0.00     0.030 C 
HETATM    6  C6  UNL     1       0.187   8.889  -6.876  1.00  0.00     0.164 C 
HETATM    7  C7  UNL     1      -0.558   9.846  -6.042  1.00  0.00     0.073 C 
HETATM    8  N2  UNL     1      -1.144  10.613  -5.398  1.00  0.00    -0.196 NA
HETATM    9  C8  UNL     1       0.722   9.610  -8.090  1.00  0.00     0.020 C 
HETATM   10  N3  UNL     1       1.117  10.809  -7.995  1.00  0.00    -0.403 N 
ATOM     11  H31 UNL     1       1.478  11.296  -8.816  1.00  0.00     0.155 HD
ATOM     12  H32 UNL     1       1.070  11.279  -7.091  1.00  0.00     0.155 HD
HETATM   13  C9  UNL     1       0.790   8.925  -9.408  1.00  0.00     0.153 C 
HETATM   14  C10 UNL     1       2.124   9.168  -9.994  1.00  0.00     0.071 C 
HETATM   15  N4  UNL     1       3.177   9.363 -10.439  1.00  0.00    -0.196 NA
ENDROOT
BRANCH   4  16
HETATM   16  N1  UNL     1      -1.558   6.208  -8.902  1.00  0.00    -0.119 N 
HETATM   17  O1  UNL     1      -1.499   5.060  -8.423  1.00  0.00    -0.532 OA
HETATM   18  O2  UNL     1      -2.550   6.461  -9.813  1.00  0.00    -0.532 OA
ENDBRANCH   4  16
TORSDOF 1
ENDMDL
MODEL 4
REMARK VINA RESULT: -5.500125874      2.547      4.291
REMARK  1 active torsions:
REMARK  status: ('A' for Active; 'I' for Inactive)
REMARK    1  A    between atoms: C4_4  and  N1_5 
ROOT
HETATM    1  C1  UNL     1      -0.252   8.816 -10.335  1.00  0.00     0.023 C 
HETATM    2  C2  UNL     1       0.885   9.358  -9.512  1.00  0.00     0.022 C 
HETATM    3  C3  UNL     1       1.452  10.563 -10.238  1.00  0.00     0.023 C 
HETATM    4  C4  UNL     1       0.408   9.708  -8.152  1.00  0.00     0.088 C 
HETATM    5  C5  UNL     1       0.164   8.705  -7.324  1.00  0.00     0.030 C 
HETATM    6  C6  UNL     1       0.344   7.279  -7.696  1.00  0.00     0.164 C 
HETATM    7  C7  UNL     1       0.564   6.522  -6.453  1.00  0.00     0.073 C 
HETATM    8  N2  UNL     1       0.755   5.923  -5.478  1.00  0.00    -0.196 NA
HETATM    9  C8  UNL     1       1.591   7.202  -8.544  1.00  0.00     0.020 C 
HETATM   10  N3  UNL     1       2.282   6.142  -8.562  1.00  0.00    -0.403 N 
ATOM     11  H31 UNL     1       3.125   6.090  -9.136  1.00  0.00     0.155 HD
ATOM     12  H32 UNL     1       1.987   5.344  -7.999  1.00  0.00     0.155 HD
HETATM   13  C9  UNL     1       2.022   8.364  -9.365  1.00  0.00     0.153 C 
HETATM   14  C10 UNL     1       2.352   7.885 -10.722  1.00  0.00     0.071 C 
HETATM   15  N4  UNL     1       2.603   7.493 -11.785  1.00  0.00    -0.196 NA
ENDROOT
BRANCH   4  16
HETATM   16  N1  UNL     1       0.220  11.064  -7.746  1.00  0.00    -0.119 N 
HETATM   17  O1  UNL     1       0.951  11.515  -6.845  1.00  0.00    -0.532 OA
HETATM   18  O2  UNL     1      -0.717  11.910  -8.281  1.00  0.00    -0.532 OA
ENDBRANCH   4  16
TORSDOF 1
ENDMDL
MODEL 5
REMARK VINA RESULT: -5.262559339      1.997      2.594
REMARK  1 active torsions:
REMARK  status: ('A' for Active; 'I' for Inactive)
REMARK    1  A    between atoms: C4_4  and  N1_5 
ROOT
HETATM    1  C1  UNL     1      -0.891   8.105 -10.572  1.00  0.00     0.023 C 
HETATM    2  C2  UNL     1       0.494   7.822 -10.057  1.00  0.00     0.022 C 
HETATM    3  C3  UNL     1       1.073   6.687 -10.879  1.00  0.00     0.023 C 
HETATM    4  C4  UNL     1       1.329   9.045 -10.141  1.00  0.00     0.088 C 
HETATM    5  C5  UNL     1       1.092   9.997  -9.252  1.00  0.00     0.030 C 
HETATM    6  C6  UNL     1       0.048   9.889  -8.203  1.00  0.00     0.164 C 
HETATM    7  C7  UNL     1       0.440  10.776  -7.096  1.00  0.00     0.073 C 
HETATM    8  N2  UNL     1       0.754  11.462  -6.214  1.00  0.00    -0.196 NA
HETATM    9  C8  UNL     1       0.063   8.461  -7.714  1.00  0.00     0.020 C 
HETATM   10  N3  UNL     1      -0.291   8.190  -6.529  1.00  0.00    -0.403 N 
ATOM     11  H31 UNL     1      -0.280   7.224  -6.199  1.00  0.00     0.155 HD
ATOM     12  H32 UNL     1      -0.586   8.947  -5.912  1.00  0.00     0.155 HD
HETATM   13  C9  UNL     1       0.494   7.357  -8.613  1.00  0.00     0.153 C 
HETATM   14  C10 UNL     1      -0.490   6.260  -8.514  1.00  0.00     0.071 C 
HETATM   15  N4  UNL     1      -1.274   5.410  -8.430  1.00  0.00    -0.196 NA
ENDROOT
BRANCH   4  16
HETATM   16  N1  UNL     1       2.346   9.196 -11.132  1.00  0.00    -0.119 N 
HETATM   17  O1  UNL     1       3.535   9.118 -10.771  1.00  0.00    -0.532 OA
HETATM   18  O2  UNL     1       2.104   9.423 -12.462  1.00  0.00    -0.532 OA
ENDBRANCH   4  16
TORSDOF 1
ENDMDL
