MODEL 1
REMARK VINA RESULT: -6.452506230      0.000      0.000
REMARK  2 active torsions:
REMARK  status: ('A' for Active; 'I' for Inactive)
REMARK    1  A    between atoms: C2_2  and  C3_4 
REMARK    2  A    between atoms: C4_8  and  C5_9 
ROOT
HETATM    1  C3  UNL     1      -1.021  11.580  -6.013  1.00  0.00     0.158 A 
HETATM    2  N1  UNL     1      -0.484  12.510  -6.819  1.00  0.00    -0.308 N 
ATOM      3  H1  UNL     1      -0.591  13.524  -6.779  1.00  0.00     0.176 HD
HETATM    4  S1  UNL     1       0.409  11.593  -7.906  1.00  0.00     0.001 SA
HETATM    5  C4  UNL     1       0.058  10.050  -7.286  1.00  0.00     0.073 A 
HETATM    6  N3  UNL     1      -0.731  10.334  -6.270  1.00  0.00    -0.335 N 
ATOM      7  H3  UNL     1      -1.112   9.586  -5.690  1.00  0.00     0.168 HD
ENDROOT
BRANCH   5   8
HETATM    8  C5  UNL     1       0.506   8.681  -7.741  1.00  0.00     0.048 C 
HETATM    9  C6  UNL     1      -0.099   7.634  -6.825  1.00  0.00     0.044 C 
HETATM   10  C7  UNL     1      -0.123   6.304  -7.504  1.00  0.00     0.189 C 
HETATM   11  C8  UNL     1      -1.121   6.319  -8.670  1.00  0.00     0.066 C 
HETATM   12  N2  UNL     1       0.921   6.187  -8.503  1.00  0.00    -0.067 N 
HETATM   13  C9  UNL     1       0.071   6.928  -9.407  1.00  0.00     0.189 C 
HETATM   14  C10 UNL     1       0.046   8.398  -9.139  1.00  0.00     0.044 C 
ATOM     15  H22 UNL     1       1.872   6.498  -8.306  1.00  0.00     0.278 HD
ATOM     16  H21 UNL     1       1.295   5.275  -8.766  1.00  0.00     0.278 HD
ENDBRANCH   5   8
BRANCH   1  17
HETATM   17  C2  UNL     1      -1.903  12.010  -4.889  1.00  0.00     0.189 C 
HETATM   18  C1  UNL     1      -2.439  10.963  -4.010  1.00  0.00     0.100 C 
HETATM   19  O1  UNL     1      -2.169  13.227  -4.714  1.00  0.00    -0.290 OA
ENDBRANCH   1  17
TORSDOF 2
ENDMDL
MODEL 2
REMARK VINA RESULT: -6.123227212      1.250      1.801
REMARK  2 active torsions:
REMARK  status: ('A' for Active; 'I' for Inactive)
REMARK    1  A    between atoms: C2_2  and  C3_4 
REMARK    2  A    between atoms: C4_8  and  C5_9 
ROOT
HETATM    1  C3  UNL     1      -0.163  12.231  -6.768  1.00  0.00     0.158 A 
HETATM    2  N1  UNL     1       1.004  12.680  -7.257  1.00  0.00    -0.308 N 
ATOM      3  H1  UNL     1       1.429  13.601  -7.143  1.00  0.00     0.176 HD
HETATM    4  S1  UNL     1       1.591  11.354  -8.102  1.00  0.00     0.001 SA
HETATM    5  C4  UNL     1       0.316  10.272  -7.796  1.00  0.00     0.073 A 
HETATM    6  N3  UNL     1      -0.492  11.002  -7.055  1.00  0.00    -0.335 N 
ATOM      7  H3  UNL     1      -1.368  10.609  -6.709  1.00  0.00     0.168 HD
ENDROOT
BRANCH   5   8
HETATM    8  C5  UNL     1       0.113   8.840  -8.233  1.00  0.00     0.048 C 
HETATM    9  C6  UNL     1       1.404   8.322  -8.838  1.00  0.00     0.044 C 
HETATM   10  C7  UNL     1       1.427   6.829  -8.807  1.00  0.00     0.189 C 
HETATM   11  C8  UNL     1       1.533   6.328  -7.361  1.00  0.00     0.066 C 
HETATM   12  N2  UNL     1       0.090   6.266  -8.821  1.00  0.00    -0.067 N 
HETATM   13  C9  UNL     1       0.019   6.530  -7.401  1.00  0.00     0.189 C 
HETATM   14  C10 UNL     1      -0.240   7.964  -7.070  1.00  0.00     0.044 C 
ATOM     15  H22 UNL     1      -0.623   6.624  -9.456  1.00  0.00     0.278 HD
ATOM     16  H21 UNL     1      -0.080   5.330  -9.188  1.00  0.00     0.278 HD
ENDBRANCH   5   8
BRANCH   1  17
HETATM   17  C2  UNL     1      -1.005  13.142  -5.938  1.00  0.00     0.189 C 
HETATM   18  C1  UNL     1      -1.987  12.524  -5.038  1.00  0.00     0.100 C 
HETATM   19  O1  UNL     1      -0.868  14.390  -6.018  1.00  0.00    -0.290 OA
ENDBRANCH   1  17
TORSDOF 2
ENDMDL
MODEL 3
REMARK VINA RESULT: -6.080673774      2.494      5.816
REMARK  2 active torsions:
REMARK  status: ('A' for Active; 'I' for Inactive)
REMARK    1  A    between atoms: C2_2  and  C3_4 
REMARK    2  A    between atoms: C4_8  and  C5_9 
ROOT
HETATM    1  C3  UNL     1       0.064   8.253  -7.585  1.00  0.00     0.158 A 
HETATM    2  N1  UNL     1       0.506   8.739  -8.756  1.00  0.00    -0.308 N 
ATOM      3  H1  UNL     1       0.757   8.228  -9.603  1.00  0.00     0.176 HD
HETATM    4  S1  UNL     1       0.542  10.396  -8.485  1.00  0.00     0.001 SA
HETATM    5  C4  UNL     1      -0.011  10.403  -6.877  1.00  0.00     0.073 A 
HETATM    6  N3  UNL     1      -0.193   9.119  -6.643  1.00  0.00    -0.335 N 
ATOM      7  H3  UNL     1      -0.531   8.805  -5.733  1.00  0.00     0.168 HD
ENDROOT
BRANCH   5   8
HETATM    8  C5  UNL     1      -0.249  11.549  -5.923  1.00  0.00     0.048 C 
HETATM    9  C6  UNL     1      -0.053  12.857  -6.665  1.00  0.00     0.044 C 
HETATM   10  C7  UNL     1      -0.754  13.966  -5.952  1.00  0.00     0.189 C 
HETATM   11  C8  UNL     1      -2.274  13.779  -6.040  1.00  0.00     0.066 C 
HETATM   12  N2  UNL     1      -0.883  13.703  -4.532  1.00  0.00    -0.067 N 
HETATM   13  C9  UNL     1      -2.020  12.865  -4.842  1.00  0.00     0.189 C 
HETATM   14  C10 UNL     1      -1.647  11.524  -5.386  1.00  0.00     0.044 C 
ATOM     15  H22 UNL     1      -0.097  13.339  -3.993  1.00  0.00     0.278 HD
ATOM     16  H21 UNL     1      -0.963  14.467  -3.862  1.00  0.00     0.278 HD
ENDBRANCH   5   8
BRANCH   1  17
HETATM   17  C2  UNL     1      -0.108   6.780  -7.425  1.00  0.00     0.189 C 
HETATM   18  C1  UNL     1      -0.939   6.083  -8.415  1.00  0.00     0.100 C 
HETATM   19  O1  UNL     1       0.444   6.171  -6.473  1.00  0.00    -0.290 OA
ENDBRANCH   1  17
TORSDOF 2
ENDMDL
MODEL 4
REMARK VINA RESULT: -6.017799723      2.206      2.934
REMARK  2 active torsions:
REMARK  status: ('A' for Active; 'I' for Inactive)
REMARK    1  A    between atoms: C2_2  and  C3_4 
REMARK    2  A    between atoms: C4_8  and  C5_9 
ROOT
HETATM    1  C3  UNL     1      -1.391  10.678  -5.149  1.00  0.00     0.158 A 
HETATM    2  N1  UNL     1      -1.319   9.404  -4.731  1.00  0.00    -0.308 N 
ATOM      3  H1  UNL     1      -1.746   8.980  -3.906  1.00  0.00     0.176 HD
HETATM    4  S1  UNL     1      -0.356   8.679  -5.900  1.00  0.00     0.001 SA
HETATM    5  C4  UNL     1      -0.080  10.039  -6.882  1.00  0.00     0.073 A 
HETATM    6  N3  UNL     1      -0.752  10.978  -6.246  1.00  0.00    -0.335 N 
ATOM      7  H3  UNL     1      -0.772  11.932  -6.610  1.00  0.00     0.168 HD
ENDROOT
BRANCH   5   8
HETATM    8  C5  UNL     1       0.716  10.188  -8.156  1.00  0.00     0.048 C 
HETATM    9  C6  UNL     1       0.589   8.914  -8.969  1.00  0.00     0.044 C 
HETATM   10  C7  UNL     1       0.902   9.182 -10.404  1.00  0.00     0.189 C 
HETATM   11  C8  UNL     1      -0.186  10.065 -11.031  1.00  0.00     0.066 C 
HETATM   12  N2  UNL     1       1.798  10.311 -10.562  1.00  0.00    -0.067 N 
HETATM   13  C9  UNL     1       0.653  11.178 -10.404  1.00  0.00     0.189 C 
HETATM   14  C10 UNL     1       0.201  11.323  -8.987  1.00  0.00     0.044 C 
ATOM     15  H22 UNL     1       2.619  10.415  -9.967  1.00  0.00     0.278 HD
ATOM     16  H21 UNL     1       2.404  10.388 -11.379  1.00  0.00     0.278 HD
ENDBRANCH   5   8
BRANCH   1  17
HETATM   17  C2  UNL     1      -2.179  11.663  -4.354  1.00  0.00     0.189 C 
HETATM   18  C1  UNL     1      -2.869  11.169  -3.156  1.00  0.00     0.100 C 
HETATM   19  O1  UNL     1      -2.242  12.869  -4.709  1.00  0.00    -0.290 OA
ENDBRANCH   1  17
TORSDOF 2
ENDMDL
MODEL 5
REMARK VINA RESULT: -5.991612554      3.075      5.864
REMARK  2 active torsions:
REMARK  status: ('A' for Active; 'I' for Inactive)
REMARK    1  A    between atoms: C2_2  and  C3_4 
REMARK    2  A    between atoms: C4_8  and  C5_9 
ROOT
HETATM    1  C3  UNL     1      -0.755   6.449  -8.707  1.00  0.00     0.158 A 
HETATM    2  N1  UNL     1      -0.351   5.575  -7.771  1.00  0.00    -0.308 N 
ATOM      3  H1  UNL     1      -0.436   4.558  -7.771  1.00  0.00     0.176 HD
HETATM    4  S1  UNL     1       0.330   6.568  -6.600  1.00  0.00     0.001 SA
HETATM    5  C4  UNL     1       0.070   8.068  -7.356  1.00  0.00     0.073 A 
HETATM    6  N3  UNL     1      -0.530   7.713  -8.474  1.00  0.00    -0.335 N 
ATOM      7  H3  UNL     1      -0.817   8.420  -9.152  1.00  0.00     0.168 HD
ENDROOT
BRANCH   5   8
HETATM    8  C5  UNL     1       0.415   9.469  -6.909  1.00  0.00     0.048 C 
HETATM    9  C6  UNL     1       0.437  10.382  -8.120  1.00  0.00     0.044 C 
HETATM   10  C7  UNL     1       0.260  11.804  -7.699  1.00  0.00     0.189 C 
HETATM   11  C8  UNL     1      -1.160  12.027  -7.162  1.00  0.00     0.066 C 
HETATM   12  N2  UNL     1       0.723  12.030  -6.344  1.00  0.00    -0.067 N 
HETATM   13  C9  UNL     1      -0.533  11.488  -5.878  1.00  0.00     0.189 C 
HETATM   14  C10 UNL     1      -0.606   9.997  -5.947  1.00  0.00     0.044 C 
ATOM     15  H22 UNL     1       1.611  11.645  -6.023  1.00  0.00     0.278 HD
ATOM     16  H21 UNL     1       1.037  12.953  -6.045  1.00  0.00     0.278 HD
ENDBRANCH   5   8
BRANCH   1  17
HETATM   17  C2  UNL     1      -1.425   5.940  -9.938  1.00  0.00     0.189 C 
HETATM   18  C1  UNL     1      -0.639   5.920 -11.178  1.00  0.00     0.100 C 
HETATM   19  O1  UNL     1      -2.620   5.547  -9.901  1.00  0.00    -0.290 OA
ENDBRANCH   1  17
TORSDOF 2
ENDMDL
