MODEL 1
REMARK VINA RESULT: -5.841578415      0.000      0.000
REMARK  5 active torsions:
REMARK  status: ('A' for Active; 'I' for Inactive)
REMARK    1  A    between atoms: C2_2  and  C5_5 
REMARK    2  A    between atoms: C5_5  and  O2_10 
REMARK    3  A    between atoms: N1_6  and  O1_8 
REMARK    4  A    between atoms: O2_10  and  C6_11 
REMARK    5  A    between atoms: C6_11  and  C7_13 
ROOT
HETATM    1  C5  UNL     1       1.386  10.839  -8.885  1.00  0.00     0.154 C 
HETATM    2  N1  UNL     1       2.327  11.228  -8.132  1.00  0.00    -0.250 N 
ATOM      3  H1  UNL     1       2.143  11.292  -7.131  1.00  0.00     0.196 HD
ENDROOT
BRANCH   1   4
HETATM    4  C2  UNL     1       1.519  10.703 -10.331  1.00  0.00     0.016 C 
HETATM    5  C1  UNL     1       1.716  12.040 -11.028  1.00  0.00     0.023 C 
HETATM    6  C3  UNL     1       0.164  10.144 -10.843  1.00  0.00     0.023 C 
HETATM    7  C4  UNL     1       2.557   9.751 -10.833  1.00  0.00     0.023 C 
ENDBRANCH   1   4
BRANCH   1   8
HETATM    8  O2  UNL     1       0.158  10.532  -8.246  1.00  0.00    -0.261 OA
BRANCH   8   9
HETATM    9  C6  UNL     1      -0.078  10.921  -6.938  1.00  0.00     0.294 C 
HETATM   10  O3  UNL     1       0.391  10.197  -6.025  1.00  0.00    -0.262 OA
BRANCH   9  11
HETATM   11  C7  UNL     1      -0.843  12.127  -6.578  1.00  0.00     0.221 C 
HETATM   12  C8  UNL     1      -1.708  11.912  -5.349  1.00  0.00     0.044 C 
HETATM   13  C9  UNL     1      -2.024  13.362  -4.971  1.00  0.00     0.029 C 
HETATM   14  C10 UNL     1      -1.009  14.137  -5.800  1.00  0.00     0.169 C 
HETATM   15  O4  UNL     1      -0.053  13.187  -6.199  1.00  0.00    -0.376 OA
ENDBRANCH   9  11
ENDBRANCH   8   9
ENDBRANCH   1   8
BRANCH   2  16
HETATM   16  O1  UNL     1       3.553  11.562  -8.572  1.00  0.00    -0.288 OA
ATOM     17  H1  UNL     1       4.287  10.959  -8.611  1.00  0.00     0.244 HD
ENDBRANCH   2  16
TORSDOF 5
ENDMDL
MODEL 2
REMARK VINA RESULT: -5.822855289      1.582      1.989
REMARK  5 active torsions:
REMARK  status: ('A' for Active; 'I' for Inactive)
REMARK    1  A    between atoms: C2_2  and  C5_5 
REMARK    2  A    between atoms: C5_5  and  O2_10 
REMARK    3  A    between atoms: N1_6  and  O1_8 
REMARK    4  A    between atoms: O2_10  and  C6_11 
REMARK    5  A    between atoms: C6_11  and  C7_13 
ROOT
HETATM    1  C5  UNL     1       1.668  10.091  -8.494  1.00  0.00     0.154 C 
HETATM    2  N1  UNL     1       2.679  10.631  -9.030  1.00  0.00    -0.250 N 
ATOM      3  H1  UNL     1       3.079  11.453  -8.577  1.00  0.00     0.196 HD
ENDROOT
BRANCH   1   4
HETATM    4  C2  UNL     1       1.004   8.912  -9.039  1.00  0.00     0.016 C 
HETATM    5  C1  UNL     1       0.165   9.229 -10.267  1.00  0.00     0.023 C 
HETATM    6  C3  UNL     1       0.010   8.429  -7.949  1.00  0.00     0.023 C 
HETATM    7  C4  UNL     1       1.863   7.728  -9.347  1.00  0.00     0.023 C 
ENDBRANCH   1   4
BRANCH   1   8
HETATM    8  O2  UNL     1       1.190  10.697  -7.305  1.00  0.00    -0.261 OA
BRANCH   8   9
HETATM    9  C6  UNL     1       0.786  12.021  -7.296  1.00  0.00     0.294 C 
HETATM   10  O3  UNL     1       1.589  12.874  -7.749  1.00  0.00    -0.262 OA
BRANCH   9  11
HETATM   11  C7  UNL     1      -0.524  12.465  -6.787  1.00  0.00     0.221 C 
HETATM   12  C8  UNL     1      -1.061  11.544  -5.706  1.00  0.00     0.044 C 
HETATM   13  C9  UNL     1      -2.144  12.436  -5.092  1.00  0.00     0.029 C 
HETATM   14  C10 UNL     1      -1.795  13.803  -5.663  1.00  0.00     0.169 C 
HETATM   15  O4  UNL     1      -0.480  13.679  -6.144  1.00  0.00    -0.376 OA
ENDBRANCH   9  11
ENDBRANCH   8   9
ENDBRANCH   1   8
BRANCH   2  16
HETATM   16  O1  UNL     1       3.260  10.187 -10.159  1.00  0.00    -0.288 OA
ATOM     17  H1  UNL     1       3.610   9.311 -10.268  1.00  0.00     0.244 HD
ENDBRANCH   2  16
TORSDOF 5
ENDMDL
MODEL 3
REMARK VINA RESULT: -5.733073984      1.463      1.997
REMARK  5 active torsions:
REMARK  status: ('A' for Active; 'I' for Inactive)
REMARK    1  A    between atoms: C2_2  and  C5_5 
REMARK    2  A    between atoms: C5_5  and  O2_10 
REMARK    3  A    between atoms: N1_6  and  O1_8 
REMARK    4  A    between atoms: O2_10  and  C6_11 
REMARK    5  A    between atoms: C6_11  and  C7_13 
ROOT
HETATM    1  C5  UNL     1       1.471  11.332  -8.867  1.00  0.00     0.154 C 
HETATM    2  N1  UNL     1       2.484  11.888  -8.351  1.00  0.00    -0.250 N 
ATOM      3  H1  UNL     1       2.327  12.596  -7.633  1.00  0.00     0.196 HD
ENDROOT
BRANCH   1   4
HETATM    4  C2  UNL     1       1.558  10.306  -9.900  1.00  0.00     0.016 C 
HETATM    5  C1  UNL     1       2.051  10.856 -11.229  1.00  0.00     0.023 C 
HETATM    6  C3  UNL     1       0.106   9.813 -10.148  1.00  0.00     0.023 C 
HETATM    7  C4  UNL     1       2.345   9.078  -9.575  1.00  0.00     0.023 C 
ENDBRANCH   1   4
BRANCH   1   8
HETATM    8  O2  UNL     1       0.207  11.760  -8.386  1.00  0.00    -0.261 OA
BRANCH   8   9
HETATM    9  C6  UNL     1      -0.019  11.921  -7.030  1.00  0.00     0.294 C 
HETATM   10  O3  UNL     1       0.640  12.810  -6.435  1.00  0.00    -0.262 OA
BRANCH   9  11
HETATM   11  C7  UNL     1      -0.982  11.108  -6.267  1.00  0.00     0.221 C 
HETATM   12  C8  UNL     1      -0.410   9.756  -5.878  1.00  0.00     0.044 C 
HETATM   13  C9  UNL     1      -1.402   9.336  -4.789  1.00  0.00     0.029 C 
HETATM   14  C10 UNL     1      -2.124  10.643  -4.492  1.00  0.00     0.169 C 
HETATM   15  O4  UNL     1      -1.314  11.649  -5.048  1.00  0.00    -0.376 OA
ENDBRANCH   9  11
ENDBRANCH   8   9
ENDBRANCH   1   8
BRANCH   2  16
HETATM   16  O1  UNL     1       3.753  11.604  -8.690  1.00  0.00    -0.288 OA
ATOM     17  H1  UNL     1       4.226  10.837  -8.388  1.00  0.00     0.244 HD
ENDBRANCH   2  16
TORSDOF 5
ENDMDL
MODEL 4
REMARK VINA RESULT: -5.715590294      1.524      2.182
REMARK  5 active torsions:
REMARK  status: ('A' for Active; 'I' for Inactive)
REMARK    1  A    between atoms: C2_2  and  C5_5 
REMARK    2  A    between atoms: C5_5  and  O2_10 
REMARK    3  A    between atoms: N1_6  and  O1_8 
REMARK    4  A    between atoms: O2_10  and  C6_11 
REMARK    5  A    between atoms: C6_11  and  C7_13 
ROOT
HETATM    1  C5  UNL     1       1.722  11.604  -8.348  1.00  0.00     0.154 C 
HETATM    2  N1  UNL     1       2.421  12.655  -8.451  1.00  0.00    -0.250 N 
ATOM      3  H1  UNL     1       2.579  13.209  -7.609  1.00  0.00     0.196 HD
ENDROOT
BRANCH   1   4
HETATM    4  C2  UNL     1       1.425  10.725  -9.473  1.00  0.00     0.016 C 
HETATM    5  C1  UNL     1       0.315  11.266 -10.361  1.00  0.00     0.023 C 
HETATM    6  C3  UNL     1       0.884   9.404  -8.863  1.00  0.00     0.023 C 
HETATM    7  C4  UNL     1       2.571  10.321 -10.344  1.00  0.00     0.023 C 
ENDBRANCH   1   4
BRANCH   1   8
HETATM    8  O2  UNL     1       1.224  11.307  -7.055  1.00  0.00    -0.261 OA
BRANCH   8   9
HETATM    9  C6  UNL     1       0.119  11.973  -6.550  1.00  0.00     0.294 C 
HETATM   10  O3  UNL     1       0.114  13.227  -6.629  1.00  0.00    -0.262 OA
BRANCH   9  11
HETATM   11  C7  UNL     1      -1.030  11.286  -5.935  1.00  0.00     0.221 C 
HETATM   12  C8  UNL     1      -0.693   9.863  -5.524  1.00  0.00     0.044 C 
HETATM   13  C9  UNL     1      -1.858   9.564  -4.575  1.00  0.00     0.029 C 
HETATM   14  C10 UNL     1      -2.431  10.952  -4.324  1.00  0.00     0.169 C 
HETATM   15  O4  UNL     1      -1.434  11.847  -4.747  1.00  0.00    -0.376 OA
ENDBRANCH   9  11
ENDBRANCH   8   9
ENDBRANCH   1   8
BRANCH   2  16
HETATM   16  O1  UNL     1       2.969  13.085  -9.602  1.00  0.00    -0.288 OA
ATOM     17  H1  UNL     1       3.532  13.847  -9.671  1.00  0.00     0.244 HD
ENDBRANCH   2  16
TORSDOF 5
ENDMDL
MODEL 5
REMARK VINA RESULT: -5.619692430      1.176      1.230
REMARK  5 active torsions:
REMARK  status: ('A' for Active; 'I' for Inactive)
REMARK    1  A    between atoms: C2_2  and  C5_5 
REMARK    2  A    between atoms: C5_5  and  O2_10 
REMARK    3  A    between atoms: N1_6  and  O1_8 
REMARK    4  A    between atoms: O2_10  and  C6_11 
REMARK    5  A    between atoms: C6_11  and  C7_13 
ROOT
HETATM    1  C5  UNL     1       1.222  10.854  -9.371  1.00  0.00     0.154 C 
HETATM    2  N1  UNL     1       2.324  10.493  -8.863  1.00  0.00    -0.250 N 
ATOM      3  H1  UNL     1       2.367  10.373  -7.851  1.00  0.00     0.196 HD
ENDROOT
BRANCH   1   4
HETATM    4  C2  UNL     1       1.027  11.060 -10.802  1.00  0.00     0.016 C 
HETATM    5  C1  UNL     1       1.814  12.247 -11.334  1.00  0.00     0.023 C 
HETATM    6  C3  UNL     1      -0.473  11.416 -10.990  1.00  0.00     0.023 C 
HETATM    7  C4  UNL     1       1.273   9.890 -11.698  1.00  0.00     0.023 C 
ENDBRANCH   1   4
BRANCH   1   8
HETATM    8  O2  UNL     1       0.151  11.058  -8.465  1.00  0.00    -0.261 OA
BRANCH   8   9
HETATM    9  C6  UNL     1       0.205  12.065  -7.517  1.00  0.00     0.294 C 
HETATM   10  O3  UNL     1       1.325  12.590  -7.293  1.00  0.00    -0.262 OA
BRANCH   9  11
HETATM   11  C7  UNL     1      -0.974  12.540  -6.771  1.00  0.00     0.221 C 
HETATM   12  C8  UNL     1      -1.269  11.677  -5.557  1.00  0.00     0.044 C 
HETATM   13  C9  UNL     1      -2.209  12.603  -4.778  1.00  0.00     0.029 C 
HETATM   14  C10 UNL     1      -1.993  13.939  -5.477  1.00  0.00     0.169 C 
HETATM   15  O4  UNL     1      -0.806  13.785  -6.213  1.00  0.00    -0.376 OA
ENDBRANCH   9  11
ENDBRANCH   8   9
ENDBRANCH   1   8
BRANCH   2  16
HETATM   16  O1  UNL     1       3.440  10.258  -9.576  1.00  0.00    -0.288 OA
ATOM     17  H1  UNL     1       4.274  10.013  -9.192  1.00  0.00     0.244 HD
ENDBRANCH   2  16
TORSDOF 5
ENDMDL
