MODEL 1
REMARK VINA RESULT: -5.992813037      0.000      0.000
REMARK  4 active torsions:
REMARK  status: ('A' for Active; 'I' for Inactive)
REMARK    1  A    between atoms: C2_4  and  N2_6 
REMARK    2  A    between atoms: N2_6  and  C3_8 
REMARK    3  A    between atoms: C3_8  and  N3_10 
REMARK    4  A    between atoms: N4_13  and  C6_14 
ROOT
HETATM    1  N3  UNL     1      16.506  -9.536  -8.221  1.00  0.00    -0.355 N 
HETATM    2  C4  UNL     1      15.741  -8.401  -8.620  1.00  0.00     0.145 C 
HETATM    3  C5  UNL     1      14.317  -8.406  -8.124  1.00  0.00     0.145 C 
HETATM    4  N4  UNL     1      14.169  -8.995  -6.834  1.00  0.00    -0.358 N 
HETATM    5  C9  UNL     1      15.183  -9.734  -6.143  1.00  0.00     0.145 C 
HETATM    6  C10 UNL     1      16.206 -10.341  -7.039  1.00  0.00     0.145 C 
ENDROOT
BRANCH   1   7
HETATM    7  C3  UNL     1      17.625  -9.931  -8.991  1.00  0.00     0.176 C 
HETATM    8  S1  UNL     1      17.732 -11.483  -9.477  1.00  0.00    -0.041 SA
BRANCH   7   9
HETATM    9  N2  UNL     1      18.664  -9.024  -9.359  1.00  0.00    -0.310 N 
ATOM     10  H2  UNL     1      19.169  -8.529  -8.626  1.00  0.00     0.170 HD
BRANCH   9  11
HETATM   11  C2  UNL     1      19.011  -8.794 -10.698  1.00  0.00     0.176 C 
HETATM   12  N1  UNL     1      20.243  -8.631 -11.101  1.00  0.00    -0.371 N 
HETATM   13  C1  UNL     1      21.287  -8.700 -10.077  1.00  0.00     0.148 C 
ATOM     14  H1  UNL     1      20.467  -8.464 -12.082  1.00  0.00     0.161 HD
HETATM   15 CL1  UNL     1      17.793  -8.700 -11.979  1.00  0.00    -0.045 Cl
ENDBRANCH   9  11
ENDBRANCH   7   9
ENDBRANCH   1   7
BRANCH   4  16
HETATM   16  C6  UNL     1      12.898  -8.835  -6.168  1.00  0.00     0.146 A 
HETATM   17  N5  UNL     1      12.034  -7.836  -6.260  1.00  0.00    -0.346 N 
HETATM   18  C7  UNL     1      10.934  -7.869  -5.579  1.00  0.00     0.097 A 
ATOM     19  H5  UNL     1      12.235  -7.041  -6.866  1.00  0.00     0.167 HD
HETATM   20  C8  UNL     1      10.714  -8.963  -4.777  1.00  0.00     0.070 A 
HETATM   21  S2  UNL     1      12.126  -9.883  -5.061  1.00  0.00    -0.065 SA
ENDBRANCH   4  16
TORSDOF 4
ENDMDL
MODEL 2
REMARK VINA RESULT: -5.985782569      1.688      1.707
REMARK  4 active torsions:
REMARK  status: ('A' for Active; 'I' for Inactive)
REMARK    1  A    between atoms: C2_4  and  N2_6 
REMARK    2  A    between atoms: N2_6  and  C3_8 
REMARK    3  A    between atoms: C3_8  and  N3_10 
REMARK    4  A    between atoms: N4_13  and  C6_14 
ROOT
HETATM    1  N3  UNL     1      16.122  -8.805  -8.724  1.00  0.00    -0.355 N 
HETATM    2  C4  UNL     1      15.292  -7.651  -8.843  1.00  0.00     0.145 C 
HETATM    3  C5  UNL     1      13.924  -7.803  -8.226  1.00  0.00     0.145 C 
HETATM    4  N4  UNL     1      13.921  -8.613  -7.052  1.00  0.00    -0.358 N 
HETATM    5  C9  UNL     1      15.017  -9.416  -6.600  1.00  0.00     0.145 C 
HETATM    6  C10 UNL     1      15.961  -9.814  -7.681  1.00  0.00     0.145 C 
ENDROOT
BRANCH   1   7
HETATM    7  C3  UNL     1      17.169  -9.011  -9.653  1.00  0.00     0.176 C 
HETATM    8  S1  UNL     1      16.859  -8.805 -11.240  1.00  0.00    -0.041 SA
BRANCH   7   9
HETATM    9  N2  UNL     1      18.485  -9.392  -9.255  1.00  0.00    -0.310 N 
ATOM     10  H2  UNL     1      19.088  -8.698  -8.815  1.00  0.00     0.170 HD
BRANCH   9  11
HETATM   11  C2  UNL     1      18.975 -10.692  -9.451  1.00  0.00     0.176 C 
HETATM   12  N1  UNL     1      20.034 -10.957 -10.170  1.00  0.00    -0.371 N 
HETATM   13  C1  UNL     1      20.717  -9.818 -10.785  1.00  0.00     0.148 C 
ATOM     14  H1  UNL     1      20.367 -11.913 -10.296  1.00  0.00     0.161 HD
HETATM   15 CL1  UNL     1      18.191 -12.106  -8.733  1.00  0.00    -0.045 Cl
ENDBRANCH   9  11
ENDBRANCH   7   9
ENDBRANCH   1   7
BRANCH   4  16
HETATM   16  C6  UNL     1      12.718  -8.625  -6.253  1.00  0.00     0.146 A 
HETATM   17  N5  UNL     1      11.771  -7.703  -6.166  1.00  0.00    -0.346 N 
HETATM   18  C7  UNL     1      10.755  -7.893  -5.387  1.00  0.00     0.097 A 
ATOM     19  H5  UNL     1      11.842  -6.844  -6.711  1.00  0.00     0.167 HD
HETATM   20  C8  UNL     1      10.710  -9.067  -4.674  1.00  0.00     0.070 A 
HETATM   21  S2  UNL     1      12.154  -9.829  -5.180  1.00  0.00    -0.065 SA
ENDBRANCH   4  16
TORSDOF 4
ENDMDL
MODEL 3
REMARK VINA RESULT: -5.919885539      4.114      7.012
REMARK  4 active torsions:
REMARK  status: ('A' for Active; 'I' for Inactive)
REMARK    1  A    between atoms: C2_4  and  N2_6 
REMARK    2  A    between atoms: N2_6  and  C3_8 
REMARK    3  A    between atoms: C3_8  and  N3_10 
REMARK    4  A    between atoms: N4_13  and  C6_14 
ROOT
HETATM    1  N3  UNL     1      14.199  -8.658  -7.421  1.00  0.00    -0.355 N 
HETATM    2  C4  UNL     1      15.162  -8.877  -8.450  1.00  0.00     0.145 C 
HETATM    3  C5  UNL     1      14.875  -8.144  -9.736  1.00  0.00     0.145 C 
HETATM    4  N4  UNL     1      14.265  -6.871  -9.538  1.00  0.00    -0.358 N 
HETATM    5  C9  UNL     1      13.739  -6.392  -8.294  1.00  0.00     0.145 C 
HETATM    6  C10 UNL     1      13.348  -7.473  -7.347  1.00  0.00     0.145 C 
ENDROOT
BRANCH   1   7
HETATM    7  C3  UNL     1      14.036  -9.623  -6.400  1.00  0.00     0.176 C 
HETATM    8  S1  UNL     1      15.362 -10.187  -5.637  1.00  0.00    -0.041 SA
BRANCH   7   9
HETATM    9  N2  UNL     1      12.757 -10.122  -6.011  1.00  0.00    -0.310 N 
ATOM     10  H2  UNL     1      12.136 -10.500  -6.726  1.00  0.00     0.170 HD
BRANCH   9  11
HETATM   11  C2  UNL     1      12.328 -10.111  -4.676  1.00  0.00     0.176 C 
HETATM   12  N1  UNL     1      11.315  -9.402  -4.255  1.00  0.00    -0.371 N 
HETATM   13  C1  UNL     1      10.615  -8.592  -5.254  1.00  0.00     0.148 C 
ATOM     14  H1  UNL     1      11.025  -9.412  -3.277  1.00  0.00     0.161 HD
HETATM   15 CL1  UNL     1      13.134 -11.068  -3.425  1.00  0.00    -0.045 Cl
ENDBRANCH   9  11
ENDBRANCH   7   9
ENDBRANCH   1   7
BRANCH   4  16
HETATM   16  C6  UNL     1      14.169  -5.990 -10.678  1.00  0.00     0.146 A 
HETATM   17  N5  UNL     1      13.469  -4.873 -10.806  1.00  0.00    -0.346 N 
HETATM   18  C7  UNL     1      13.508  -4.211 -11.917  1.00  0.00     0.097 A 
ATOM     19  H5  UNL     1      12.899  -4.536 -10.031  1.00  0.00     0.167 HD
HETATM   20  C8  UNL     1      14.291  -4.712 -12.930  1.00  0.00     0.070 A 
HETATM   21  S2  UNL     1      14.926  -6.123 -12.204  1.00  0.00    -0.065 SA
ENDBRANCH   4  16
TORSDOF 4
ENDMDL
MODEL 4
REMARK VINA RESULT: -5.847396497      2.981      7.507
REMARK  4 active torsions:
REMARK  status: ('A' for Active; 'I' for Inactive)
REMARK    1  A    between atoms: C2_4  and  N2_6 
REMARK    2  A    between atoms: N2_6  and  C3_8 
REMARK    3  A    between atoms: C3_8  and  N3_10 
REMARK    4  A    between atoms: N4_13  and  C6_14 
ROOT
HETATM    1  N3  UNL     1      14.565  -9.077  -7.187  1.00  0.00    -0.355 N 
HETATM    2  C4  UNL     1      15.610  -9.880  -6.644  1.00  0.00     0.145 C 
HETATM    3  C5  UNL     1      16.615 -10.362  -7.660  1.00  0.00     0.145 C 
HETATM    4  N4  UNL     1      16.856  -9.423  -8.705  1.00  0.00    -0.358 N 
HETATM    5  C9  UNL     1      16.082  -8.242  -8.950  1.00  0.00     0.145 C 
HETATM    6  C10 UNL     1      14.690  -8.314  -8.426  1.00  0.00     0.145 C 
ENDROOT
BRANCH   1   7
HETATM    7  C3  UNL     1      13.325  -8.992  -6.510  1.00  0.00     0.176 C 
HETATM    8  S1  UNL     1      12.520  -7.575  -6.529  1.00  0.00    -0.041 SA
BRANCH   7   9
HETATM    9  N2  UNL     1      12.752 -10.097  -5.813  1.00  0.00    -0.310 N 
ATOM     10  H2  UNL     1      12.902 -11.039  -6.173  1.00  0.00     0.170 HD
BRANCH   9  11
HETATM   11  C2  UNL     1      11.988  -9.928  -4.649  1.00  0.00     0.176 C 
HETATM   12  N1  UNL     1      12.274 -10.509  -3.514  1.00  0.00    -0.371 N 
HETATM   13  C1  UNL     1      13.457 -11.373  -3.494  1.00  0.00     0.148 C 
ATOM     14  H1  UNL     1      11.700 -10.370  -2.683  1.00  0.00     0.161 HD
HETATM   15 CL1  UNL     1      10.550  -8.898  -4.614  1.00  0.00    -0.045 Cl
ENDBRANCH   9  11
ENDBRANCH   7   9
ENDBRANCH   1   7
BRANCH   4  16
HETATM   16  C6  UNL     1      17.969  -9.678  -9.590  1.00  0.00     0.146 A 
HETATM   17  N5  UNL     1      19.181  -9.144  -9.573  1.00  0.00    -0.346 N 
HETATM   18  C7  UNL     1      20.056  -9.501 -10.456  1.00  0.00     0.097 A 
ATOM     19  H5  UNL     1      19.424  -8.451  -8.865  1.00  0.00     0.167 HD
HETATM   20  C8  UNL     1      19.675 -10.437 -11.388  1.00  0.00     0.070 A 
HETATM   21  S2  UNL     1      18.059 -10.743 -10.922  1.00  0.00    -0.065 SA
ENDBRANCH   4  16
TORSDOF 4
ENDMDL
MODEL 5
REMARK VINA RESULT: -5.706518819      2.890      7.473
REMARK  4 active torsions:
REMARK  status: ('A' for Active; 'I' for Inactive)
REMARK    1  A    between atoms: C2_4  and  N2_6 
REMARK    2  A    between atoms: N2_6  and  C3_8 
REMARK    3  A    between atoms: C3_8  and  N3_10 
REMARK    4  A    between atoms: N4_13  and  C6_14 
ROOT
HETATM    1  N3  UNL     1      14.952  -9.335  -7.409  1.00  0.00    -0.355 N 
HETATM    2  C4  UNL     1      14.895  -8.741  -8.704  1.00  0.00     0.145 C 
HETATM    3  C5  UNL     1      16.241  -8.530  -9.350  1.00  0.00     0.145 C 
HETATM    4  N4  UNL     1      17.187  -9.548  -9.032  1.00  0.00    -0.358 N 
HETATM    5  C9  UNL     1      17.013 -10.552  -8.026  1.00  0.00     0.145 C 
HETATM    6  C10 UNL     1      16.060 -10.167  -6.947  1.00  0.00     0.145 C 
ENDROOT
BRANCH   1   7
HETATM    7  C3  UNL     1      13.891  -9.126  -6.496  1.00  0.00     0.176 C 
HETATM    8  S1  UNL     1      13.013  -7.758  -6.619  1.00  0.00    -0.041 SA
BRANCH   7   9
HETATM    9  N2  UNL     1      13.559 -10.065  -5.475  1.00  0.00    -0.310 N 
ATOM     10  H2  UNL     1      14.261 -10.743  -5.180  1.00  0.00     0.170 HD
BRANCH   9  11
HETATM   11  C2  UNL     1      12.297 -10.085  -4.863  1.00  0.00     0.176 C 
HETATM   12  N1  UNL     1      12.089 -10.563  -3.665  1.00  0.00    -0.371 N 
HETATM   13  C1  UNL     1      13.253 -11.095  -2.955  1.00  0.00     0.148 C 
ATOM     14  H1  UNL     1      11.159 -10.566  -3.245  1.00  0.00     0.161 HD
HETATM   15 CL1  UNL     1      10.854  -9.456  -5.673  1.00  0.00    -0.045 Cl
ENDBRANCH   9  11
ENDBRANCH   7   9
ENDBRANCH   1   7
BRANCH   4  16
HETATM   16  C6  UNL     1      18.420  -9.574  -9.784  1.00  0.00     0.146 A 
HETATM   17  N5  UNL     1      19.560  -8.949  -9.528  1.00  0.00    -0.346 N 
HETATM   18  C7  UNL     1      20.568  -9.095 -10.325  1.00  0.00     0.097 A 
ATOM     19  H5  UNL     1      19.642  -8.354  -8.704  1.00  0.00     0.167 HD
HETATM   20  C8  UNL     1      20.402  -9.907 -11.421  1.00  0.00     0.070 A 
HETATM   21  S2  UNL     1      18.780 -10.413 -11.227  1.00  0.00    -0.065 SA
ENDBRANCH   4  16
TORSDOF 4
ENDMDL
