MODEL 1
REMARK VINA RESULT: -6.840137044      0.000      0.000
REMARK  2 active torsions:
REMARK  status: ('A' for Active; 'I' for Inactive)
REMARK    1  A    between atoms: C2_2  and  N1_3 
REMARK    2  A    between atoms: C5_11  and  C6_12 
ROOT
HETATM    1  C1  UNL     1      16.790 -11.578  -9.780  1.00  0.00     0.039 C 
HETATM    2  C2  UNL     1      16.807 -10.248  -9.081  1.00  0.00     0.046 C 
HETATM    3  C9  UNL     1      16.645 -10.481  -7.582  1.00  0.00     0.034 C 
HETATM    4  C10 UNL     1      16.030  -9.170  -7.119  1.00  0.00     0.042 C 
HETATM    5  C11 UNL     1      15.136  -8.721  -8.240  1.00  0.00     0.140 C 
HETATM    6  C12 UNL     1      15.225  -7.282  -8.487  1.00  0.00     0.084 C 
HETATM    7  N5  UNL     1      15.312  -6.141  -8.699  1.00  0.00    -0.195 NA
HETATM    8  C13 UNL     1      13.714  -8.977  -7.900  1.00  0.00     0.084 C 
HETATM    9  N6  UNL     1      12.612  -9.189  -7.635  1.00  0.00    -0.195 NA
HETATM   10  C14 UNL     1      15.495  -9.534  -9.470  1.00  0.00     0.071 C 
ENDROOT
BRANCH   2  11
HETATM   11  N1  UNL     1      17.856  -9.373  -9.397  1.00  0.00    -0.217 N 
HETATM   12  C3  UNL     1      19.014  -9.483  -9.829  1.00  0.00     0.680 A 
HETATM   13  N2  UNL     1      19.628 -10.629 -10.147  1.00  0.00    -0.188 N 
HETATM   14  N4  UNL     1      19.754  -8.345  -9.960  1.00  0.00    -0.179 N 
HETATM   15  C4  UNL     1      20.914 -10.657 -10.573  1.00  0.00     0.199 A 
ATOM     16  H2  UNL     1      19.114 -11.506 -10.065  1.00  0.00     0.185 HD
HETATM   17  N3  UNL     1      21.619  -9.529 -10.693  1.00  0.00    -0.340 N 
HETATM   18  C5  UNL     1      21.029  -8.336 -10.379  1.00  0.00     0.121 A 
ATOM     19  H3  UNL     1      22.587  -9.557 -11.014  1.00  0.00     0.168 HD
ATOM     20  H4  UNL     1      19.316  -7.453  -9.727  1.00  0.00     0.185 HD
ATOM     21  H1  UNL     1      17.603  -8.399  -9.228  1.00  0.00     0.178 HD
BRANCH  18  22
HETATM   22  C6  UNL     1      21.837  -7.107 -10.498  1.00  0.00     0.088 C 
HETATM   23  C7  UNL     1      21.198  -6.054 -11.361  1.00  0.00     0.041 C 
HETATM   24  C8  UNL     1      22.183  -6.508  -9.147  1.00  0.00     0.041 C 
HETATM   25 CL1  UNL     1      23.421  -7.509 -11.251  1.00  0.00    -0.112 Cl
ENDBRANCH  18  22
ENDBRANCH   2  11
TORSDOF 2
ENDMDL
MODEL 2
REMARK VINA RESULT: -6.223103901      1.478      1.764
REMARK  2 active torsions:
REMARK  status: ('A' for Active; 'I' for Inactive)
REMARK    1  A    between atoms: C2_2  and  N1_3 
REMARK    2  A    between atoms: C5_11  and  C6_12 
ROOT
HETATM    1  C1  UNL     1      17.142 -11.382  -8.471  1.00  0.00     0.039 C 
HETATM    2  C2  UNL     1      16.952  -9.961  -8.920  1.00  0.00     0.046 C 
HETATM    3  C9  UNL     1      16.013  -9.259  -7.943  1.00  0.00     0.034 C 
HETATM    4  C10 UNL     1      15.407  -8.168  -8.809  1.00  0.00     0.042 C 
HETATM    5  C11 UNL     1      15.280  -8.761 -10.184  1.00  0.00     0.140 C 
HETATM    6  C12 UNL     1      15.653  -7.817 -11.239  1.00  0.00     0.084 C 
HETATM    7  N5  UNL     1      15.970  -7.076 -12.077  1.00  0.00    -0.195 NA
HETATM    8  C13 UNL     1      13.868  -9.126 -10.460  1.00  0.00     0.084 C 
HETATM    9  N6  UNL     1      12.771  -9.418 -10.665  1.00  0.00    -0.195 NA
HETATM   10  C14 UNL     1      16.124 -10.021 -10.222  1.00  0.00     0.071 C 
ENDROOT
BRANCH   2  11
HETATM   11  N1  UNL     1      18.107  -9.220  -9.207  1.00  0.00    -0.217 N 
HETATM   12  C3  UNL     1      19.210  -9.449  -9.729  1.00  0.00     0.680 A 
HETATM   13  N2  UNL     1      19.620 -10.626 -10.216  1.00  0.00    -0.188 N 
HETATM   14  N4  UNL     1      20.112  -8.426  -9.781  1.00  0.00    -0.179 N 
HETATM   15  C4  UNL     1      20.861 -10.794 -10.732  1.00  0.00     0.199 A 
ATOM     16  H2  UNL     1      18.979 -11.420 -10.199  1.00  0.00     0.185 HD
HETATM   17  N3  UNL     1      21.728  -9.778 -10.772  1.00  0.00    -0.340 N 
HETATM   18  C5  UNL     1      21.349  -8.558 -10.285  1.00  0.00     0.121 A 
ATOM     19  H3  UNL     1      22.661  -9.911 -11.161  1.00  0.00     0.168 HD
ATOM     20  H4  UNL     1      19.831  -7.515  -9.419  1.00  0.00     0.185 HD
ATOM     21  H1  UNL     1      18.020  -8.248  -8.911  1.00  0.00     0.178 HD
BRANCH  18  22
HETATM   22  C6  UNL     1      22.332  -7.458 -10.320  1.00  0.00     0.088 C 
HETATM   23  C7  UNL     1      22.140  -6.450  -9.221  1.00  0.00     0.041 C 
HETATM   24  C8  UNL     1      23.764  -7.959 -10.298  1.00  0.00     0.041 C 
HETATM   25 CL1  UNL     1      22.171  -6.569 -11.876  1.00  0.00    -0.112 Cl
ENDBRANCH  18  22
ENDBRANCH   2  11
TORSDOF 2
ENDMDL
MODEL 3
REMARK VINA RESULT: -6.200361589      5.327      7.736
REMARK  2 active torsions:
REMARK  status: ('A' for Active; 'I' for Inactive)
REMARK    1  A    between atoms: C2_2  and  N1_3 
REMARK    2  A    between atoms: C5_11  and  C6_12 
ROOT
HETATM    1  C1  UNL     1      15.105  -7.780 -11.423  1.00  0.00     0.039 C 
HETATM    2  C2  UNL     1      14.012  -8.792 -11.232  1.00  0.00     0.046 C 
HETATM    3  C9  UNL     1      14.517 -10.154 -11.702  1.00  0.00     0.034 C 
HETATM    4  C10 UNL     1      13.225 -10.860 -12.081  1.00  0.00     0.042 C 
HETATM    5  C11 UNL     1      12.326  -9.795 -12.642  1.00  0.00     0.140 C 
HETATM    6  C12 UNL     1      10.941  -9.935 -12.191  1.00  0.00     0.084 C 
HETATM    7  N5  UNL     1       9.844 -10.033 -11.817  1.00  0.00    -0.195 NA
HETATM    8  C13 UNL     1      12.274  -9.891 -14.122  1.00  0.00     0.084 C 
HETATM    9  N6  UNL     1      12.246  -9.963 -15.273  1.00  0.00    -0.195 NA
HETATM   10  C14 UNL     1      12.915  -8.449 -12.263  1.00  0.00     0.071 C 
ENDROOT
BRANCH   2  11
HETATM   11  N1  UNL     1      13.391  -8.835  -9.976  1.00  0.00    -0.217 N 
HETATM   12  C3  UNL     1      13.751  -9.042  -8.806  1.00  0.00     0.680 A 
HETATM   13  N2  UNL     1      14.999  -9.309  -8.404  1.00  0.00    -0.188 N 
HETATM   14  N4  UNL     1      12.792  -9.038  -7.837  1.00  0.00    -0.179 N 
HETATM   15  C4  UNL     1      15.293  -9.564  -7.107  1.00  0.00     0.199 A 
ATOM     16  H2  UNL     1      15.750  -9.322  -9.095  1.00  0.00     0.185 HD
HETATM   17  N3  UNL     1      14.337  -9.556  -6.174  1.00  0.00    -0.340 N 
HETATM   18  C5  UNL     1      13.048  -9.287  -6.542  1.00  0.00     0.121 A 
ATOM     19  H3  UNL     1      14.565  -9.749  -5.199  1.00  0.00     0.168 HD
ATOM     20  H4  UNL     1      11.829  -8.837  -8.109  1.00  0.00     0.185 HD
ATOM     21  H1  UNL     1      12.390  -8.650 -10.039  1.00  0.00     0.178 HD
BRANCH  18  22
HETATM   22  C6  UNL     1      12.006  -9.306  -5.497  1.00  0.00     0.088 C 
HETATM   23  C7  UNL     1      12.262 -10.321  -4.418  1.00  0.00     0.041 C 
HETATM   24  C8  UNL     1      11.793  -7.943  -4.866  1.00  0.00     0.041 C 
HETATM   25 CL1  UNL     1      10.425  -9.728  -6.245  1.00  0.00    -0.112 Cl
ENDBRANCH  18  22
ENDBRANCH   2  11
TORSDOF 2
ENDMDL
MODEL 4
REMARK VINA RESULT: -5.971355757      4.778      7.139
REMARK  2 active torsions:
REMARK  status: ('A' for Active; 'I' for Inactive)
REMARK    1  A    between atoms: C2_2  and  N1_3 
REMARK    2  A    between atoms: C5_11  and  C6_12 
ROOT
HETATM    1  C1  UNL     1      15.467  -7.907 -13.116  1.00  0.00     0.039 C 
HETATM    2  C2  UNL     1      14.247  -8.676 -12.697  1.00  0.00     0.046 C 
HETATM    3  C9  UNL     1      14.342 -10.092 -13.260  1.00  0.00     0.034 C 
HETATM    4  C10 UNL     1      12.881 -10.497 -13.356  1.00  0.00     0.042 C 
HETATM    5  C11 UNL     1      12.133  -9.245 -13.717  1.00  0.00     0.140 C 
HETATM    6  C12 UNL     1      10.873  -9.113 -12.984  1.00  0.00     0.084 C 
HETATM    7  N5  UNL     1       9.882  -8.996 -12.387  1.00  0.00    -0.195 NA
HETATM    8  C13 UNL     1      11.756  -9.265 -15.153  1.00  0.00     0.084 C 
HETATM    9  N6  UNL     1      11.476  -9.280 -16.271  1.00  0.00    -0.195 NA
HETATM   10  C14 UNL     1      13.059  -8.068 -13.474  1.00  0.00     0.071 C 
ENDROOT
BRANCH   2  11
HETATM   11  N1  UNL     1      13.904  -8.642 -11.338  1.00  0.00    -0.217 N 
HETATM   12  C3  UNL     1      14.457  -8.942 -10.268  1.00  0.00     0.680 A 
HETATM   13  N2  UNL     1      15.692  -9.438 -10.134  1.00  0.00    -0.188 N 
HETATM   14  N4  UNL     1      13.738  -8.795  -9.118  1.00  0.00    -0.179 N 
HETATM   15  C4  UNL     1      16.201  -9.777  -8.925  1.00  0.00     0.199 A 
ATOM     16  H2  UNL     1      16.269  -9.565 -10.967  1.00  0.00     0.185 HD
HETATM   17  N3  UNL     1      15.477  -9.625  -7.812  1.00  0.00    -0.340 N 
HETATM   18  C5  UNL     1      14.210  -9.120  -7.904  1.00  0.00     0.121 A 
ATOM     19  H3  UNL     1      15.865  -9.882  -6.905  1.00  0.00     0.168 HD
ATOM     20  H4  UNL     1      12.792  -8.418  -9.184  1.00  0.00     0.185 HD
ATOM     21  H1  UNL     1      12.961  -8.281 -11.191  1.00  0.00     0.178 HD
BRANCH  18  22
HETATM   22  C6  UNL     1      13.423  -8.983  -6.664  1.00  0.00     0.088 C 
HETATM   23  C7  UNL     1      13.343  -7.568  -6.161  1.00  0.00     0.041 C 
HETATM   24  C8  UNL     1      12.021  -9.548  -6.801  1.00  0.00     0.041 C 
HETATM   25 CL1  UNL     1      14.194  -9.957  -5.362  1.00  0.00    -0.112 Cl
ENDBRANCH  18  22
ENDBRANCH   2  11
TORSDOF 2
ENDMDL
MODEL 5
REMARK VINA RESULT: -5.785844590      4.864      7.053
REMARK  2 active torsions:
REMARK  status: ('A' for Active; 'I' for Inactive)
REMARK    1  A    between atoms: C2_2  and  N1_3 
REMARK    2  A    between atoms: C5_11  and  C6_12 
ROOT
HETATM    1  C1  UNL     1      16.581  -9.719 -10.479  1.00  0.00     0.039 C 
HETATM    2  C2  UNL     1      15.428  -9.066  -9.773  1.00  0.00     0.046 C 
HETATM    3  C9  UNL     1      15.947  -7.857  -8.999  1.00  0.00     0.034 C 
HETATM    4  C10 UNL     1      14.922  -7.726  -7.885  1.00  0.00     0.042 C 
HETATM    5  C11 UNL     1      14.514  -9.131  -7.538  1.00  0.00     0.140 C 
HETATM    6  C12 UNL     1      13.075  -9.255  -7.307  1.00  0.00     0.084 C 
HETATM    7  N5  UNL     1      11.928  -9.361  -7.143  1.00  0.00    -0.195 NA
HETATM    8  C13 UNL     1      15.159  -9.557  -6.271  1.00  0.00     0.084 C 
HETATM    9  N6  UNL     1      15.671  -9.888  -5.292  1.00  0.00    -0.195 NA
HETATM   10  C14 UNL     1      14.992 -10.039  -8.656  1.00  0.00     0.071 C 
ENDROOT
BRANCH   2  11
HETATM   11  N1  UNL     1      14.286  -8.786 -10.536  1.00  0.00    -0.217 N 
HETATM   12  C3  UNL     1      14.042  -8.185 -11.596  1.00  0.00     0.680 A 
HETATM   13  N2  UNL     1      14.940  -7.576 -12.377  1.00  0.00    -0.188 N 
HETATM   14  N4  UNL     1      12.739  -8.097 -11.990  1.00  0.00    -0.179 N 
HETATM   15  C4  UNL     1      14.577  -6.907 -13.498  1.00  0.00     0.199 A 
ATOM     16  H2  UNL     1      15.928  -7.616 -12.123  1.00  0.00     0.185 HD
HETATM   17  N3  UNL     1      13.294  -6.832 -13.864  1.00  0.00    -0.340 N 
HETATM   18  C5  UNL     1      12.344  -7.442 -13.093  1.00  0.00     0.121 A 
ATOM     19  H3  UNL     1      13.027  -6.327 -14.709  1.00  0.00     0.168 HD
ATOM     20  H4  UNL     1      12.028  -8.552 -11.417  1.00  0.00     0.185 HD
ATOM     21  H1  UNL     1      13.441  -9.172 -10.115  1.00  0.00     0.178 HD
BRANCH  18  22
HETATM   22  C6  UNL     1      10.932  -7.326 -13.507  1.00  0.00     0.088 C 
HETATM   23  C7  UNL     1      10.293  -6.030 -13.094  1.00  0.00     0.041 C 
HETATM   24  C8  UNL     1      10.747  -7.525 -15.000  1.00  0.00     0.041 C 
HETATM   25 CL1  UNL     1       9.980  -8.646 -12.738  1.00  0.00    -0.112 Cl
ENDBRANCH  18  22
ENDBRANCH   2  11
TORSDOF 2
ENDMDL
