MODEL 1
REMARK VINA RESULT: -6.850825822      0.000      0.000
REMARK  2 active torsions:
REMARK  status: ('A' for Active; 'I' for Inactive)
REMARK    1  A    between atoms: C3_6  and  N3_7 
REMARK       I    between atoms: N3_7  and  C4_9 
REMARK    2  A    between atoms: C4_9  and  C5_11 
ROOT
HETATM    1  N1  UNL     1      10.424  -9.316  -5.471  1.00  0.00    -0.190 NA
HETATM    2  C1  UNL     1      11.569  -9.481  -5.660  1.00  0.00     0.120 C 
HETATM    3  C2  UNL     1      13.014  -9.701  -5.875  1.00  0.00     0.143 A 
HETATM    4  N2  UNL     1      13.644  -9.279  -6.940  1.00  0.00    -0.326 N 
ATOM      5  H2  UNL     1      13.147  -8.772  -7.672  1.00  0.00     0.169 HD
HETATM    6  C3  UNL     1      14.949  -9.522  -7.050  1.00  0.00     0.153 A 
HETATM    7  S2  UNL     1      15.309 -10.370  -5.622  1.00  0.00    -0.040 SA
HETATM    8  C9  UNL     1      13.748 -10.376  -4.931  1.00  0.00     0.126 A 
HETATM    9  C10 UNL     1      13.292 -10.946  -3.667  1.00  0.00     0.110 C 
HETATM   10  N4  UNL     1      12.951 -11.405  -2.665  1.00  0.00    -0.191 NA
ENDROOT
BRANCH   6  11
HETATM   11  N3  UNL     1      15.779  -9.204  -8.006  1.00  0.00    -0.302 N 
HETATM   12  C4  UNL     1      15.565  -8.099  -8.840  1.00  0.00     0.264 C 
HETATM   13  O1  UNL     1      15.326  -6.953  -8.426  1.00  0.00    -0.267 OA
ATOM     14  H3  UNL     1      16.610  -9.778  -8.151  1.00  0.00     0.171 HD
BRANCH  12  15
HETATM   15  C5  UNL     1      15.630  -8.332 -10.301  1.00  0.00     0.074 A 
HETATM   16  C6  UNL     1      15.296  -7.470 -11.311  1.00  0.00     0.027 A 
HETATM   17  C7  UNL     1      15.442  -7.913 -12.566  1.00  0.00     0.033 A 
HETATM   18  C8  UNL     1      15.911  -9.185 -12.739  1.00  0.00     0.075 A 
HETATM   19 CL1  UNL     1      16.203 -10.034 -14.267  1.00  0.00    -0.076 Cl
HETATM   20  S1  UNL     1      16.135  -9.728 -11.136  1.00  0.00    -0.072 SA
ENDBRANCH  12  15
ENDBRANCH   6  11
TORSDOF 2
ENDMDL
MODEL 2
REMARK VINA RESULT: -6.844474865      1.085      1.189
REMARK  2 active torsions:
REMARK  status: ('A' for Active; 'I' for Inactive)
REMARK    1  A    between atoms: C3_6  and  N3_7 
REMARK       I    between atoms: N3_7  and  C4_9 
REMARK    2  A    between atoms: C4_9  and  C5_11 
ROOT
HETATM    1  N1  UNL     1      10.360  -9.297  -5.456  1.00  0.00    -0.190 NA
HETATM    2  C1  UNL     1      11.503  -9.441  -5.672  1.00  0.00     0.120 C 
HETATM    3  C2  UNL     1      12.946  -9.635  -5.922  1.00  0.00     0.143 A 
HETATM    4  N2  UNL     1      13.550  -9.175  -6.986  1.00  0.00    -0.326 N 
ATOM      5  H2  UNL     1      13.032  -8.654  -7.693  1.00  0.00     0.169 HD
HETATM    6  C3  UNL     1      14.856  -9.398  -7.129  1.00  0.00     0.153 A 
HETATM    7  S2  UNL     1      15.254 -10.281  -5.732  1.00  0.00    -0.040 SA
HETATM    8  C9  UNL     1      13.708 -10.327  -5.012  1.00  0.00     0.126 A 
HETATM    9  C10 UNL     1      13.284 -10.939  -3.756  1.00  0.00     0.110 C 
HETATM   10  N4  UNL     1      12.968 -11.431  -2.761  1.00  0.00    -0.191 NA
ENDROOT
BRANCH   6  11
HETATM   11  N3  UNL     1      15.662  -9.042  -8.091  1.00  0.00    -0.302 N 
HETATM   12  C4  UNL     1      15.482  -7.854  -8.811  1.00  0.00     0.264 C 
HETATM   13  O1  UNL     1      15.333  -6.738  -8.285  1.00  0.00    -0.267 OA
ATOM     14  H3  UNL     1      16.449  -9.647  -8.326  1.00  0.00     0.171 HD
BRANCH  12  15
HETATM   15  C5  UNL     1      15.470  -7.954 -10.288  1.00  0.00     0.074 A 
HETATM   16  C6  UNL     1      16.232  -8.765 -11.087  1.00  0.00     0.027 A 
HETATM   17  C7  UNL     1      16.039  -8.675 -12.409  1.00  0.00     0.033 A 
HETATM   18  C8  UNL     1      15.100  -7.787 -12.854  1.00  0.00     0.075 A 
HETATM   19 CL1  UNL     1      14.633  -7.456 -14.532  1.00  0.00    -0.076 Cl
HETATM   20  S1  UNL     1      14.513  -7.099 -11.407  1.00  0.00    -0.072 SA
ENDBRANCH  12  15
ENDBRANCH   6  11
TORSDOF 2
ENDMDL
MODEL 3
REMARK VINA RESULT: -6.816420902      2.049      2.268
REMARK  2 active torsions:
REMARK  status: ('A' for Active; 'I' for Inactive)
REMARK    1  A    between atoms: C3_6  and  N3_7 
REMARK       I    between atoms: N3_7  and  C4_9 
REMARK    2  A    between atoms: C4_9  and  C5_11 
ROOT
HETATM    1  N1  UNL     1      10.339  -9.421  -5.655  1.00  0.00    -0.190 NA
HETATM    2  C1  UNL     1      11.493  -9.476  -5.850  1.00  0.00     0.120 C 
HETATM    3  C2  UNL     1      12.952  -9.559  -6.073  1.00  0.00     0.143 A 
HETATM    4  N2  UNL     1      13.543  -9.018  -7.106  1.00  0.00    -0.326 N 
ATOM      5  H2  UNL     1      13.003  -8.510  -7.807  1.00  0.00     0.169 HD
HETATM    6  C3  UNL     1      14.863  -9.143  -7.227  1.00  0.00     0.153 A 
HETATM    7  S2  UNL     1      15.295 -10.046  -5.853  1.00  0.00    -0.040 SA
HETATM    8  C9  UNL     1      13.742 -10.228  -5.171  1.00  0.00     0.126 A 
HETATM    9  C10 UNL     1      13.337 -10.914  -3.947  1.00  0.00     0.110 C 
HETATM   10  N4  UNL     1      13.037 -11.463  -2.978  1.00  0.00    -0.191 NA
ENDROOT
BRANCH   6  11
HETATM   11  N3  UNL     1      15.662  -8.696  -8.157  1.00  0.00    -0.302 N 
HETATM   12  C4  UNL     1      15.664  -9.226  -9.453  1.00  0.00     0.264 C 
HETATM   13  O1  UNL     1      14.645  -9.364 -10.149  1.00  0.00    -0.267 OA
ATOM     14  H3  UNL     1      16.305  -7.936  -7.933  1.00  0.00     0.171 HD
BRANCH  12  15
HETATM   15  C5  UNL     1      16.971  -9.643 -10.011  1.00  0.00     0.074 A 
HETATM   16  C6  UNL     1      18.184  -9.694  -9.376  1.00  0.00     0.027 A 
HETATM   17  C7  UNL     1      19.233 -10.108 -10.097  1.00  0.00     0.033 A 
HETATM   18  C8  UNL     1      19.012 -10.447 -11.402  1.00  0.00     0.075 A 
HETATM   19 CL1  UNL     1      20.198 -11.024 -12.587  1.00  0.00    -0.076 Cl
HETATM   20  S1  UNL     1      17.337 -10.175 -11.586  1.00  0.00    -0.072 SA
ENDBRANCH  12  15
ENDBRANCH   6  11
TORSDOF 2
ENDMDL
MODEL 4
REMARK VINA RESULT: -6.593458525      1.087      1.184
REMARK  2 active torsions:
REMARK  status: ('A' for Active; 'I' for Inactive)
REMARK    1  A    between atoms: C3_6  and  N3_7 
REMARK       I    between atoms: N3_7  and  C4_9 
REMARK    2  A    between atoms: C4_9  and  C5_11 
ROOT
HETATM    1  N1  UNL     1      10.814  -9.174  -5.974  1.00  0.00    -0.190 NA
HETATM    2  C1  UNL     1      11.962  -9.402  -6.037  1.00  0.00     0.120 C 
HETATM    3  C2  UNL     1      13.407  -9.702  -6.094  1.00  0.00     0.143 A 
HETATM    4  N2  UNL     1      14.168  -9.340  -7.094  1.00  0.00    -0.326 N 
ATOM      5  H2  UNL     1      13.777  -8.828  -7.885  1.00  0.00     0.169 HD
HETATM    6  C3  UNL     1      15.462  -9.653  -7.061  1.00  0.00     0.153 A 
HETATM    7  S2  UNL     1      15.623 -10.481  -5.585  1.00  0.00    -0.040 SA
HETATM    8  C9  UNL     1      14.001 -10.389  -5.063  1.00  0.00     0.126 A 
HETATM    9  C10 UNL     1      13.385 -10.901  -3.843  1.00  0.00     0.110 C 
HETATM   10  N4  UNL     1      12.917 -11.316  -2.874  1.00  0.00    -0.191 NA
ENDROOT
BRANCH   6  11
HETATM   11  N3  UNL     1      16.403  -9.404  -7.929  1.00  0.00    -0.302 N 
HETATM   12  C4  UNL     1      16.188  -8.582  -9.043  1.00  0.00     0.264 C 
HETATM   13  O1  UNL     1      15.700  -7.442  -8.982  1.00  0.00    -0.267 OA
ATOM     14  H3  UNL     1      17.325  -9.820  -7.793  1.00  0.00     0.171 HD
BRANCH  12  15
HETATM   15  C5  UNL     1      16.572  -9.124 -10.367  1.00  0.00     0.074 A 
HETATM   16  C6  UNL     1      16.095  -8.765 -11.599  1.00  0.00     0.027 A 
HETATM   17  C7  UNL     1      16.601  -9.405 -12.661  1.00  0.00     0.033 A 
HETATM   18  C8  UNL     1      17.551 -10.360 -12.431  1.00  0.00     0.075 A 
HETATM   19 CL1  UNL     1      18.392 -11.360 -13.629  1.00  0.00    -0.076 Cl
HETATM   20  S1  UNL     1      17.709 -10.338 -10.732  1.00  0.00    -0.072 SA
ENDBRANCH  12  15
ENDBRANCH   6  11
TORSDOF 2
ENDMDL
MODEL 5
REMARK VINA RESULT: -6.585514279      3.855      7.328
REMARK  2 active torsions:
REMARK  status: ('A' for Active; 'I' for Inactive)
REMARK    1  A    between atoms: C3_6  and  N3_7 
REMARK       I    between atoms: N3_7  and  C4_9 
REMARK    2  A    between atoms: C4_9  and  C5_11 
ROOT
HETATM    1  N1  UNL     1      14.969  -5.040 -12.667  1.00  0.00    -0.190 NA
HETATM    2  C1  UNL     1      14.935  -6.020 -12.024  1.00  0.00     0.120 C 
HETATM    3  C2  UNL     1      14.912  -7.264 -11.227  1.00  0.00     0.143 A 
HETATM    4  N2  UNL     1      14.044  -7.479 -10.274  1.00  0.00    -0.326 N 
ATOM      5  H2  UNL     1      13.338  -6.779 -10.046  1.00  0.00     0.169 HD
HETATM    6  C3  UNL     1      14.098  -8.631  -9.607  1.00  0.00     0.153 A 
HETATM    7  S2  UNL     1      15.405  -9.439 -10.333  1.00  0.00    -0.040 SA
HETATM    8  C9  UNL     1      15.834  -8.250 -11.479  1.00  0.00     0.126 A 
HETATM    9  C10 UNL     1      16.900  -8.260 -12.476  1.00  0.00     0.110 C 
HETATM   10  N4  UNL     1      17.749  -8.287 -13.257  1.00  0.00    -0.191 NA
ENDROOT
BRANCH   6  11
HETATM   11  N3  UNL     1      13.349  -9.065  -8.631  1.00  0.00    -0.302 N 
HETATM   12  C4  UNL     1      13.363  -8.471  -7.362  1.00  0.00     0.264 C 
HETATM   13  O1  UNL     1      13.220  -7.254  -7.164  1.00  0.00    -0.267 OA
ATOM     14  H3  UNL     1      12.735  -9.863  -8.796  1.00  0.00     0.171 HD
BRANCH  12  15
HETATM   15  C5  UNL     1      13.561  -9.366  -6.199  1.00  0.00     0.074 A 
HETATM   16  C6  UNL     1      14.703 -10.017  -5.817  1.00  0.00     0.027 A 
HETATM   17  C7  UNL     1      14.635 -10.778  -4.718  1.00  0.00     0.033 A 
HETATM   18  C8  UNL     1      13.435 -10.843  -4.066  1.00  0.00     0.075 A 
HETATM   19 CL1  UNL     1      13.049 -11.760  -2.599  1.00  0.00    -0.076 Cl
HETATM   20  S1  UNL     1      12.434  -9.836  -5.012  1.00  0.00    -0.072 SA
ENDBRANCH  12  15
ENDBRANCH   6  11
TORSDOF 2
ENDMDL
