MODEL 1
REMARK VINA RESULT: -5.408683153      0.000      0.000
REMARK  9 active torsions:
REMARK  status: ('A' for Active; 'I' for Inactive)
REMARK    1  A    between atoms: N1_1  and  C1_4 
REMARK    2  A    between atoms: N3_10  and  C4_11 
REMARK    3  A    between atoms: C6_15  and  O2_16 
REMARK    4  A    between atoms: N6_20  and  C8_21 
REMARK    5  A    between atoms: C8_21  and  C9_22 
REMARK    6  A    between atoms: C9_22  and  O4_23 
REMARK    7  A    between atoms: C9_22  and  C10_25 
REMARK    8  A    between atoms: C10_25  and  O5_26 
REMARK    9  A    between atoms: N7_29  and  N8_30 
ROOT
HETATM    1  C1  UNL     1      21.689  27.577  26.665  1.00  0.00     0.699 A 
HETATM    2  N2  UNL     1      20.823  28.320  27.368  1.00  0.00    -0.181 N 
ATOM      3  H2  UNL     1      20.295  28.005  28.182  1.00  0.00     0.184 HD
HETATM    4  C2  UNL     1      20.766  29.546  26.823  1.00  0.00     0.164 A 
HETATM    5  C3  UNL     1      20.069  30.696  27.113  1.00  0.00     0.283 A 
HETATM    6  O1  UNL     1      19.268  30.711  28.100  1.00  0.00    -0.265 OA
HETATM    7  N3  UNL     1      20.199  31.844  26.370  1.00  0.00    -0.254 N 
HETATM    8  C7  UNL     1      21.050  31.794  25.336  1.00  0.00     0.334 A 
HETATM    9  O3  UNL     1      21.173  32.842  24.654  1.00  0.00    -0.246 OA
HETATM   10  N6  UNL     1      21.774  30.691  24.991  1.00  0.00    -0.279 N 
HETATM   11  C11 UNL     1      21.628  29.574  25.735  1.00  0.00     0.184 A 
HETATM   12  N7  UNL     1      22.165  28.335  25.690  1.00  0.00    -0.074 N 
ENDROOT
BRANCH   7  13
HETATM   13  C4  UNL     1      19.453  32.958  26.737  1.00  0.00     0.160 C 
HETATM   14  C5  UNL     1      20.096  34.314  26.754  1.00  0.00     0.160 C 
HETATM   15  N4  UNL     1      18.912  35.059  27.249  1.00  0.00    -0.144 NA
HETATM   16  N5  UNL     1      17.862  34.592  26.457  1.00  0.00    -0.114 NA
HETATM   17  C6  UNL     1      18.192  33.270  25.975  1.00  0.00     0.251 C 
BRANCH  17  18
HETATM   18  O2  UNL     1      18.311  33.229  24.612  1.00  0.00    -0.376 OA
ATOM     19  H2  UNL     1      17.665  33.737  24.135  1.00  0.00     0.211 HD
ENDBRANCH  17  18
ENDBRANCH   7  13
BRANCH  10  20
HETATM   20  C8  UNL     1      22.662  30.730  23.868  1.00  0.00     0.169 C 
BRANCH  20  21
HETATM   21  C9  UNL     1      22.168  29.947  22.669  1.00  0.00     0.160 C 
BRANCH  21  22
HETATM   22  O4  UNL     1      23.259  29.628  21.853  1.00  0.00    -0.392 OA
ATOM     23  H4  UNL     1      22.982  28.997  21.199  1.00  0.00     0.210 HD
ENDBRANCH  21  22
BRANCH  21  24
HETATM   24  C10 UNL     1      21.253  30.882  21.887  1.00  0.00     0.197 C 
BRANCH  24  25
HETATM   25  O5  UNL     1      21.808  32.159  21.952  1.00  0.00    -0.398 OA
ATOM     26  H5  UNL     1      21.147  32.771  21.652  1.00  0.00     0.209 HD
ENDBRANCH  24  25
ENDBRANCH  21  24
ENDBRANCH  20  21
ENDBRANCH  10  20
BRANCH   1  27
HETATM   27  N1  UNL     1      21.955  26.333  26.959  1.00  0.00    -0.233 N 
ATOM     28  H12 UNL     1      21.367  25.504  26.875  1.00  0.00     0.174 HD
ATOM     29  H11 UNL     1      22.855  26.036  27.338  1.00  0.00     0.174 HD
ENDBRANCH   1  27
BRANCH  12  30
HETATM   30  N8  UNL     1      23.091  27.911  24.749  1.00  0.00    -0.322 N 
ATOM     31  H82 UNL     1      23.612  27.036  24.803  1.00  0.00     0.178 HD
ATOM     32  H81 UNL     1      23.341  28.434  23.910  1.00  0.00     0.178 HD
ENDBRANCH  12  30
TORSDOF 9
ENDMDL
MODEL 2
REMARK VINA RESULT: -5.307708380      2.670      4.316
REMARK  9 active torsions:
REMARK  status: ('A' for Active; 'I' for Inactive)
REMARK    1  A    between atoms: N1_1  and  C1_4 
REMARK    2  A    between atoms: N3_10  and  C4_11 
REMARK    3  A    between atoms: C6_15  and  O2_16 
REMARK    4  A    between atoms: N6_20  and  C8_21 
REMARK    5  A    between atoms: C8_21  and  C9_22 
REMARK    6  A    between atoms: C9_22  and  O4_23 
REMARK    7  A    between atoms: C9_22  and  C10_25 
REMARK    8  A    between atoms: C10_25  and  O5_26 
REMARK    9  A    between atoms: N7_29  and  N8_30 
ROOT
HETATM    1  C1  UNL     1      21.721  29.340  21.013  1.00  0.00     0.699 A 
HETATM    2  N2  UNL     1      21.072  30.426  21.452  1.00  0.00    -0.181 N 
ATOM      3  H2  UNL     1      20.487  31.040  20.884  1.00  0.00     0.184 HD
HETATM    4  C2  UNL     1      21.317  30.573  22.765  1.00  0.00     0.164 A 
HETATM    5  C3  UNL     1      20.928  31.483  23.720  1.00  0.00     0.283 A 
HETATM    6  O1  UNL     1      20.163  32.444  23.395  1.00  0.00    -0.265 OA
HETATM    7  N3  UNL     1      21.337  31.399  25.029  1.00  0.00    -0.254 N 
HETATM    8  C7  UNL     1      22.144  30.375  25.338  1.00  0.00     0.334 A 
HETATM    9  O3  UNL     1      22.521  30.293  26.534  1.00  0.00    -0.246 OA
HETATM   10  N6  UNL     1      22.568  29.436  24.444  1.00  0.00    -0.279 N 
HETATM   11  C11 UNL     1      22.154  29.540  23.164  1.00  0.00     0.184 A 
HETATM   12  N7  UNL     1      22.366  28.817  22.043  1.00  0.00    -0.074 N 
ENDROOT
BRANCH   7  13
HETATM   13  C4  UNL     1      20.894  32.366  25.924  1.00  0.00     0.160 C 
HETATM   14  C5  UNL     1      20.398  31.954  27.280  1.00  0.00     0.160 C 
HETATM   15  N4  UNL     1      20.026  33.314  27.746  1.00  0.00    -0.144 NA
HETATM   16  N5  UNL     1      21.130  34.100  27.412  1.00  0.00    -0.114 NA
HETATM   17  C6  UNL     1      21.829  33.481  26.309  1.00  0.00     0.251 C 
BRANCH  17  18
HETATM   18  O2  UNL     1      23.095  33.088  26.652  1.00  0.00    -0.376 OA
ATOM     19  H2  UNL     1      23.714  33.047  25.932  1.00  0.00     0.211 HD
ENDBRANCH  17  18
ENDBRANCH   7  13
BRANCH  10  20
HETATM   20  C8  UNL     1      23.431  28.373  24.866  1.00  0.00     0.169 C 
BRANCH  20  21
HETATM   21  C9  UNL     1      22.706  27.220  25.529  1.00  0.00     0.160 C 
BRANCH  21  22
HETATM   22  O4  UNL     1      22.858  27.324  26.916  1.00  0.00    -0.392 OA
ATOM     23  H4  UNL     1      23.762  27.140  27.143  1.00  0.00     0.210 HD
ENDBRANCH  21  22
BRANCH  21  24
HETATM   24  C10 UNL     1      23.406  25.947  25.072  1.00  0.00     0.197 C 
BRANCH  24  25
HETATM   25  O5  UNL     1      22.747  25.493  23.932  1.00  0.00    -0.398 OA
ATOM     26  H5  UNL     1      22.559  24.571  24.060  1.00  0.00     0.209 HD
ENDBRANCH  24  25
ENDBRANCH  21  24
ENDBRANCH  20  21
ENDBRANCH  10  20
BRANCH   1  27
HETATM   27  N1  UNL     1      21.672  28.941  19.770  1.00  0.00    -0.233 N 
ATOM     28  H12 UNL     1      20.863  28.770  19.173  1.00  0.00     0.174 HD
ATOM     29  H11 UNL     1      22.508  28.742  19.221  1.00  0.00     0.174 HD
ENDBRANCH   1  27
BRANCH  12  30
HETATM   30  N8  UNL     1      23.154  27.678  21.978  1.00  0.00    -0.322 N 
ATOM     31  H82 UNL     1      22.844  26.779  21.608  1.00  0.00     0.178 HD
ATOM     32  H81 UNL     1      24.123  27.629  22.293  1.00  0.00     0.178 HD
ENDBRANCH  12  30
TORSDOF 9
ENDMDL
MODEL 3
REMARK VINA RESULT: -5.256960690      2.740      4.261
REMARK  9 active torsions:
REMARK  status: ('A' for Active; 'I' for Inactive)
REMARK    1  A    between atoms: N1_1  and  C1_4 
REMARK    2  A    between atoms: N3_10  and  C4_11 
REMARK    3  A    between atoms: C6_15  and  O2_16 
REMARK    4  A    between atoms: N6_20  and  C8_21 
REMARK    5  A    between atoms: C8_21  and  C9_22 
REMARK    6  A    between atoms: C9_22  and  O4_23 
REMARK    7  A    between atoms: C9_22  and  C10_25 
REMARK    8  A    between atoms: C10_25  and  O5_26 
REMARK    9  A    between atoms: N7_29  and  N8_30 
ROOT
HETATM    1  C1  UNL     1      21.680  29.389  20.911  1.00  0.00     0.699 A 
HETATM    2  N2  UNL     1      21.063  30.488  21.366  1.00  0.00    -0.181 N 
ATOM      3  H2  UNL     1      20.523  31.144  20.801  1.00  0.00     0.184 HD
HETATM    4  C2  UNL     1      21.275  30.583  22.689  1.00  0.00     0.164 A 
HETATM    5  C3  UNL     1      20.896  31.480  23.661  1.00  0.00     0.283 A 
HETATM    6  O1  UNL     1      20.182  32.483  23.345  1.00  0.00    -0.265 OA
HETATM    7  N3  UNL     1      21.261  31.337  24.978  1.00  0.00    -0.254 N 
HETATM    8  C7  UNL     1      22.014  30.270  25.278  1.00  0.00     0.334 A 
HETATM    9  O3  UNL     1      22.351  30.136  26.481  1.00  0.00    -0.246 OA
HETATM   10  N6  UNL     1      22.425  29.342  24.367  1.00  0.00    -0.279 N 
HETATM   11  C11 UNL     1      22.055  29.503  23.079  1.00  0.00     0.184 A 
HETATM   12  N7  UNL     1      22.270  28.806  21.942  1.00  0.00    -0.074 N 
ENDROOT
BRANCH   7  13
HETATM   13  C4  UNL     1      20.832  32.294  25.890  1.00  0.00     0.160 C 
HETATM   14  C5  UNL     1      20.319  31.865  27.234  1.00  0.00     0.160 C 
HETATM   15  N4  UNL     1      19.972  33.223  27.726  1.00  0.00    -0.144 NA
HETATM   16  N5  UNL     1      21.094  33.992  27.416  1.00  0.00    -0.114 NA
HETATM   17  C6  UNL     1      21.788  33.382  26.305  1.00  0.00     0.251 C 
BRANCH  17  18
HETATM   18  O2  UNL     1      23.043  32.955  26.647  1.00  0.00    -0.376 OA
ATOM     19  H2  UNL     1      23.495  33.498  27.283  1.00  0.00     0.211 HD
ENDBRANCH  17  18
ENDBRANCH   7  13
BRANCH  10  20
HETATM   20  C8  UNL     1      23.229  28.230  24.779  1.00  0.00     0.169 C 
BRANCH  20  21
HETATM   21  C9  UNL     1      24.714  28.523  24.805  1.00  0.00     0.160 C 
BRANCH  21  22
HETATM   22  O4  UNL     1      25.327  27.861  23.735  1.00  0.00    -0.392 OA
ATOM     23  H4  UNL     1      25.468  26.952  23.973  1.00  0.00     0.210 HD
ENDBRANCH  21  22
BRANCH  21  24
HETATM   24  C10 UNL     1      25.253  27.926  26.099  1.00  0.00     0.197 C 
BRANCH  24  25
HETATM   25  O5  UNL     1      24.227  27.975  27.040  1.00  0.00    -0.398 OA
ATOM     26  H5  UNL     1      24.474  27.408  27.760  1.00  0.00     0.209 HD
ENDBRANCH  24  25
ENDBRANCH  21  24
ENDBRANCH  20  21
ENDBRANCH  10  20
BRANCH   1  27
HETATM   27  N1  UNL     1      21.651  29.031  19.655  1.00  0.00    -0.233 N 
ATOM     28  H12 UNL     1      22.223  29.352  18.874  1.00  0.00     0.174 HD
ATOM     29  H11 UNL     1      20.998  28.335  19.294  1.00  0.00     0.174 HD
ENDBRANCH   1  27
BRANCH  12  30
HETATM   30  N8  UNL     1      23.011  27.637  21.863  1.00  0.00    -0.322 N 
ATOM     31  H82 UNL     1      23.605  27.277  22.609  1.00  0.00     0.178 HD
ATOM     32  H81 UNL     1      23.034  27.023  21.049  1.00  0.00     0.178 HD
ENDBRANCH  12  30
TORSDOF 9
ENDMDL
MODEL 4
REMARK VINA RESULT: -5.167993198      1.561      2.034
REMARK  9 active torsions:
REMARK  status: ('A' for Active; 'I' for Inactive)
REMARK    1  A    between atoms: N1_1  and  C1_4 
REMARK    2  A    between atoms: N3_10  and  C4_11 
REMARK    3  A    between atoms: C6_15  and  O2_16 
REMARK    4  A    between atoms: N6_20  and  C8_21 
REMARK    5  A    between atoms: C8_21  and  C9_22 
REMARK    6  A    between atoms: C9_22  and  O4_23 
REMARK    7  A    between atoms: C9_22  and  C10_25 
REMARK    8  A    between atoms: C10_25  and  O5_26 
REMARK    9  A    between atoms: N7_29  and  N8_30 
ROOT
HETATM    1  C1  UNL     1      22.936  27.486  25.609  1.00  0.00     0.699 A 
HETATM    2  N2  UNL     1      22.247  28.340  26.377  1.00  0.00    -0.181 N 
ATOM      3  H2  UNL     1      22.045  28.217  27.370  1.00  0.00     0.184 HD
HETATM    4  C2  UNL     1      21.864  29.385  25.625  1.00  0.00     0.164 A 
HETATM    5  C3  UNL     1      21.152  30.536  25.868  1.00  0.00     0.283 A 
HETATM    6  O1  UNL     1      20.706  30.762  27.037  1.00  0.00    -0.265 OA
HETATM    7  N3  UNL     1      20.895  31.465  24.889  1.00  0.00    -0.254 N 
HETATM    8  C7  UNL     1      21.377  31.196  23.668  1.00  0.00     0.334 A 
HETATM    9  O3  UNL     1      21.145  32.043  22.769  1.00  0.00    -0.246 OA
HETATM   10  N6  UNL     1      22.092  30.077  23.356  1.00  0.00    -0.279 N 
HETATM   11  C11 UNL     1      22.331  29.178  24.334  1.00  0.00     0.184 A 
HETATM   12  N7  UNL     1      22.981  27.995  24.388  1.00  0.00    -0.074 N 
ENDROOT
BRANCH   7  13
HETATM   13  C4  UNL     1      20.164  32.598  25.228  1.00  0.00     0.160 C 
HETATM   14  C5  UNL     1      18.922  32.462  26.059  1.00  0.00     0.160 C 
HETATM   15  N4  UNL     1      18.554  33.900  26.055  1.00  0.00    -0.144 NA
HETATM   16  N5  UNL     1      19.749  34.555  26.357  1.00  0.00    -0.114 NA
HETATM   17  C6  UNL     1      20.856  33.714  25.965  1.00  0.00     0.251 C 
BRANCH  17  18
HETATM   18  O2  UNL     1      21.615  33.322  27.035  1.00  0.00    -0.376 OA
ATOM     19  H2  UNL     1      22.372  33.868  27.215  1.00  0.00     0.211 HD
ENDBRANCH  17  18
ENDBRANCH   7  13
BRANCH  10  20
HETATM   20  C8  UNL     1      22.570  29.874  22.021  1.00  0.00     0.169 C 
BRANCH  20  21
HETATM   21  C9  UNL     1      21.597  29.134  21.127  1.00  0.00     0.160 C 
BRANCH  21  22
HETATM   22  O4  UNL     1      22.143  27.891  20.790  1.00  0.00    -0.392 OA
ATOM     23  H4  UNL     1      21.451  27.239  20.787  1.00  0.00     0.210 HD
ENDBRANCH  21  22
BRANCH  21  24
HETATM   24  C10 UNL     1      21.471  29.956  19.850  1.00  0.00     0.197 C 
BRANCH  24  25
HETATM   25  O5  UNL     1      21.906  31.247  20.139  1.00  0.00    -0.398 OA
ATOM     26  H5  UNL     1      22.812  31.186  20.417  1.00  0.00     0.209 HD
ENDBRANCH  24  25
ENDBRANCH  21  24
ENDBRANCH  20  21
ENDBRANCH  10  20
BRANCH   1  27
HETATM   27  N1  UNL     1      23.438  26.371  26.066  1.00  0.00    -0.233 N 
ATOM     28  H12 UNL     1      23.788  26.148  26.998  1.00  0.00     0.174 HD
ATOM     29  H11 UNL     1      23.543  25.536  25.490  1.00  0.00     0.174 HD
ENDBRANCH   1  27
BRANCH  12  30
HETATM   30  N8  UNL     1      23.611  27.393  23.311  1.00  0.00    -0.322 N 
ATOM     31  H82 UNL     1      23.951  26.431  23.302  1.00  0.00     0.178 HD
ATOM     32  H81 UNL     1      23.797  27.854  22.420  1.00  0.00     0.178 HD
ENDBRANCH  12  30
TORSDOF 9
ENDMDL
MODEL 5
REMARK VINA RESULT: -5.115200455      2.600      3.912
REMARK  9 active torsions:
REMARK  status: ('A' for Active; 'I' for Inactive)
REMARK    1  A    between atoms: N1_1  and  C1_4 
REMARK    2  A    between atoms: N3_10  and  C4_11 
REMARK    3  A    between atoms: C6_15  and  O2_16 
REMARK    4  A    between atoms: N6_20  and  C8_21 
REMARK    5  A    between atoms: C8_21  and  C9_22 
REMARK    6  A    between atoms: C9_22  and  O4_23 
REMARK    7  A    between atoms: C9_22  and  C10_25 
REMARK    8  A    between atoms: C10_25  and  O5_26 
REMARK    9  A    between atoms: N7_29  and  N8_30 
ROOT
HETATM    1  C1  UNL     1      21.701  29.728  21.266  1.00  0.00     0.699 A 
HETATM    2  N2  UNL     1      20.821  30.590  21.793  1.00  0.00    -0.181 N 
ATOM      3  H2  UNL     1      19.971  30.924  21.339  1.00  0.00     0.184 HD
HETATM    4  C2  UNL     1      21.245  30.942  23.019  1.00  0.00     0.164 A 
HETATM    5  C3  UNL     1      20.761  31.775  24.001  1.00  0.00     0.283 A 
HETATM    6  O1  UNL     1      19.674  32.404  23.810  1.00  0.00    -0.265 OA
HETATM    7  N3  UNL     1      21.413  31.960  25.196  1.00  0.00    -0.254 N 
HETATM    8  C7  UNL     1      22.557  31.284  25.366  1.00  0.00     0.334 A 
HETATM    9  O3  UNL     1      23.156  31.450  26.457  1.00  0.00    -0.246 OA
HETATM   10  N6  UNL     1      23.093  30.441  24.437  1.00  0.00    -0.279 N 
HETATM   11  C11 UNL     1      22.436  30.275  23.270  1.00  0.00     0.184 A 
HETATM   12  N7  UNL     1      22.663  29.546  22.156  1.00  0.00    -0.074 N 
ENDROOT
BRANCH   7  13
HETATM   13  C4  UNL     1      20.849  32.823  26.129  1.00  0.00     0.160 C 
HETATM   14  C5  UNL     1      20.698  32.382  27.556  1.00  0.00     0.160 C 
HETATM   15  N4  UNL     1      20.025  33.611  28.046  1.00  0.00    -0.144 NA
HETATM   16  N5  UNL     1      20.797  34.650  27.521  1.00  0.00    -0.114 NA
HETATM   17  C6  UNL     1      21.472  34.178  26.334  1.00  0.00     0.251 C 
BRANCH  17  18
HETATM   18  O2  UNL     1      22.834  34.177  26.477  1.00  0.00    -0.376 OA
ATOM     19  H2  UNL     1      23.152  33.863  27.315  1.00  0.00     0.211 HD
ENDBRANCH  17  18
ENDBRANCH   7  13
BRANCH  10  20
HETATM   20  C8  UNL     1      24.323  29.757  24.705  1.00  0.00     0.169 C 
BRANCH  20  21
HETATM   21  C9  UNL     1      25.556  30.619  24.527  1.00  0.00     0.160 C 
BRANCH  21  22
HETATM   22  O4  UNL     1      25.199  31.788  23.846  1.00  0.00    -0.392 OA
ATOM     23  H4  UNL     1      25.730  32.508  24.167  1.00  0.00     0.210 HD
ENDBRANCH  21  22
BRANCH  21  24
HETATM   24  C10 UNL     1      26.511  29.830  23.639  1.00  0.00     0.197 C 
BRANCH  24  25
HETATM   25  O5  UNL     1      26.268  30.212  22.322  1.00  0.00    -0.398 OA
ATOM     26  H5  UNL     1      27.102  30.449  21.936  1.00  0.00     0.209 HD
ENDBRANCH  24  25
ENDBRANCH  21  24
ENDBRANCH  20  21
ENDBRANCH  10  20
BRANCH   1  27
HETATM   27  N1  UNL     1      21.555  29.208  20.077  1.00  0.00    -0.233 N 
ATOM     28  H12 UNL     1      21.468  28.230  19.800  1.00  0.00     0.174 HD
ATOM     29  H11 UNL     1      21.509  29.774  19.229  1.00  0.00     0.174 HD
ENDBRANCH   1  27
BRANCH  12  30
HETATM   30  N8  UNL     1      23.758  28.716  21.967  1.00  0.00    -0.322 N 
ATOM     31  H82 UNL     1      23.814  27.749  22.285  1.00  0.00     0.178 HD
ATOM     32  H81 UNL     1      24.616  28.994  21.490  1.00  0.00     0.178 HD
ENDBRANCH  12  30
TORSDOF 9
ENDMDL
