MODEL 1
REMARK VINA RESULT: -5.905014254      0.000      0.000
REMARK  7 active torsions:
REMARK  status: ('A' for Active; 'I' for Inactive)
REMARK    1  A    between atoms: C2_4  and  O1_5 
REMARK    2  A    between atoms: C3_8  and  N3_9 
REMARK    3  A    between atoms: C5_11  and  C6_12 
REMARK    4  A    between atoms: C7_15  and  N5_16 
REMARK    5  A    between atoms: N5_16  and  O4_18 
REMARK    6  A    between atoms: O4_18  and  C8_19 
REMARK    7  A    between atoms: C10_25  and  O6_26 
ROOT
HETATM    1  N3  UNL     1      18.890  33.979  26.714  1.00  0.00    -0.257 N 
HETATM    2  C4  UNL     1      19.195  32.869  27.409  1.00  0.00     0.135 A 
HETATM    3  C5  UNL     1      19.526  31.890  26.497  1.00  0.00     0.093 A 
HETATM    4  C7  UNL     1      19.411  32.452  25.219  1.00  0.00     0.157 A 
HETATM    5  N8  UNL     1      19.026  33.703  25.427  1.00  0.00    -0.278 N 
ATOM      6  H8  UNL     1      18.854  34.377  24.680  1.00  0.00     0.189 HD
ENDROOT
BRANCH   4   7
HETATM    7  N5  UNL     1      19.646  31.813  24.154  1.00  0.00    -0.247 N 
ATOM      8  H5  UNL     1      19.201  30.897  24.106  1.00  0.00     0.196 HD
BRANCH   7   9
HETATM    9  O4  UNL     1      20.375  32.127  23.081  1.00  0.00    -0.260 OA
BRANCH   9  10
HETATM   10  C8  UNL     1      21.572  31.532  22.664  1.00  0.00     0.291 C 
HETATM   11  C9  UNL     1      21.388  30.298  21.866  1.00  0.00     0.268 C 
HETATM   12  O5  UNL     1      20.737  30.181  20.801  1.00  0.00    -0.269 OA
HETATM   13  N6  UNL     1      22.108  29.273  22.567  1.00  0.00    -0.269 N 
HETATM   14  N7  UNL     1      22.086  29.634  23.915  1.00  0.00    -0.103 NA
ATOM     15  H6  UNL     1      22.546  28.446  22.161  1.00  0.00     0.185 HD
HETATM   16  C10 UNL     1      22.392  31.035  23.851  1.00  0.00     0.272 C 
BRANCH  16  17
HETATM   17  O6  UNL     1      23.741  31.199  23.570  1.00  0.00    -0.375 OA
ATOM     18  H6  UNL     1      24.242  30.571  24.078  1.00  0.00     0.211 HD
ENDBRANCH  16  17
ENDBRANCH   9  10
ENDBRANCH   7   9
ENDBRANCH   4   7
BRANCH   3  19
HETATM   19  C6  UNL     1      19.930  30.509  26.782  1.00  0.00     0.270 C 
HETATM   20  N4  UNL     1      21.193  30.226  27.356  1.00  0.00    -0.057 NA
HETATM   21  O3  UNL     1      19.148  29.574  26.515  1.00  0.00    -0.271 OA
ENDBRANCH   3  19
BRANCH   1  22
HETATM   22  C3  UNL     1      18.493  35.219  27.311  1.00  0.00     0.344 C 
HETATM   23  N1  UNL     1      17.336  35.805  26.670  1.00  0.00    -0.187 NA
HETATM   24  C1  UNL     1      16.124  35.071  26.895  1.00  0.00     0.137 C 
HETATM   25  N2  UNL     1      17.333  37.084  27.187  1.00  0.00    -0.102 NA
HETATM   26  C2  UNL     1      18.725  37.369  27.515  1.00  0.00     0.376 C 
HETATM   27  O2  UNL     1      19.449  36.232  27.109  1.00  0.00    -0.305 OA
BRANCH  26  28
HETATM   28  O1  UNL     1      18.897  37.486  28.903  1.00  0.00    -0.357 OA
ATOM     29  H1  UNL     1      19.748  37.156  29.167  1.00  0.00     0.214 HD
ENDBRANCH  26  28
ENDBRANCH   1  22
TORSDOF 7
ENDMDL
MODEL 2
REMARK VINA RESULT: -5.845939573      2.232      4.457
REMARK  7 active torsions:
REMARK  status: ('A' for Active; 'I' for Inactive)
REMARK    1  A    between atoms: C2_4  and  O1_5 
REMARK    2  A    between atoms: C3_8  and  N3_9 
REMARK    3  A    between atoms: C5_11  and  C6_12 
REMARK    4  A    between atoms: C7_15  and  N5_16 
REMARK    5  A    between atoms: N5_16  and  O4_18 
REMARK    6  A    between atoms: O4_18  and  C8_19 
REMARK    7  A    between atoms: C10_25  and  O6_26 
ROOT
HETATM    1  N3  UNL     1      19.257  32.811  25.625  1.00  0.00    -0.257 N 
HETATM    2  C4  UNL     1      19.678  32.693  24.354  1.00  0.00     0.135 A 
HETATM    3  C5  UNL     1      20.546  31.623  24.305  1.00  0.00     0.093 A 
HETATM    4  C7  UNL     1      20.635  31.096  25.599  1.00  0.00     0.157 A 
HETATM    5  N8  UNL     1      19.837  31.857  26.336  1.00  0.00    -0.278 N 
ATOM      6  H8  UNL     1      19.688  31.722  27.336  1.00  0.00     0.189 HD
ENDROOT
BRANCH   4   7
HETATM    7  N5  UNL     1      21.355  30.100  25.898  1.00  0.00    -0.247 N 
ATOM      8  H5  UNL     1      22.354  30.300  25.937  1.00  0.00     0.196 HD
BRANCH   7   9
HETATM    9  O4  UNL     1      21.036  28.833  26.171  1.00  0.00    -0.260 OA
BRANCH   9  10
HETATM   10  C8  UNL     1      20.588  28.314  27.392  1.00  0.00     0.291 C 
HETATM   11  C9  UNL     1      19.140  28.506  27.635  1.00  0.00     0.268 C 
HETATM   12  O5  UNL     1      18.197  28.117  26.906  1.00  0.00    -0.269 OA
HETATM   13  N6  UNL     1      19.047  29.227  28.873  1.00  0.00    -0.269 N 
HETATM   14  N7  UNL     1      20.212  29.990  28.967  1.00  0.00    -0.103 NA
ATOM     15  H6  UNL     1      18.284  29.189  29.548  1.00  0.00     0.185 HD
HETATM   16  C10 UNL     1      21.218  29.045  28.573  1.00  0.00     0.272 C 
BRANCH  16  17
HETATM   17  O6  UNL     1      21.428  28.142  29.606  1.00  0.00    -0.375 OA
ATOM     18  H6  UNL     1      21.860  28.588  30.325  1.00  0.00     0.211 HD
ENDBRANCH  16  17
ENDBRANCH   9  10
ENDBRANCH   7   9
ENDBRANCH   4   7
BRANCH   3  19
HETATM   19  C6  UNL     1      21.259  31.110  23.130  1.00  0.00     0.270 C 
HETATM   20  N4  UNL     1      21.719  31.989  22.119  1.00  0.00    -0.057 NA
HETATM   21  O3  UNL     1      21.460  29.883  23.022  1.00  0.00    -0.271 OA
ENDBRANCH   3  19
BRANCH   1  22
HETATM   22  C3  UNL     1      18.340  33.812  26.080  1.00  0.00     0.344 C 
HETATM   23  N1  UNL     1      18.859  34.589  27.184  1.00  0.00    -0.187 NA
HETATM   24  C1  UNL     1      19.942  35.454  26.815  1.00  0.00     0.137 C 
HETATM   25  N2  UNL     1      17.733  35.245  27.635  1.00  0.00    -0.102 NA
HETATM   26  C2  UNL     1      16.615  34.382  27.270  1.00  0.00     0.376 C 
HETATM   27  O2  UNL     1      17.193  33.248  26.669  1.00  0.00    -0.305 OA
BRANCH  26  28
HETATM   28  O1  UNL     1      15.810  34.993  26.295  1.00  0.00    -0.357 OA
ATOM     29  H1  UNL     1      14.900  35.001  26.565  1.00  0.00     0.214 HD
ENDBRANCH  26  28
ENDBRANCH   1  22
TORSDOF 7
ENDMDL
MODEL 3
REMARK VINA RESULT: -5.812162743      3.353      8.549
REMARK  7 active torsions:
REMARK  status: ('A' for Active; 'I' for Inactive)
REMARK    1  A    between atoms: C2_4  and  O1_5 
REMARK    2  A    between atoms: C3_8  and  N3_9 
REMARK    3  A    between atoms: C5_11  and  C6_12 
REMARK    4  A    between atoms: C7_15  and  N5_16 
REMARK    5  A    between atoms: N5_16  and  O4_18 
REMARK    6  A    between atoms: O4_18  and  C8_19 
REMARK    7  A    between atoms: C10_25  and  O6_26 
ROOT
HETATM    1  N3  UNL     1      23.092  27.850  23.393  1.00  0.00    -0.257 N 
HETATM    2  C4  UNL     1      22.676  28.525  22.307  1.00  0.00     0.135 A 
HETATM    3  C5  UNL     1      22.013  29.650  22.750  1.00  0.00     0.093 A 
HETATM    4  C7  UNL     1      22.045  29.631  24.149  1.00  0.00     0.157 A 
HETATM    5  N8  UNL     1      22.706  28.526  24.463  1.00  0.00    -0.278 N 
ATOM      6  H8  UNL     1      22.896  28.230  25.421  1.00  0.00     0.189 HD
ENDROOT
BRANCH   4   7
HETATM    7  N5  UNL     1      21.521  30.529  24.870  1.00  0.00    -0.247 N 
ATOM      8  H5  UNL     1      22.181  31.220  25.226  1.00  0.00     0.196 HD
BRANCH   7   9
HETATM    9  O4  UNL     1      20.257  30.730  25.246  1.00  0.00    -0.260 OA
BRANCH   9  10
HETATM   10  C8  UNL     1      19.771  31.741  26.084  1.00  0.00     0.291 C 
HETATM   11  C9  UNL     1      19.044  32.818  25.373  1.00  0.00     0.268 C 
HETATM   12  O5  UNL     1      18.040  32.686  24.633  1.00  0.00    -0.269 OA
HETATM   13  N6  UNL     1      19.728  34.034  25.709  1.00  0.00    -0.269 N 
HETATM   14  N7  UNL     1      21.056  33.680  25.949  1.00  0.00    -0.103 NA
ATOM     15  H6  UNL     1      19.324  34.969  25.762  1.00  0.00     0.185 HD
HETATM   16  C10 UNL     1      20.909  32.503  26.756  1.00  0.00     0.272 C 
BRANCH  16  17
HETATM   17  O6  UNL     1      20.514  32.871  28.035  1.00  0.00    -0.375 OA
ATOM     18  H6  UNL     1      20.663  33.802  28.150  1.00  0.00     0.211 HD
ENDBRANCH  16  17
ENDBRANCH   9  10
ENDBRANCH   7   9
ENDBRANCH   4   7
BRANCH   3  19
HETATM   19  C6  UNL     1      21.382  30.690  21.930  1.00  0.00     0.270 C 
HETATM   20  N4  UNL     1      21.553  32.062  22.241  1.00  0.00    -0.057 NA
HETATM   21  O3  UNL     1      20.687  30.361  20.948  1.00  0.00    -0.271 OA
ENDBRANCH   3  19
BRANCH   1  22
HETATM   22  C3  UNL     1      23.822  26.619  23.345  1.00  0.00     0.344 C 
HETATM   23  N1  UNL     1      25.083  26.741  22.646  1.00  0.00    -0.187 NA
HETATM   24  C1  UNL     1      26.053  27.530  23.350  1.00  0.00     0.137 C 
HETATM   25  N2  UNL     1      25.444  25.423  22.463  1.00  0.00    -0.102 NA
HETATM   26  C2  UNL     1      24.187  24.682  22.435  1.00  0.00     0.376 C 
HETATM   27  O2  UNL     1      23.174  25.651  22.556  1.00  0.00    -0.305 OA
BRANCH  26  28
HETATM   28  O1  UNL     1      24.080  23.839  23.552  1.00  0.00    -0.357 OA
ATOM     29  H1  UNL     1      24.074  24.344  24.357  1.00  0.00     0.214 HD
ENDBRANCH  26  28
ENDBRANCH   1  22
TORSDOF 7
ENDMDL
MODEL 4
REMARK VINA RESULT: -5.797060138      3.151      4.008
REMARK  7 active torsions:
REMARK  status: ('A' for Active; 'I' for Inactive)
REMARK    1  A    between atoms: C2_4  and  O1_5 
REMARK    2  A    between atoms: C3_8  and  N3_9 
REMARK    3  A    between atoms: C5_11  and  C6_12 
REMARK    4  A    between atoms: C7_15  and  N5_16 
REMARK    5  A    between atoms: N5_16  and  O4_18 
REMARK    6  A    between atoms: O4_18  and  C8_19 
REMARK    7  A    between atoms: C10_25  and  O6_26 
ROOT
HETATM    1  N3  UNL     1      22.122  33.687  26.479  1.00  0.00    -0.257 N 
HETATM    2  C4  UNL     1      20.842  34.098  26.445  1.00  0.00     0.135 A 
HETATM    3  C5  UNL     1      20.114  33.125  25.794  1.00  0.00     0.093 A 
HETATM    4  C7  UNL     1      21.004  32.105  25.435  1.00  0.00     0.157 A 
HETATM    5  N8  UNL     1      22.186  32.510  25.877  1.00  0.00    -0.278 N 
ATOM      6  H8  UNL     1      23.048  31.975  25.765  1.00  0.00     0.189 HD
ENDROOT
BRANCH   4   7
HETATM    7  N5  UNL     1      20.651  31.058  24.819  1.00  0.00    -0.247 N 
ATOM      8  H5  UNL     1      19.642  30.930  24.751  1.00  0.00     0.196 HD
BRANCH   7   9
HETATM    9  O4  UNL     1      21.369  30.092  24.244  1.00  0.00    -0.260 OA
BRANCH   9  10
HETATM   10  C8  UNL     1      22.264  30.221  23.175  1.00  0.00     0.291 C 
HETATM   11  C9  UNL     1      21.765  31.067  22.066  1.00  0.00     0.268 C 
HETATM   12  O5  UNL     1      21.388  32.260  22.142  1.00  0.00    -0.269 OA
HETATM   13  N6  UNL     1      21.805  30.236  20.897  1.00  0.00    -0.269 N 
HETATM   14  N7  UNL     1      21.631  28.926  21.345  1.00  0.00    -0.103 NA
ATOM     15  H6  UNL     1      21.934  30.542  19.933  1.00  0.00     0.185 HD
HETATM   16  C10 UNL     1      22.503  28.882  22.483  1.00  0.00     0.272 C 
BRANCH  16  17
HETATM   17  O6  UNL     1      23.820  28.825  22.050  1.00  0.00    -0.375 OA
ATOM     18  H6  UNL     1      24.151  27.943  22.179  1.00  0.00     0.211 HD
ENDBRANCH  16  17
ENDBRANCH   9  10
ENDBRANCH   7   9
ENDBRANCH   4   7
BRANCH   3  19
HETATM   19  C6  UNL     1      18.674  33.130  25.516  1.00  0.00     0.270 C 
HETATM   20  N4  UNL     1      17.737  33.411  26.541  1.00  0.00    -0.057 NA
HETATM   21  O3  UNL     1      18.271  32.883  24.361  1.00  0.00    -0.271 OA
ENDBRANCH   3  19
BRANCH   1  22
HETATM   22  C3  UNL     1      23.191  34.429  27.075  1.00  0.00     0.344 C 
HETATM   23  N1  UNL     1      23.048  34.567  28.508  1.00  0.00    -0.187 NA
HETATM   24  C1  UNL     1      23.230  33.336  29.222  1.00  0.00     0.137 C 
HETATM   25  N2  UNL     1      23.981  35.540  28.802  1.00  0.00    -0.102 NA
HETATM   26  C2  UNL     1      24.105  36.332  27.584  1.00  0.00     0.376 C 
HETATM   27  O2  UNL     1      23.182  35.779  26.677  1.00  0.00    -0.305 OA
BRANCH  26  28
HETATM   28  O1  UNL     1      25.379  36.176  27.014  1.00  0.00    -0.357 OA
ATOM     29  H1  UNL     1      25.366  36.403  26.092  1.00  0.00     0.214 HD
ENDBRANCH  26  28
ENDBRANCH   1  22
TORSDOF 7
ENDMDL
MODEL 5
REMARK VINA RESULT: -5.793832696      2.184      6.862
REMARK  7 active torsions:
REMARK  status: ('A' for Active; 'I' for Inactive)
REMARK    1  A    between atoms: C2_4  and  O1_5 
REMARK    2  A    between atoms: C3_8  and  N3_9 
REMARK    3  A    between atoms: C5_11  and  C6_12 
REMARK    4  A    between atoms: C7_15  and  N5_16 
REMARK    5  A    between atoms: N5_16  and  O4_18 
REMARK    6  A    between atoms: O4_18  and  C8_19 
REMARK    7  A    between atoms: C10_25  and  O6_26 
ROOT
HETATM    1  N3  UNL     1      20.040  32.876  25.524  1.00  0.00    -0.257 N 
HETATM    2  C4  UNL     1      18.701  32.991  25.502  1.00  0.00     0.135 A 
HETATM    3  C5  UNL     1      18.351  33.916  26.462  1.00  0.00     0.093 A 
HETATM    4  C7  UNL     1      19.533  34.360  27.067  1.00  0.00     0.157 A 
HETATM    5  N8  UNL     1      20.503  33.694  26.455  1.00  0.00    -0.278 N 
ATOM      6  H8  UNL     1      21.493  33.801  26.678  1.00  0.00     0.189 HD
ENDROOT
BRANCH   4   7
HETATM    7  N5  UNL     1      19.561  35.218  27.995  1.00  0.00    -0.247 N 
ATOM      8  H5  UNL     1      18.709  35.259  28.555  1.00  0.00     0.196 HD
BRANCH   7   9
HETATM    9  O4  UNL     1      20.508  36.080  28.370  1.00  0.00    -0.260 OA
BRANCH   9  10
HETATM   10  C8  UNL     1      20.718  37.375  27.883  1.00  0.00     0.291 C 
HETATM   11  C9  UNL     1      19.525  37.986  27.252  1.00  0.00     0.268 C 
HETATM   12  O5  UNL     1      18.402  38.162  27.781  1.00  0.00    -0.269 OA
HETATM   13  N6  UNL     1      19.925  38.328  25.917  1.00  0.00    -0.269 N 
HETATM   14  N7  UNL     1      20.917  37.413  25.562  1.00  0.00    -0.103 NA
ATOM     15  H6  UNL     1      19.558  39.087  25.344  1.00  0.00     0.185 HD
HETATM   16  C10 UNL     1      21.732  37.385  26.743  1.00  0.00     0.272 C 
BRANCH  16  17
HETATM   17  O6  UNL     1      22.481  38.551  26.812  1.00  0.00    -0.375 OA
ATOM     18  H6  UNL     1      23.290  38.373  27.277  1.00  0.00     0.211 HD
ENDBRANCH  16  17
ENDBRANCH   9  10
ENDBRANCH   7   9
ENDBRANCH   4   7
BRANCH   3  19
HETATM   19  C6  UNL     1      17.000  34.372  26.806  1.00  0.00     0.270 C 
HETATM   20  N4  UNL     1      16.550  35.661  26.429  1.00  0.00    -0.057 NA
HETATM   21  O3  UNL     1      16.240  33.613  27.441  1.00  0.00    -0.271 OA
ENDBRANCH   3  19
BRANCH   1  22
HETATM   22  C3  UNL     1      20.788  32.006  24.667  1.00  0.00     0.344 C 
HETATM   23  N1  UNL     1      22.207  32.287  24.682  1.00  0.00    -0.187 NA
HETATM   24  C1  UNL     1      22.844  31.951  25.923  1.00  0.00     0.137 C 
HETATM   25  N2  UNL     1      22.659  31.566  23.596  1.00  0.00    -0.102 NA
HETATM   26  C2  UNL     1      21.519  31.484  22.690  1.00  0.00     0.376 C 
HETATM   27  O2  UNL     1      20.490  32.219  23.308  1.00  0.00    -0.305 OA
BRANCH  26  28
HETATM   28  O1  UNL     1      21.064  30.161  22.579  1.00  0.00    -0.357 OA
ATOM     29  H1  UNL     1      20.115  30.132  22.547  1.00  0.00     0.214 HD
ENDBRANCH  26  28
ENDBRANCH   1  22
TORSDOF 7
ENDMDL
