MODEL 1
REMARK VINA RESULT: -5.168962808      0.000      0.000
REMARK  12 active torsions:
REMARK  status: ('A' for Active; 'I' for Inactive)
REMARK    1  A    between atoms: N1_1  and  C1_4 
REMARK    2  A    between atoms: C2_7  and  N3_8 
REMARK    3  A    between atoms: N3_8  and  O1_10 
REMARK    4  A    between atoms: C3_14  and  N5_15 
REMARK    5  A    between atoms: N5_15  and  O2_17 
REMARK    6  A    between atoms: O2_17  and  C4_18 
REMARK       I    between atoms: C4_18  and  N6_20 
REMARK    7  A    between atoms: N6_20  and  N7_22 
REMARK    8  A    between atoms: N9_32  and  C9_33 
REMARK    9  A    between atoms: C9_33  and  C10_34 
REMARK   10  A    between atoms: C10_34  and  O5_35 
REMARK   11  A    between atoms: C10_34  and  C11_37 
REMARK   12  A    between atoms: C11_37  and  O6_38 
ROOT
HETATM    1  C1  UNL     1      24.248  29.027  22.680  1.00  0.00     0.144 C 
HETATM    2  N2  UNL     1      23.120  29.035  21.949  1.00  0.00    -0.173 N 
ATOM      3  H2  UNL     1      23.125  28.318  21.224  1.00  0.00     0.186 HD
HETATM    4  C2  UNL     1      21.978  29.763  21.940  1.00  0.00     0.705 C 
HETATM    5  N4  UNL     1      21.347  30.500  22.891  1.00  0.00    -0.169 N 
ATOM      6  H4  UNL     1      20.503  30.940  22.527  1.00  0.00     0.186 HD
HETATM    7  C3  UNL     1      21.545  30.804  24.202  1.00  0.00     0.194 C 
HETATM    8  C5  UNL     1      22.605  30.635  25.054  1.00  0.00     0.247 C 
HETATM    9  O4  UNL     1      22.378  30.649  26.266  1.00  0.00    -0.282 OA
HETATM   10  C6  UNL     1      23.971  30.436  24.836  1.00  0.00     0.121 A 
HETATM   11  C7  UNL     1      24.620  29.717  23.816  1.00  0.00     0.109 A 
HETATM   12  N8  UNL     1      25.923  29.793  24.127  1.00  0.00    -0.347 N 
ATOM     13  H8  UNL     1      26.680  29.372  23.589  1.00  0.00     0.167 HD
HETATM   14  C8  UNL     1      26.077  30.501  25.246  1.00  0.00     0.184 A 
HETATM   15  N9  UNL     1      24.836  30.922  25.714  1.00  0.00    -0.335 N 
ENDROOT
BRANCH   7  16
HETATM   16  N5  UNL     1      20.568  31.362  24.802  1.00  0.00    -0.236 N 
ATOM     17  H5  UNL     1      20.084  30.868  25.551  1.00  0.00     0.197 HD
BRANCH  16  18
HETATM   18  O2  UNL     1      20.163  32.630  24.441  1.00  0.00    -0.178 OA
BRANCH  18  19
HETATM   19  C4  UNL     1      19.169  33.286  25.153  1.00  0.00     0.401 C 
HETATM   20  O3  UNL     1      17.997  32.852  25.048  1.00  0.00    -0.235 OA
HETATM   21  N6  UNL     1      19.461  34.412  25.976  1.00  0.00    -0.250 N 
ATOM     22  H6  UNL     1      20.418  34.758  26.056  1.00  0.00     0.191 HD
BRANCH  21  23
HETATM   23  N7  UNL     1      18.430  35.035  26.670  1.00  0.00    -0.341 N 
ATOM     24  H72 UNL     1      17.491  34.638  26.632  1.00  0.00     0.177 HD
ATOM     25  H71 UNL     1      18.627  35.880  27.206  1.00  0.00     0.177 HD
ENDBRANCH  21  23
ENDBRANCH  18  19
ENDBRANCH  16  18
ENDBRANCH   7  16
BRANCH   4  26
HETATM   26  N3  UNL     1      21.380  29.748  20.803  1.00  0.00    -0.098 N 
ATOM     27  H3  UNL     1      20.676  30.450  20.576  1.00  0.00     0.213 HD
BRANCH  26  28
HETATM   28  O1  UNL     1      21.707  28.769  19.901  1.00  0.00    -0.276 OA
ATOM     29  H1  UNL     1      21.014  28.222  19.551  1.00  0.00     0.245 HD
ENDBRANCH  26  28
ENDBRANCH   4  26
BRANCH  15  30
HETATM   30  C9  UNL     1      24.672  31.755  26.851  1.00  0.00     0.164 C 
BRANCH  30  31
HETATM   31  C10 UNL     1      24.784  33.200  26.428  1.00  0.00     0.160 C 
BRANCH  31  32
HETATM   32  O5  UNL     1      25.938  33.822  26.931  1.00  0.00    -0.392 OA
ATOM     33  H5  UNL     1      26.712  33.277  26.850  1.00  0.00     0.210 HD
ENDBRANCH  31  32
BRANCH  31  34
HETATM   34  C11 UNL     1      23.645  34.108  26.770  1.00  0.00     0.197 C 
BRANCH  34  35
HETATM   35  O6  UNL     1      22.461  33.661  26.195  1.00  0.00    -0.398 OA
ATOM     36  H6  UNL     1      22.044  33.004  26.740  1.00  0.00     0.209 HD
ENDBRANCH  34  35
ENDBRANCH  31  34
ENDBRANCH  30  31
ENDBRANCH  15  30
BRANCH   1  37
HETATM   37  N1  UNL     1      25.167  28.231  22.254  1.00  0.00    -0.383 N 
ATOM     38  H12 UNL     1      25.110  28.061  21.250  1.00  0.00     0.157 HD
ATOM     39  H11 UNL     1      25.809  27.891  22.970  1.00  0.00     0.157 HD
ENDBRANCH   1  37
TORSDOF 12
ENDMDL
MODEL 2
REMARK VINA RESULT: -5.016916003      2.503      4.900
REMARK  12 active torsions:
REMARK  status: ('A' for Active; 'I' for Inactive)
REMARK    1  A    between atoms: N1_1  and  C1_4 
REMARK    2  A    between atoms: C2_7  and  N3_8 
REMARK    3  A    between atoms: N3_8  and  O1_10 
REMARK    4  A    between atoms: C3_14  and  N5_15 
REMARK    5  A    between atoms: N5_15  and  O2_17 
REMARK    6  A    between atoms: O2_17  and  C4_18 
REMARK       I    between atoms: C4_18  and  N6_20 
REMARK    7  A    between atoms: N6_20  and  N7_22 
REMARK    8  A    between atoms: N9_32  and  C9_33 
REMARK    9  A    between atoms: C9_33  and  C10_34 
REMARK   10  A    between atoms: C10_34  and  O5_35 
REMARK   11  A    between atoms: C10_34  and  C11_37 
REMARK   12  A    between atoms: C11_37  and  O6_38 
ROOT
HETATM    1  C1  UNL     1      22.149  27.756  27.015  1.00  0.00     0.144 C 
HETATM    2  N2  UNL     1      21.443  28.578  27.810  1.00  0.00    -0.173 N 
ATOM      3  H2  UNL     1      21.434  28.263  28.780  1.00  0.00     0.186 HD
HETATM    4  C2  UNL     1      20.740  29.723  27.637  1.00  0.00     0.705 C 
HETATM    5  N4  UNL     1      20.788  30.701  26.697  1.00  0.00    -0.169 N 
ATOM      6  H4  UNL     1      20.085  31.420  26.866  1.00  0.00     0.186 HD
HETATM    7  C3  UNL     1      21.527  30.974  25.588  1.00  0.00     0.194 C 
HETATM    8  C5  UNL     1      22.419  30.239  24.852  1.00  0.00     0.247 C 
HETATM    9  O4  UNL     1      23.219  30.850  24.139  1.00  0.00    -0.282 OA
HETATM   10  C6  UNL     1      22.634  28.865  24.725  1.00  0.00     0.121 A 
HETATM   11  C7  UNL     1      22.528  27.847  25.691  1.00  0.00     0.109 A 
HETATM   12  N8  UNL     1      22.911  26.733  25.051  1.00  0.00    -0.347 N 
ATOM     13  H8  UNL     1      22.954  25.803  25.466  1.00  0.00     0.167 HD
HETATM   14  C8  UNL     1      23.229  27.026  23.789  1.00  0.00     0.184 A 
HETATM   15  N9  UNL     1      23.056  28.388  23.562  1.00  0.00    -0.335 N 
ENDROOT
BRANCH   7  16
HETATM   16  N5  UNL     1      21.395  32.145  25.101  1.00  0.00    -0.236 N 
ATOM     17  H5  UNL     1      22.134  32.836  25.234  1.00  0.00     0.197 HD
BRANCH  16  18
HETATM   18  O2  UNL     1      20.259  32.482  24.397  1.00  0.00    -0.178 OA
BRANCH  18  19
HETATM   19  C4  UNL     1      19.209  33.143  25.018  1.00  0.00     0.401 C 
HETATM   20  O3  UNL     1      18.046  32.732  24.787  1.00  0.00    -0.235 OA
HETATM   21  N6  UNL     1      19.435  34.249  25.889  1.00  0.00    -0.250 N 
ATOM     22  H6  UNL     1      20.384  34.576  26.071  1.00  0.00     0.191 HD
BRANCH  21  23
HETATM   23  N7  UNL     1      18.348  34.877  26.487  1.00  0.00    -0.341 N 
ATOM     24  H72 UNL     1      17.547  35.144  25.914  1.00  0.00     0.177 HD
ATOM     25  H71 UNL     1      18.369  35.063  27.490  1.00  0.00     0.177 HD
ENDBRANCH  21  23
ENDBRANCH  18  19
ENDBRANCH  16  18
ENDBRANCH   7  16
BRANCH   4  26
HETATM   26  N3  UNL     1      19.854  29.911  28.549  1.00  0.00    -0.098 N 
ATOM     27  H3  UNL     1      19.956  29.483  29.470  1.00  0.00     0.213 HD
BRANCH  26  28
HETATM   28  O1  UNL     1      18.770  30.699  28.261  1.00  0.00    -0.276 OA
ATOM     29  H1  UNL     1      18.061  30.329  27.749  1.00  0.00     0.245 HD
ENDBRANCH  26  28
ENDBRANCH   4  26
BRANCH  15  30
HETATM   30  C9  UNL     1      23.245  28.999  22.296  1.00  0.00     0.164 C 
BRANCH  30  31
HETATM   31  C10 UNL     1      21.943  28.974  21.533  1.00  0.00     0.160 C 
BRANCH  31  32
HETATM   32  O5  UNL     1      21.943  28.027  20.496  1.00  0.00    -0.392 OA
ATOM     33  H5  UNL     1      21.066  27.776  20.229  1.00  0.00     0.210 HD
ENDBRANCH  31  32
BRANCH  31  34
HETATM   34  C11 UNL     1      21.481  30.256  20.917  1.00  0.00     0.197 C 
BRANCH  34  35
HETATM   35  O6  UNL     1      21.446  31.277  21.860  1.00  0.00    -0.398 OA
ATOM     36  H6  UNL     1      22.065  31.964  21.641  1.00  0.00     0.209 HD
ENDBRANCH  34  35
ENDBRANCH  31  34
ENDBRANCH  30  31
ENDBRANCH  15  30
BRANCH   1  37
HETATM   37  N1  UNL     1      22.558  26.672  27.578  1.00  0.00    -0.383 N 
ATOM     38  H12 UNL     1      23.536  26.717  27.862  1.00  0.00     0.157 HD
ATOM     39  H11 UNL     1      21.856  25.936  27.658  1.00  0.00     0.157 HD
ENDBRANCH   1  37
TORSDOF 12
ENDMDL
MODEL 3
REMARK VINA RESULT: -4.986136148      2.053      5.395
REMARK  12 active torsions:
REMARK  status: ('A' for Active; 'I' for Inactive)
REMARK    1  A    between atoms: N1_1  and  C1_4 
REMARK    2  A    between atoms: C2_7  and  N3_8 
REMARK    3  A    between atoms: N3_8  and  O1_10 
REMARK    4  A    between atoms: C3_14  and  N5_15 
REMARK    5  A    between atoms: N5_15  and  O2_17 
REMARK    6  A    between atoms: O2_17  and  C4_18 
REMARK       I    between atoms: C4_18  and  N6_20 
REMARK    7  A    between atoms: N6_20  and  N7_22 
REMARK    8  A    between atoms: N9_32  and  C9_33 
REMARK    9  A    between atoms: C9_33  and  C10_34 
REMARK   10  A    between atoms: C10_34  and  O5_35 
REMARK   11  A    between atoms: C10_34  and  C11_37 
REMARK   12  A    between atoms: C11_37  and  O6_38 
ROOT
HETATM    1  C1  UNL     1      24.870  33.020  26.511  1.00  0.00     0.144 C 
HETATM    2  N2  UNL     1      25.605  32.336  25.616  1.00  0.00    -0.173 N 
ATOM      3  H2  UNL     1      26.604  32.406  25.804  1.00  0.00     0.186 HD
HETATM    4  C2  UNL     1      25.341  31.577  24.527  1.00  0.00     0.705 C 
HETATM    5  N4  UNL     1      24.243  30.882  24.131  1.00  0.00    -0.169 N 
ATOM      6  H4  UNL     1      24.388  30.432  23.228  1.00  0.00     0.186 HD
HETATM    7  C3  UNL     1      23.001  30.628  24.623  1.00  0.00     0.194 C 
HETATM    8  C5  UNL     1      22.278  31.155  25.661  1.00  0.00     0.247 C 
HETATM    9  O4  UNL     1      21.349  30.484  26.116  1.00  0.00    -0.282 OA
HETATM   10  C6  UNL     1      22.370  32.361  26.361  1.00  0.00     0.121 A 
HETATM   11  C7  UNL     1      23.508  33.105  26.719  1.00  0.00     0.109 A 
HETATM   12  N8  UNL     1      23.029  34.132  27.437  1.00  0.00    -0.347 N 
ATOM     13  H8  UNL     1      23.594  34.870  27.856  1.00  0.00     0.167 HD
HETATM   14  C8  UNL     1      21.701  34.041  27.519  1.00  0.00     0.184 A 
HETATM   15  N9  UNL     1      21.261  32.912  26.834  1.00  0.00    -0.335 N 
ENDROOT
BRANCH   7  16
HETATM   16  N5  UNL     1      22.337  29.718  24.026  1.00  0.00    -0.236 N 
ATOM     17  H5  UNL     1      22.563  28.737  24.187  1.00  0.00     0.197 HD
BRANCH  16  18
HETATM   18  O2  UNL     1      21.314  30.054  23.164  1.00  0.00    -0.178 OA
BRANCH  18  19
HETATM   19  C4  UNL     1      21.543  30.162  21.800  1.00  0.00     0.401 C 
HETATM   20  O3  UNL     1      21.669  31.316  21.323  1.00  0.00    -0.235 OA
HETATM   21  N6  UNL     1      21.633  29.011  20.965  1.00  0.00    -0.250 N 
ATOM     22  H6  UNL     1      21.529  28.077  21.362  1.00  0.00     0.191 HD
BRANCH  21  23
HETATM   23  N7  UNL     1      21.863  29.173  19.604  1.00  0.00    -0.341 N 
ATOM     24  H72 UNL     1      21.491  28.486  18.948  1.00  0.00     0.177 HD
ATOM     25  H71 UNL     1      22.401  29.977  19.281  1.00  0.00     0.177 HD
ENDBRANCH  21  23
ENDBRANCH  18  19
ENDBRANCH  16  18
ENDBRANCH   7  16
BRANCH   4  26
HETATM   26  N3  UNL     1      26.332  31.505  23.712  1.00  0.00    -0.098 N 
ATOM     27  H3  UNL     1      26.581  30.618  23.272  1.00  0.00     0.213 HD
BRANCH  26  28
HETATM   28  O1  UNL     1      27.048  32.643  23.444  1.00  0.00    -0.276 OA
ATOM     29  H1  UNL     1      27.235  32.861  22.539  1.00  0.00     0.245 HD
ENDBRANCH  26  28
ENDBRANCH   4  26
BRANCH  15  30
HETATM   30  C9  UNL     1      19.891  32.577  26.679  1.00  0.00     0.164 C 
BRANCH  30  31
HETATM   31  C10 UNL     1      19.307  33.386  25.547  1.00  0.00     0.160 C 
BRANCH  31  32
HETATM   32  O5  UNL     1      18.144  34.079  25.922  1.00  0.00    -0.392 OA
ATOM     33  H5  UNL     1      17.905  33.928  26.830  1.00  0.00     0.210 HD
ENDBRANCH  31  32
BRANCH  31  34
HETATM   34  C11 UNL     1      18.962  32.658  24.287  1.00  0.00     0.197 C 
BRANCH  34  35
HETATM   35  O6  UNL     1      20.045  32.627  23.417  1.00  0.00    -0.398 OA
ATOM     36  H6  UNL     1      19.779  32.846  22.532  1.00  0.00     0.209 HD
ENDBRANCH  34  35
ENDBRANCH  31  34
ENDBRANCH  30  31
ENDBRANCH  15  30
BRANCH   1  37
HETATM   37  N1  UNL     1      25.549  33.738  27.338  1.00  0.00    -0.383 N 
ATOM     38  H12 UNL     1      26.410  33.284  27.643  1.00  0.00     0.157 HD
ATOM     39  H11 UNL     1      25.135  34.642  27.566  1.00  0.00     0.157 HD
ENDBRANCH   1  37
TORSDOF 12
ENDMDL
MODEL 4
REMARK VINA RESULT: -4.911683814      2.898      5.728
REMARK  12 active torsions:
REMARK  status: ('A' for Active; 'I' for Inactive)
REMARK    1  A    between atoms: N1_1  and  C1_4 
REMARK    2  A    between atoms: C2_7  and  N3_8 
REMARK    3  A    between atoms: N3_8  and  O1_10 
REMARK    4  A    between atoms: C3_14  and  N5_15 
REMARK    5  A    between atoms: N5_15  and  O2_17 
REMARK    6  A    between atoms: O2_17  and  C4_18 
REMARK       I    between atoms: C4_18  and  N6_20 
REMARK    7  A    between atoms: N6_20  and  N7_22 
REMARK    8  A    between atoms: N9_32  and  C9_33 
REMARK    9  A    between atoms: C9_33  and  C10_34 
REMARK   10  A    between atoms: C10_34  and  O5_35 
REMARK   11  A    between atoms: C10_34  and  C11_37 
REMARK   12  A    between atoms: C11_37  and  O6_38 
ROOT
HETATM    1  C1  UNL     1      20.640  29.936  27.755  1.00  0.00     0.144 C 
HETATM    2  N2  UNL     1      21.424  29.317  26.855  1.00  0.00    -0.173 N 
ATOM      3  H2  UNL     1      21.708  28.388  27.165  1.00  0.00     0.186 HD
HETATM    4  C2  UNL     1      21.927  29.625  25.636  1.00  0.00     0.705 C 
HETATM    5  N4  UNL     1      21.537  30.497  24.671  1.00  0.00    -0.169 N 
ATOM      6  H4  UNL     1      22.173  30.486  23.875  1.00  0.00     0.186 HD
HETATM    7  C3  UNL     1      20.520  31.382  24.488  1.00  0.00     0.194 C 
HETATM    8  C5  UNL     1      19.563  31.897  25.323  1.00  0.00     0.247 C 
HETATM    9  O4  UNL     1      18.548  32.373  24.811  1.00  0.00    -0.282 OA
HETATM   10  C6  UNL     1      19.481  32.005  26.714  1.00  0.00     0.121 A 
HETATM   11  C7  UNL     1      19.938  31.123  27.710  1.00  0.00     0.109 A 
HETATM   12  N8  UNL     1      19.537  31.679  28.862  1.00  0.00    -0.347 N 
ATOM     13  H8  UNL     1      19.705  31.293  29.791  1.00  0.00     0.167 HD
HETATM   14  C8  UNL     1      18.886  32.816  28.610  1.00  0.00     0.184 A 
HETATM   15  N9  UNL     1      18.842  33.041  27.238  1.00  0.00    -0.335 N 
ENDROOT
BRANCH   7  16
HETATM   16  N5  UNL     1      20.394  31.854  23.310  1.00  0.00    -0.236 N 
ATOM     17  H5  UNL     1      19.500  32.248  23.015  1.00  0.00     0.197 HD
BRANCH  16  18
HETATM   18  O2  UNL     1      21.459  31.835  22.434  1.00  0.00    -0.178 OA
BRANCH  18  19
HETATM   19  C4  UNL     1      21.868  30.650  21.841  1.00  0.00     0.401 C 
HETATM   20  O3  UNL     1      22.948  30.146  22.236  1.00  0.00    -0.235 OA
HETATM   21  N6  UNL     1      21.097  30.020  20.822  1.00  0.00    -0.250 N 
ATOM     22  H6  UNL     1      20.220  30.437  20.507  1.00  0.00     0.191 HD
BRANCH  21  23
HETATM   23  N7  UNL     1      21.552  28.833  20.259  1.00  0.00    -0.341 N 
ATOM     24  H72 UNL     1      22.550  28.623  20.273  1.00  0.00     0.177 HD
ATOM     25  H71 UNL     1      20.880  28.189  19.841  1.00  0.00     0.177 HD
ENDBRANCH  21  23
ENDBRANCH  18  19
ENDBRANCH  16  18
ENDBRANCH   7  16
BRANCH   4  26
HETATM   26  N3  UNL     1      22.984  28.954  25.344  1.00  0.00    -0.098 N 
ATOM     27  H3  UNL     1      23.836  29.060  25.895  1.00  0.00     0.213 HD
BRANCH  26  28
HETATM   28  O1  UNL     1      22.943  28.094  24.278  1.00  0.00    -0.276 OA
ATOM     29  H1  UNL     1      23.743  27.652  24.018  1.00  0.00     0.245 HD
ENDBRANCH  26  28
ENDBRANCH   4  26
BRANCH  15  30
HETATM   30  C9  UNL     1      18.276  34.204  26.655  1.00  0.00     0.164 C 
BRANCH  30  31
HETATM   31  C10 UNL     1      19.093  35.408  27.058  1.00  0.00     0.160 C 
BRANCH  31  32
HETATM   32  O5  UNL     1      18.510  36.618  26.647  1.00  0.00    -0.392 OA
ATOM     33  H5  UNL     1      19.147  37.232  26.299  1.00  0.00     0.210 HD
ENDBRANCH  31  32
BRANCH  31  34
HETATM   34  C11 UNL     1      20.515  35.461  26.599  1.00  0.00     0.197 C 
BRANCH  34  35
HETATM   35  O6  UNL     1      20.743  36.580  25.808  1.00  0.00    -0.398 OA
ATOM     36  H6  UNL     1      21.634  36.894  25.908  1.00  0.00     0.209 HD
ENDBRANCH  34  35
ENDBRANCH  31  34
ENDBRANCH  30  31
ENDBRANCH  15  30
BRANCH   1  37
HETATM   37  N1  UNL     1      20.509  29.320  28.878  1.00  0.00    -0.383 N 
ATOM     38  H12 UNL     1      20.362  28.317  28.766  1.00  0.00     0.157 HD
ATOM     39  H11 UNL     1      20.571  29.913  29.706  1.00  0.00     0.157 HD
ENDBRANCH   1  37
TORSDOF 12
ENDMDL
MODEL 5
REMARK VINA RESULT: -4.866549659      1.129      1.246
REMARK  12 active torsions:
REMARK  status: ('A' for Active; 'I' for Inactive)
REMARK    1  A    between atoms: N1_1  and  C1_4 
REMARK    2  A    between atoms: C2_7  and  N3_8 
REMARK    3  A    between atoms: N3_8  and  O1_10 
REMARK    4  A    between atoms: C3_14  and  N5_15 
REMARK    5  A    between atoms: N5_15  and  O2_17 
REMARK    6  A    between atoms: O2_17  and  C4_18 
REMARK       I    between atoms: C4_18  and  N6_20 
REMARK    7  A    between atoms: N6_20  and  N7_22 
REMARK    8  A    between atoms: N9_32  and  C9_33 
REMARK    9  A    between atoms: C9_33  and  C10_34 
REMARK   10  A    between atoms: C10_34  and  O5_35 
REMARK   11  A    between atoms: C10_34  and  C11_37 
REMARK   12  A    between atoms: C11_37  and  O6_38 
ROOT
HETATM    1  C1  UNL     1      23.517  27.977  22.483  1.00  0.00     0.144 C 
HETATM    2  N2  UNL     1      22.470  28.431  21.772  1.00  0.00    -0.173 N 
ATOM      3  H2  UNL     1      22.130  27.741  21.103  1.00  0.00     0.186 HD
HETATM    4  C2  UNL     1      21.758  29.582  21.726  1.00  0.00     0.705 C 
HETATM    5  N4  UNL     1      21.554  30.576  22.629  1.00  0.00    -0.169 N 
ATOM      6  H4  UNL     1      20.968  31.317  22.246  1.00  0.00     0.186 HD
HETATM    7  C3  UNL     1      21.926  30.843  23.910  1.00  0.00     0.194 C 
HETATM    8  C5  UNL     1      22.846  30.281  24.756  1.00  0.00     0.247 C 
HETATM    9  O4  UNL     1      22.706  30.466  25.966  1.00  0.00    -0.282 OA
HETATM   10  C6  UNL     1      23.979  29.494  24.531  1.00  0.00     0.121 A 
HETATM   11  C7  UNL     1      24.204  28.503  23.558  1.00  0.00     0.109 A 
HETATM   12  N8  UNL     1      25.424  28.023  23.841  1.00  0.00    -0.347 N 
ATOM     13  H8  UNL     1      25.898  27.283  23.324  1.00  0.00     0.167 HD
HETATM   14  C8  UNL     1      25.922  28.659  24.902  1.00  0.00     0.184 A 
HETATM   15  N9  UNL     1      25.010  29.607  25.356  1.00  0.00    -0.335 N 
ENDROOT
BRANCH   7  16
HETATM   16  N5  UNL     1      21.317  31.806  24.481  1.00  0.00    -0.236 N 
ATOM     17  H5  UNL     1      21.697  32.210  25.337  1.00  0.00     0.197 HD
BRANCH  16  18
HETATM   18  O2  UNL     1      20.147  32.304  23.948  1.00  0.00    -0.178 OA
BRANCH  18  19
HETATM   19  C4  UNL     1      19.240  32.990  24.743  1.00  0.00     0.401 C 
HETATM   20  O3  UNL     1      18.027  32.689  24.631  1.00  0.00    -0.235 OA
HETATM   21  N6  UNL     1      19.663  33.999  25.656  1.00  0.00    -0.250 N 
ATOM     22  H6  UNL     1      20.651  34.236  25.740  1.00  0.00     0.191 HD
BRANCH  21  23
HETATM   23  N7  UNL     1      18.714  34.657  26.430  1.00  0.00    -0.341 N 
ATOM     24  H72 UNL     1      18.007  35.233  25.973  1.00  0.00     0.177 HD
ATOM     25  H71 UNL     1      18.739  34.554  27.445  1.00  0.00     0.177 HD
ENDBRANCH  21  23
ENDBRANCH  18  19
ENDBRANCH  16  18
ENDBRANCH   7  16
BRANCH   4  26
HETATM   26  N3  UNL     1      21.160  29.759  20.603  1.00  0.00    -0.098 N 
ATOM     27  H3  UNL     1      20.294  30.297  20.555  1.00  0.00     0.213 HD
BRANCH  26  28
HETATM   28  O1  UNL     1      21.708  29.213  19.472  1.00  0.00    -0.276 OA
ATOM     29  H1  UNL     1      22.153  29.785  18.859  1.00  0.00     0.245 HD
ENDBRANCH  26  28
ENDBRANCH   4  26
BRANCH  15  30
HETATM   30  C9  UNL     1      25.276  30.495  26.430  1.00  0.00     0.164 C 
BRANCH  30  31
HETATM   31  C10 UNL     1      25.939  31.740  25.891  1.00  0.00     0.160 C 
BRANCH  31  32
HETATM   32  O5  UNL     1      27.297  31.823  26.237  1.00  0.00    -0.392 OA
ATOM     33  H5  UNL     1      27.507  32.621  26.708  1.00  0.00     0.210 HD
ENDBRANCH  31  32
BRANCH  31  34
HETATM   34  C11 UNL     1      25.339  33.058  26.266  1.00  0.00     0.197 C 
BRANCH  34  35
HETATM   35  O6  UNL     1      24.009  33.131  25.869  1.00  0.00    -0.398 OA
ATOM     36  H6  UNL     1      23.930  33.542  25.016  1.00  0.00     0.209 HD
ENDBRANCH  34  35
ENDBRANCH  31  34
ENDBRANCH  30  31
ENDBRANCH  15  30
BRANCH   1  37
HETATM   37  N1  UNL     1      23.979  26.836  22.104  1.00  0.00    -0.383 N 
ATOM     38  H12 UNL     1      24.973  26.865  21.879  1.00  0.00     0.157 HD
ATOM     39  H11 UNL     1      23.295  26.079  22.082  1.00  0.00     0.157 HD
ENDBRANCH   1  37
TORSDOF 12
ENDMDL
