MODEL 1
REMARK VINA RESULT: -5.256302890      0.000      0.000
REMARK  0 active torsions:
REMARK  status: ('A' for Active; 'I' for Inactive)
ROOT
HETATM    1  C1  UNL     1      56.279  31.054  20.388  1.00  0.00     0.042 C 
HETATM    2  C2  UNL     1      55.721  29.718  19.959  1.00  0.00     0.147 C 
HETATM    3  C3  UNL     1      56.666  28.585  20.253  1.00  0.00     0.034 C 
HETATM    4  C4  UNL     1      56.828  28.283  21.700  1.00  0.00     0.004 C 
HETATM    5  C5  UNL     1      55.749  27.388  22.261  1.00  0.00     0.022 C 
HETATM    6  C6  UNL     1      54.378  27.958  22.140  1.00  0.00     0.146 C 
HETATM    7  N1  UNL     1      54.324  29.321  21.722  1.00  0.00    -0.302 N 
ATOM      8  H1  UNL     1      54.192  30.083  22.387  1.00  0.00     0.187 HD
HETATM    9  O1  UNL     1      54.454  29.541  20.434  1.00  0.00    -0.280 OA
ENDROOT
TORSDOF 0
ENDMDL
MODEL 2
REMARK VINA RESULT: -5.020508705      1.335      2.897
REMARK  0 active torsions:
REMARK  status: ('A' for Active; 'I' for Inactive)
ROOT
HETATM    1  C1  UNL     1      56.445  27.762  21.204  1.00  0.00     0.042 C 
HETATM    2  C2  UNL     1      55.973  29.123  21.655  1.00  0.00     0.147 C 
HETATM    3  C3  UNL     1      56.721  30.239  20.978  1.00  0.00     0.034 C 
HETATM    4  C4  UNL     1      56.419  30.388  19.530  1.00  0.00     0.004 C 
HETATM    5  C5  UNL     1      55.174  31.193  19.246  1.00  0.00     0.022 C 
HETATM    6  C6  UNL     1      53.938  30.610  19.838  1.00  0.00     0.146 C 
HETATM    7  N1  UNL     1      54.087  29.298  20.379  1.00  0.00    -0.302 N 
ATOM      8  H1  UNL     1      53.800  28.467  19.863  1.00  0.00     0.187 HD
HETATM    9  O1  UNL     1      54.614  29.220  21.580  1.00  0.00    -0.280 OA
ENDROOT
TORSDOF 0
ENDMDL
MODEL 3
REMARK VINA RESULT: -4.814377618      1.859      2.307
REMARK  0 active torsions:
REMARK  status: ('A' for Active; 'I' for Inactive)
ROOT
HETATM    1  C1  UNL     1      57.316  29.593  19.213  1.00  0.00     0.042 C 
HETATM    2  C2  UNL     1      57.255  29.654  20.719  1.00  0.00     0.147 C 
HETATM    3  C3  UNL     1      56.003  30.327  21.213  1.00  0.00     0.034 C 
HETATM    4  C4  UNL     1      54.759  29.544  20.991  1.00  0.00     0.004 C 
HETATM    5  C5  UNL     1      54.493  28.506  22.054  1.00  0.00     0.022 C 
HETATM    6  C6  UNL     1      55.571  27.486  22.176  1.00  0.00     0.146 C 
HETATM    7  N1  UNL     1      56.557  27.521  21.145  1.00  0.00    -0.302 N 
ATOM      8  H1  UNL     1      56.533  26.878  20.354  1.00  0.00     0.187 HD
HETATM    9  O1  UNL     1      57.498  28.429  21.270  1.00  0.00    -0.280 OA
ENDROOT
TORSDOF 0
ENDMDL
MODEL 4
REMARK VINA RESULT: -4.420373154      0.996      2.777
REMARK  0 active torsions:
REMARK  status: ('A' for Active; 'I' for Inactive)
ROOT
HETATM    1  C1  UNL     1      54.201  27.500  21.807  1.00  0.00     0.042 C 
HETATM    2  C2  UNL     1      55.171  28.609  22.133  1.00  0.00     0.147 C 
HETATM    3  C3  UNL     1      56.577  28.280  21.712  1.00  0.00     0.034 C 
HETATM    4  C4  UNL     1      56.785  28.254  20.240  1.00  0.00     0.004 C 
HETATM    5  C5  UNL     1      57.036  29.615  19.635  1.00  0.00     0.022 C 
HETATM    6  C6  UNL     1      55.921  30.578  19.849  1.00  0.00     0.146 C 
HETATM    7  N1  UNL     1      54.727  30.012  20.387  1.00  0.00    -0.302 N 
ATOM      8  H1  UNL     1      53.930  29.774  19.796  1.00  0.00     0.187 HD
HETATM    9  O1  UNL     1      54.710  29.812  21.684  1.00  0.00    -0.280 OA
ENDROOT
TORSDOF 0
ENDMDL
MODEL 5
REMARK VINA RESULT: -4.225967906      1.265      1.830
REMARK  0 active torsions:
REMARK  status: ('A' for Active; 'I' for Inactive)
ROOT
HETATM    1  C1  UNL     1      53.653  31.355  20.015  1.00  0.00     0.042 C 
HETATM    2  C2  UNL     1      54.411  30.118  19.600  1.00  0.00     0.147 C 
HETATM    3  C3  UNL     1      55.897  30.347  19.553  1.00  0.00     0.034 C 
HETATM    4  C4  UNL     1      56.530  30.536  20.885  1.00  0.00     0.004 C 
HETATM    5  C5  UNL     1      56.859  29.244  21.593  1.00  0.00     0.022 C 
HETATM    6  C6  UNL     1      55.671  28.385  21.851  1.00  0.00     0.146 C 
HETATM    7  N1  UNL     1      54.410  29.001  21.593  1.00  0.00    -0.302 N 
ATOM      8  H1  UNL     1      53.840  29.394  22.342  1.00  0.00     0.187 HD
HETATM    9  O1  UNL     1      54.025  29.036  20.338  1.00  0.00    -0.280 OA
ENDROOT
TORSDOF 0
ENDMDL
