MODEL 1
REMARK VINA RESULT: -4.102714770      0.000      0.000
REMARK  2 active torsions:
REMARK  status: ('A' for Active; 'I' for Inactive)
REMARK    1  A    between atoms: C2_2  and  C4_4 
REMARK    2  A    between atoms: C4_4  and  N1_6 
ROOT
HETATM    1  C4  UNL     1      55.973  29.244  20.751  1.00  0.00     0.200 C 
HETATM    2  C5  UNL     1      56.936  30.289  21.324  1.00  0.00     0.064 C 
HETATM    3  S1  UNL     1      54.439  30.082  20.287  1.00  0.00    -0.051 SA
ENDROOT
BRANCH   1   4
HETATM    4  C2  UNL     1      55.726  28.235  21.799  1.00  0.00    -0.047 C 
HETATM    5  C1  UNL     1      56.700  27.550  22.360  1.00  0.00     0.017 C 
HETATM    6  C3  UNL     1      54.336  27.973  22.246  1.00  0.00     0.046 C 
ENDBRANCH   1   4
BRANCH   1   7
HETATM    7  N1  UNL     1      56.591  28.710  19.577  1.00  0.00    -0.057 N 
ATOM      8  H13 UNL     1      56.983  29.457  19.004  1.00  0.00     0.276 HD
ATOM      9  H12 UNL     1      57.448  28.212  19.815  1.00  0.00     0.276 HD
ATOM     10  H11 UNL     1      55.971  28.119  19.024  1.00  0.00     0.276 HD
ENDBRANCH   1   7
TORSDOF 2
ENDMDL
MODEL 2
REMARK VINA RESULT: -4.064360593      2.118      2.580
REMARK  2 active torsions:
REMARK  status: ('A' for Active; 'I' for Inactive)
REMARK    1  A    between atoms: C2_2  and  C4_4 
REMARK    2  A    between atoms: C4_4  and  N1_6 
ROOT
HETATM    1  C4  UNL     1      56.441  29.484  20.986  1.00  0.00     0.200 C 
HETATM    2  C5  UNL     1      56.864  29.525  19.513  1.00  0.00     0.064 C 
HETATM    3  S1  UNL     1      57.161  28.005  21.740  1.00  0.00    -0.051 SA
ENDROOT
BRANCH   1   4
HETATM    4  C2  UNL     1      54.968  29.436  21.032  1.00  0.00    -0.047 C 
HETATM    5  C1  UNL     1      54.214  30.201  20.271  1.00  0.00     0.017 C 
HETATM    6  C3  UNL     1      54.298  28.495  21.964  1.00  0.00     0.046 C 
ENDBRANCH   1   4
BRANCH   1   7
HETATM    7  N1  UNL     1      56.995  30.646  21.608  1.00  0.00    -0.057 N 
ATOM      8  H13 UNL     1      56.275  31.351  21.763  1.00  0.00     0.276 HD
ATOM      9  H12 UNL     1      57.250  30.450  22.576  1.00  0.00     0.276 HD
ATOM     10  H11 UNL     1      57.786  31.043  21.100  1.00  0.00     0.276 HD
ENDBRANCH   1   7
TORSDOF 2
ENDMDL
MODEL 3
REMARK VINA RESULT: -4.046087598      2.128      2.563
REMARK  2 active torsions:
REMARK  status: ('A' for Active; 'I' for Inactive)
REMARK    1  A    between atoms: C2_2  and  C4_4 
REMARK    2  A    between atoms: C4_4  and  N1_6 
ROOT
HETATM    1  C4  UNL     1      56.431  29.496  20.970  1.00  0.00     0.200 C 
HETATM    2  C5  UNL     1      56.861  29.537  19.500  1.00  0.00     0.064 C 
HETATM    3  S1  UNL     1      57.151  28.019  21.728  1.00  0.00    -0.051 SA
ENDROOT
BRANCH   1   4
HETATM    4  C2  UNL     1      54.957  29.445  21.010  1.00  0.00    -0.047 C 
HETATM    5  C1  UNL     1      54.303  28.671  21.849  1.00  0.00     0.017 C 
HETATM    6  C3  UNL     1      54.173  30.290  20.077  1.00  0.00     0.046 C 
ENDBRANCH   1   4
BRANCH   1   7
HETATM    7  N1  UNL     1      56.980  30.659  21.594  1.00  0.00    -0.057 N 
ATOM      8  H13 UNL     1      57.315  30.441  22.533  1.00  0.00     0.276 HD
ATOM      9  H12 UNL     1      57.863  30.921  21.157  1.00  0.00     0.276 HD
ATOM     10  H11 UNL     1      56.339  31.452  21.615  1.00  0.00     0.276 HD
ENDBRANCH   1   7
TORSDOF 2
ENDMDL
MODEL 4
REMARK VINA RESULT: -4.002186811      2.181      3.096
REMARK  2 active torsions:
REMARK  status: ('A' for Active; 'I' for Inactive)
REMARK    1  A    between atoms: C2_2  and  C4_4 
REMARK    2  A    between atoms: C4_4  and  N1_6 
ROOT
HETATM    1  C4  UNL     1      55.853  29.773  20.671  1.00  0.00     0.200 C 
HETATM    2  C5  UNL     1      56.771  28.860  19.850  1.00  0.00     0.064 C 
HETATM    3  S1  UNL     1      54.807  28.731  21.716  1.00  0.00    -0.051 SA
ENDROOT
BRANCH   1   4
HETATM    4  C2  UNL     1      55.038  30.561  19.727  1.00  0.00    -0.047 C 
HETATM    5  C1  UNL     1      55.566  31.448  18.911  1.00  0.00     0.017 C 
HETATM    6  C3  UNL     1      53.569  30.356  19.685  1.00  0.00     0.046 C 
ENDBRANCH   1   4
BRANCH   1   7
HETATM    7  N1  UNL     1      56.699  30.573  21.501  1.00  0.00    -0.057 N 
ATOM      8  H13 UNL     1      57.677  30.461  21.234  1.00  0.00     0.276 HD
ATOM      9  H12 UNL     1      56.578  31.563  21.292  1.00  0.00     0.276 HD
ATOM     10  H11 UNL     1      56.575  30.397  22.498  1.00  0.00     0.276 HD
ENDBRANCH   1   7
TORSDOF 2
ENDMDL
MODEL 5
REMARK VINA RESULT: -3.956193251      1.672      1.815
REMARK  2 active torsions:
REMARK  status: ('A' for Active; 'I' for Inactive)
REMARK    1  A    between atoms: C2_2  and  C4_4 
REMARK    2  A    between atoms: C4_4  and  N1_6 
ROOT
HETATM    1  C4  UNL     1      56.064  29.694  20.836  1.00  0.00     0.200 C 
HETATM    2  C5  UNL     1      54.641  30.097  20.436  1.00  0.00     0.064 C 
HETATM    3  S1  UNL     1      57.008  29.378  19.325  1.00  0.00    -0.051 SA
ENDROOT
BRANCH   1   4
HETATM    4  C2  UNL     1      55.973  28.477  21.665  1.00  0.00    -0.047 C 
HETATM    5  C1  UNL     1      57.033  27.768  21.993  1.00  0.00     0.017 C 
HETATM    6  C3  UNL     1      54.648  28.025  22.154  1.00  0.00     0.046 C 
ENDBRANCH   1   4
BRANCH   1   7
HETATM    7  N1  UNL     1      56.635  30.812  21.521  1.00  0.00    -0.057 N 
ATOM      8  H13 UNL     1      57.461  30.528  22.048  1.00  0.00     0.276 HD
ATOM      9  H12 UNL     1      57.069  31.456  20.860  1.00  0.00     0.276 HD
ATOM     10  H11 UNL     1      55.974  31.302  22.122  1.00  0.00     0.276 HD
ENDBRANCH   1   7
TORSDOF 2
ENDMDL
