MODEL 1
REMARK VINA RESULT: -10.315379280      0.000      0.000
REMARK  7 active torsions:
REMARK  status: ('A' for Active; 'I' for Inactive)
REMARK    1  A    between atoms: C2_9  and  S1_10 
REMARK    2  A    between atoms: S1_10  and  C3_11 
REMARK    3  A    between atoms: C3_11  and  C4_12 
REMARK    4  A    between atoms: C4_12  and  N5_13 
REMARK    5  A    between atoms: C6_21  and  S2_22 
REMARK    6  A    between atoms: C12_35  and  C13_36 
REMARK    7  A    between atoms: C13_36  and  N11_37 
ROOT
HETATM    1  N5  UNL     1      38.153   3.247 137.495  1.00  0.00    -0.165 N 
HETATM    2  C5  UNL     1      37.059   2.855 138.225  1.00  0.00     0.701 A 
HETATM    3  N6  UNL     1      36.446   3.662 138.968  1.00  0.00    -0.233 N 
ATOM      4  H61 UNL     1      35.632   3.370 139.510  1.00  0.00     0.174 HD
ATOM      5  H62 UNL     1      36.784   4.624 139.009  1.00  0.00     0.174 HD
HETATM    6  N7  UNL     1      36.614   1.590 138.171  1.00  0.00    -0.083 N 
HETATM    7  N8  UNL     1      35.572   1.024 138.800  1.00  0.00    -0.265 N 
ATOM      8  H8  UNL     1      34.946   1.512 139.441  1.00  0.00     0.189 HD
HETATM    9  C6  UNL     1      35.469  -0.256 138.473  1.00  0.00     0.189 A 
HETATM   10  C7  UNL     1      36.510  -0.555 137.570  1.00  0.00     0.117 A 
HETATM   11  C8  UNL     1      36.618  -1.865 137.064  1.00  0.00     0.105 C 
HETATM   12  N9  UNL     1      36.665  -2.954 136.673  1.00  0.00    -0.191 NA
HETATM   13  C9  UNL     1      37.180   0.616 137.424  1.00  0.00     0.118 A 
HETATM   14  C10 UNL     1      38.283   0.968 136.678  1.00  0.00     0.108 A 
HETATM   15  C11 UNL     1      38.938   0.062 135.925  1.00  0.00     0.263 A 
HETATM   16  O4  UNL     1      38.656  -1.103 135.780  1.00  0.00    -0.267 OA
HETATM   17  N10 UNL     1      40.055   0.459 135.227  1.00  0.00    -0.311 N 
ATOM     18  H10 UNL     1      40.553  -0.224 134.656  1.00  0.00     0.170 HD
HETATM   19  C12 UNL     1      40.500   1.700 135.276  1.00  0.00     0.114 A 
HETATM   20  N12 UNL     1      39.850   2.606 136.022  1.00  0.00    -0.329 N 
ATOM     21  H12 UNL     1      40.208   3.561 136.046  1.00  0.00     0.168 HD
HETATM   22  C20 UNL     1      38.731   2.313 136.752  1.00  0.00     0.143 A 
ENDROOT
BRANCH   9  23
HETATM   23  S2  UNL     1      34.230  -1.353 139.085  1.00  0.00     0.157 S 
HETATM   24  O1  UNL     1      33.316  -1.757 137.980  1.00  0.00    -0.590 OA
HETATM   25  O2  UNL     1      33.495  -0.636 140.184  1.00  0.00    -0.590 OA
HETATM   26  O3  UNL     1      34.938  -2.747 139.735  1.00  0.00    -0.590 OA
ENDBRANCH   9  23
BRANCH   1  27
HETATM   27  C4  UNL     1      38.598   4.599 137.618  1.00  0.00     0.160 C 
BRANCH  27  28
HETATM   28  C3  UNL     1      39.509   4.902 138.753  1.00  0.00     0.103 C 
BRANCH  28  29
HETATM   29  S1  UNL     1      41.252   4.939 138.533  1.00  0.00    -0.089 SA
BRANCH  29  30
HETATM   30  C2  UNL     1      41.943   6.445 137.936  1.00  0.00     0.178 A 
HETATM   31  N1  UNL     1      43.098   6.984 138.412  1.00  0.00    -0.259 N 
HETATM   32  C1  UNL     1      43.919   6.412 139.450  1.00  0.00     0.181 C 
HETATM   33  N2  UNL     1      43.371   8.118 137.791  1.00  0.00    -0.224 N 
HETATM   34  N3  UNL     1      42.397   8.305 136.921  1.00  0.00    -0.226 N 
ATOM     35  H2  UNL     1      44.174   8.725 137.951  1.00  0.00     0.210 HD
HETATM   36  N4  UNL     1      41.534   7.289 137.013  1.00  0.00    -0.263 N 
ATOM     37  H3  UNL     1      42.315   9.096 136.283  1.00  0.00     0.210 HD
ATOM     38  H4  UNL     1      40.688   7.184 136.454  1.00  0.00     0.190 HD
ENDBRANCH  29  30
ENDBRANCH  28  29
ENDBRANCH  27  28
ENDBRANCH   1  27
BRANCH  19  39
HETATM   39  C13 UNL     1      41.713   2.129 134.554  1.00  0.00     0.348 C 
BRANCH  39  40
HETATM   40  N11 UNL     1      42.521   3.071 135.304  1.00  0.00     0.095 N 
HETATM   41  C14 UNL     1      42.960   4.086 134.400  1.00  0.00     0.273 C 
HETATM   42  C15 UNL     1      44.387   4.505 134.568  1.00  0.00     0.030 C 
HETATM   43  C16 UNL     1      44.686   5.131 135.892  1.00  0.00     0.002 C 
HETATM   44  C17 UNL     1      45.316   4.042 136.766  1.00  0.00     0.002 C 
HETATM   45  C18 UNL     1      44.155   3.124 137.157  1.00  0.00     0.030 C 
HETATM   46  C19 UNL     1      43.609   2.388 135.978  1.00  0.00     0.273 C 
ENDBRANCH  39  40
ENDBRANCH  19  39
TORSDOF 7
ENDMDL
MODEL 2
REMARK VINA RESULT: -10.161242882      2.861      5.269
REMARK  7 active torsions:
REMARK  status: ('A' for Active; 'I' for Inactive)
REMARK    1  A    between atoms: C2_9  and  S1_10 
REMARK    2  A    between atoms: S1_10  and  C3_11 
REMARK    3  A    between atoms: C3_11  and  C4_12 
REMARK    4  A    between atoms: C4_12  and  N5_13 
REMARK    5  A    between atoms: C6_21  and  S2_22 
REMARK    6  A    between atoms: C12_35  and  C13_36 
REMARK    7  A    between atoms: C13_36  and  N11_37 
ROOT
HETATM    1  N5  UNL     1      40.822   1.523 135.527  1.00  0.00    -0.165 N 
HETATM    2  C5  UNL     1      40.032   0.417 135.341  1.00  0.00     0.701 A 
HETATM    3  N6  UNL     1      40.362  -0.495 134.541  1.00  0.00    -0.233 N 
ATOM      4  H61 UNL     1      39.775  -1.318 134.404  1.00  0.00     0.174 HD
ATOM      5  H62 UNL     1      41.242  -0.389 134.035  1.00  0.00     0.174 HD
HETATM    6  N7  UNL     1      38.875   0.279 136.006  1.00  0.00    -0.083 N 
HETATM    7  N8  UNL     1      37.979  -0.720 135.963  1.00  0.00    -0.265 N 
ATOM      8  H8  UNL     1      38.066  -1.554 135.381  1.00  0.00     0.189 HD
HETATM    9  C6  UNL     1      36.965  -0.473 136.780  1.00  0.00     0.189 A 
HETATM   10  C7  UNL     1      37.207   0.768 137.403  1.00  0.00     0.117 A 
HETATM   11  C8  UNL     1      36.268   1.259 138.332  1.00  0.00     0.105 C 
HETATM   12  N9  UNL     1      35.470   1.620 139.090  1.00  0.00    -0.191 NA
HETATM   13  C9  UNL     1      38.392   1.182 136.889  1.00  0.00     0.118 A 
HETATM   14  C10 UNL     1      39.155   2.309 137.102  1.00  0.00     0.108 A 
HETATM   15  C11 UNL     1      38.745   3.284 137.938  1.00  0.00     0.263 A 
HETATM   16  O4  UNL     1      37.735   3.298 138.599  1.00  0.00    -0.267 OA
HETATM   17  N10 UNL     1      39.529   4.405 138.088  1.00  0.00    -0.311 N 
ATOM     18  H10 UNL     1      39.222   5.144 138.720  1.00  0.00     0.170 HD
HETATM   19  C12 UNL     1      40.666   4.549 137.436  1.00  0.00     0.114 A 
HETATM   20  N12 UNL     1      41.079   3.581 136.604  1.00  0.00    -0.329 N 
ATOM     21  H12 UNL     1      41.962   3.710 136.111  1.00  0.00     0.168 HD
HETATM   22  C20 UNL     1      40.374   2.429 136.386  1.00  0.00     0.143 A 
ENDROOT
BRANCH   9  23
HETATM   23  S2  UNL     1      35.580  -1.542 137.014  1.00  0.00     0.157 S 
HETATM   24  O1  UNL     1      35.450  -1.900 138.454  1.00  0.00    -0.590 OA
HETATM   25  O2  UNL     1      35.795  -2.755 136.152  1.00  0.00    -0.590 OA
HETATM   26  O3  UNL     1      34.152  -0.780 136.519  1.00  0.00    -0.590 OA
ENDBRANCH   9  23
BRANCH   1  27
HETATM   27  C4  UNL     1      42.027   1.628 134.766  1.00  0.00     0.160 C 
BRANCH  27  28
HETATM   28  C3  UNL     1      41.962   2.437 133.521  1.00  0.00     0.103 C 
BRANCH  28  29
HETATM   29  S1  UNL     1      41.431   1.727 132.003  1.00  0.00    -0.089 SA
BRANCH  29  30
HETATM   30  C2  UNL     1      40.207   2.615 131.100  1.00  0.00     0.178 A 
HETATM   31  N1  UNL     1      38.873   2.368 131.198  1.00  0.00    -0.259 N 
HETATM   32  C1  UNL     1      38.269   1.369 132.044  1.00  0.00     0.181 C 
HETATM   33  N2  UNL     1      38.192   3.175 130.403  1.00  0.00    -0.224 N 
HETATM   34  N3  UNL     1      39.085   3.935 129.798  1.00  0.00    -0.226 N 
ATOM     35  H2  UNL     1      37.180   3.205 130.281  1.00  0.00     0.210 HD
HETATM   36  N4  UNL     1      40.304   3.591 130.224  1.00  0.00    -0.263 N 
ATOM     37  H3  UNL     1      38.879   4.665 129.117  1.00  0.00     0.210 HD
ATOM     38  H4  UNL     1      41.176   4.020 129.916  1.00  0.00     0.190 HD
ENDBRANCH  29  30
ENDBRANCH  28  29
ENDBRANCH  27  28
ENDBRANCH   1  27
BRANCH  19  39
HETATM   39  C13 UNL     1      41.499   5.760 137.568  1.00  0.00     0.348 C 
BRANCH  39  40
HETATM   40  N11 UNL     1      42.922   5.484 137.511  1.00  0.00     0.095 N 
HETATM   41  C14 UNL     1      43.486   5.837 138.775  1.00  0.00     0.273 C 
HETATM   42  C15 UNL     1      44.798   6.553 138.701  1.00  0.00     0.030 C 
HETATM   43  C16 UNL     1      45.900   5.743 138.096  1.00  0.00     0.002 C 
HETATM   44  C17 UNL     1      46.025   6.187 136.635  1.00  0.00     0.002 C 
HETATM   45  C18 UNL     1      44.815   5.571 135.926  1.00  0.00     0.030 C 
HETATM   46  C19 UNL     1      43.533   6.177 136.392  1.00  0.00     0.273 C 
ENDBRANCH  39  40
ENDBRANCH  19  39
TORSDOF 7
ENDMDL
MODEL 3
REMARK VINA RESULT: -9.836537420      2.884      5.249
REMARK  7 active torsions:
REMARK  status: ('A' for Active; 'I' for Inactive)
REMARK    1  A    between atoms: C2_9  and  S1_10 
REMARK    2  A    between atoms: S1_10  and  C3_11 
REMARK    3  A    between atoms: C3_11  and  C4_12 
REMARK    4  A    between atoms: C4_12  and  N5_13 
REMARK    5  A    between atoms: C6_21  and  S2_22 
REMARK    6  A    between atoms: C12_35  and  C13_36 
REMARK    7  A    between atoms: C13_36  and  N11_37 
ROOT
HETATM    1  N5  UNL     1      40.017   0.429 135.189  1.00  0.00    -0.165 N 
HETATM    2  C5  UNL     1      38.951  -0.341 135.579  1.00  0.00     0.701 A 
HETATM    3  N6  UNL     1      38.745  -1.474 135.076  1.00  0.00    -0.233 N 
ATOM      4  H61 UNL     1      37.953  -2.047 135.367  1.00  0.00     0.174 HD
ATOM      5  H62 UNL     1      39.400  -1.808 134.369  1.00  0.00     0.174 HD
HETATM    6  N7  UNL     1      38.089   0.099 136.509  1.00  0.00    -0.083 N 
HETATM    7  N8  UNL     1      37.003  -0.503 137.018  1.00  0.00    -0.265 N 
ATOM      8  H8  UNL     1      36.670  -1.428 136.746  1.00  0.00     0.189 HD
HETATM    9  C6  UNL     1      36.422   0.271 137.923  1.00  0.00     0.189 A 
HETATM   10  C7  UNL     1      37.173   1.461 138.018  1.00  0.00     0.117 A 
HETATM   11  C8  UNL     1      36.761   2.457 138.925  1.00  0.00     0.105 C 
HETATM   12  N9  UNL     1      36.385   3.246 139.686  1.00  0.00    -0.191 NA
HETATM   13  C9  UNL     1      38.183   1.298 137.126  1.00  0.00     0.118 A 
HETATM   14  C10 UNL     1      39.239   2.103 136.761  1.00  0.00     0.108 A 
HETATM   15  C11 UNL     1      39.401   3.331 137.295  1.00  0.00     0.263 A 
HETATM   16  O4  UNL     1      38.711   3.855 138.134  1.00  0.00    -0.267 OA
HETATM   17  N10 UNL     1      40.453   4.107 136.868  1.00  0.00    -0.311 N 
ATOM     18  H10 UNL     1      40.579   5.036 137.270  1.00  0.00     0.170 HD
HETATM   19  C12 UNL     1      41.304   3.683 135.953  1.00  0.00     0.114 A 
HETATM   20  N12 UNL     1      41.147   2.462 135.420  1.00  0.00    -0.329 N 
ATOM     21  H12 UNL     1      41.815   2.151 134.716  1.00  0.00     0.168 HD
HETATM   22  C20 UNL     1      40.136   1.613 135.776  1.00  0.00     0.143 A 
ENDROOT
BRANCH   9  23
HETATM   23  S2  UNL     1      34.967  -0.155 138.826  1.00  0.00     0.157 S 
HETATM   24  O1  UNL     1      33.909   0.870 138.603  1.00  0.00    -0.590 OA
HETATM   25  O2  UNL     1      35.350  -0.257 140.277  1.00  0.00    -0.590 OA
HETATM   26  O3  UNL     1      34.374  -1.658 138.323  1.00  0.00    -0.590 OA
ENDBRANCH   9  23
BRANCH   1  27
HETATM   27  C4  UNL     1      40.882  -0.080 134.172  1.00  0.00     0.160 C 
BRANCH  27  28
HETATM   28  C3  UNL     1      40.735   0.508 132.814  1.00  0.00     0.103 C 
BRANCH  28  29
HETATM   29  S1  UNL     1      39.262   0.287 131.883  1.00  0.00    -0.089 SA
BRANCH  29  30
HETATM   30  C2  UNL     1      37.964   1.443 132.168  1.00  0.00     0.178 A 
HETATM   31  N1  UNL     1      37.512   2.314 131.226  1.00  0.00    -0.259 N 
HETATM   32  C1  UNL     1      38.008   2.414 129.876  1.00  0.00     0.181 C 
HETATM   33  N2  UNL     1      36.543   3.067 131.717  1.00  0.00    -0.224 N 
HETATM   34  N3  UNL     1      36.377   2.682 132.968  1.00  0.00    -0.226 N 
ATOM     35  H2  UNL     1      36.028   3.798 131.228  1.00  0.00     0.210 HD
HETATM   36  N4  UNL     1      37.240   1.699 133.236  1.00  0.00    -0.263 N 
ATOM     37  H3  UNL     1      35.699   3.072 133.624  1.00  0.00     0.210 HD
ATOM     38  H4  UNL     1      37.325   1.219 134.132  1.00  0.00     0.190 HD
ENDBRANCH  29  30
ENDBRANCH  28  29
ENDBRANCH  27  28
ENDBRANCH   1  27
BRANCH  19  39
HETATM   39  C13 UNL     1      42.418   4.520 135.468  1.00  0.00     0.348 C 
BRANCH  39  40
HETATM   40  N11 UNL     1      43.508   4.628 136.420  1.00  0.00     0.095 N 
HETATM   41  C14 UNL     1      43.983   5.974 136.388  1.00  0.00     0.273 C 
HETATM   42  C15 UNL     1      45.473   6.117 136.426  1.00  0.00     0.030 C 
HETATM   43  C16 UNL     1      46.102   5.605 137.682  1.00  0.00     0.002 C 
HETATM   44  C17 UNL     1      46.640   4.205 137.369  1.00  0.00     0.002 C 
HETATM   45  C18 UNL     1      45.401   3.308 137.302  1.00  0.00     0.030 C 
HETATM   46  C19 UNL     1      44.536   3.645 136.133  1.00  0.00     0.273 C 
ENDBRANCH  39  40
ENDBRANCH  19  39
TORSDOF 7
ENDMDL
MODEL 4
REMARK VINA RESULT: -9.801393177      2.970      5.383
REMARK  7 active torsions:
REMARK  status: ('A' for Active; 'I' for Inactive)
REMARK    1  A    between atoms: C2_9  and  S1_10 
REMARK    2  A    between atoms: S1_10  and  C3_11 
REMARK    3  A    between atoms: C3_11  and  C4_12 
REMARK    4  A    between atoms: C4_12  and  N5_13 
REMARK    5  A    between atoms: C6_21  and  S2_22 
REMARK    6  A    between atoms: C12_35  and  C13_36 
REMARK    7  A    between atoms: C13_36  and  N11_37 
ROOT
HETATM    1  N5  UNL     1      40.782   2.443 136.043  1.00  0.00    -0.165 N 
HETATM    2  C5  UNL     1      39.760   1.532 136.126  1.00  0.00     0.701 A 
HETATM    3  N6  UNL     1      39.753   0.491 135.421  1.00  0.00    -0.233 N 
ATOM      4  H61 UNL     1      38.993  -0.186 135.483  1.00  0.00     0.174 HD
ATOM      5  H62 UNL     1      40.537   0.341 134.786  1.00  0.00     0.174 HD
HETATM    6  N7  UNL     1      38.728   1.730 136.961  1.00  0.00    -0.083 N 
HETATM    7  N8  UNL     1      37.650   0.962 137.183  1.00  0.00    -0.265 N 
ATOM      8  H8  UNL     1      37.462   0.075 136.716  1.00  0.00     0.189 HD
HETATM    9  C6  UNL     1      36.862   1.516 138.093  1.00  0.00     0.189 A 
HETATM   10  C7  UNL     1      37.458   2.728 138.499  1.00  0.00     0.117 A 
HETATM   11  C8  UNL     1      36.812   3.513 139.474  1.00  0.00     0.105 C 
HETATM   12  N9  UNL     1      36.246   4.123 140.280  1.00  0.00    -0.191 NA
HETATM   13  C9  UNL     1      38.600   2.807 137.770  1.00  0.00     0.118 A 
HETATM   14  C10 UNL     1      39.605   3.747 137.715  1.00  0.00     0.108 A 
HETATM   15  C11 UNL     1      39.554   4.871 138.458  1.00  0.00     0.263 A 
HETATM   16  O4  UNL     1      38.695   5.182 139.247  1.00  0.00    -0.267 OA
HETATM   17  N10 UNL     1      40.567   5.793 138.338  1.00  0.00    -0.311 N 
ATOM     18  H10 UNL     1      40.532   6.644 138.899  1.00  0.00     0.170 HD
HETATM   19  C12 UNL     1      41.584   5.607 137.519  1.00  0.00     0.114 A 
HETATM   20  N12 UNL     1      41.640   4.488 136.779  1.00  0.00    -0.329 N 
ATOM     21  H12 UNL     1      42.434   4.361 136.152  1.00  0.00     0.168 HD
HETATM   22  C20 UNL     1      40.684   3.511 136.824  1.00  0.00     0.143 A 
ENDROOT
BRANCH   9  23
HETATM   23  S2  UNL     1      35.344   0.821 138.667  1.00  0.00     0.157 S 
HETATM   24  O1  UNL     1      34.231   1.791 138.466  1.00  0.00    -0.590 OA
HETATM   25  O2  UNL     1      35.528   0.473 140.118  1.00  0.00    -0.590 OA
HETATM   26  O3  UNL     1      34.982  -0.597 137.818  1.00  0.00    -0.590 OA
ENDBRANCH   9  23
BRANCH   1  27
HETATM   27  C4  UNL     1      41.837   2.192 135.113  1.00  0.00     0.160 C 
BRANCH  27  28
HETATM   28  C3  UNL     1      41.752   2.889 133.803  1.00  0.00     0.103 C 
BRANCH  28  29
HETATM   29  S1  UNL     1      41.373   2.011 132.329  1.00  0.00    -0.089 SA
BRANCH  29  30
HETATM   30  C2  UNL     1      40.168   2.732 131.266  1.00  0.00     0.178 A 
HETATM   31  N1  UNL     1      38.862   2.348 131.239  1.00  0.00    -0.259 N 
HETATM   32  C1  UNL     1      38.278   1.321 132.064  1.00  0.00     0.181 C 
HETATM   33  N2  UNL     1      38.191   3.050 130.342  1.00  0.00    -0.224 N 
HETATM   34  N3  UNL     1      39.062   3.879 129.798  1.00  0.00    -0.226 N 
ATOM     35  H2  UNL     1      37.200   2.968 130.117  1.00  0.00     0.210 HD
HETATM   36  N4  UNL     1      40.257   3.682 130.361  1.00  0.00    -0.263 N 
ATOM     37  H3  UNL     1      38.855   4.559 129.066  1.00  0.00     0.210 HD
ATOM     38  H4  UNL     1      41.108   4.190 130.124  1.00  0.00     0.190 HD
ENDBRANCH  29  30
ENDBRANCH  28  29
ENDBRANCH  27  28
ENDBRANCH   1  27
BRANCH  19  39
HETATM   39  C13 UNL     1      42.661   6.603 137.363  1.00  0.00     0.348 C 
BRANCH  39  40
HETATM   40  N11 UNL     1      43.965   6.101 137.752  1.00  0.00     0.095 N 
HETATM   41  C14 UNL     1      44.952   6.876 137.070  1.00  0.00     0.273 C 
HETATM   42  C15 UNL     1      46.098   6.090 136.515  1.00  0.00     0.030 C 
HETATM   43  C16 UNL     1      46.922   5.399 137.554  1.00  0.00     0.002 C 
HETATM   44  C17 UNL     1      46.455   3.940 137.593  1.00  0.00     0.002 C 
HETATM   45  C18 UNL     1      45.098   3.976 138.302  1.00  0.00     0.030 C 
HETATM   46  C19 UNL     1      44.064   4.678 137.486  1.00  0.00     0.273 C 
ENDBRANCH  39  40
ENDBRANCH  19  39
TORSDOF 7
ENDMDL
MODEL 5
REMARK VINA RESULT: -9.764040803      2.407      4.578
REMARK  7 active torsions:
REMARK  status: ('A' for Active; 'I' for Inactive)
REMARK    1  A    between atoms: C2_9  and  S1_10 
REMARK    2  A    between atoms: S1_10  and  C3_11 
REMARK    3  A    between atoms: C3_11  and  C4_12 
REMARK    4  A    between atoms: C4_12  and  N5_13 
REMARK    5  A    between atoms: C6_21  and  S2_22 
REMARK    6  A    between atoms: C12_35  and  C13_36 
REMARK    7  A    between atoms: C13_36  and  N11_37 
ROOT
HETATM    1  N5  UNL     1      40.318   1.879 135.209  1.00  0.00    -0.165 N 
HETATM    2  C5  UNL     1      39.536   0.770 135.006  1.00  0.00     0.701 A 
HETATM    3  N6  UNL     1      39.749  -0.014 134.048  1.00  0.00    -0.233 N 
ATOM      4  H61 UNL     1      39.167  -0.839 133.899  1.00  0.00     0.174 HD
ATOM      5  H62 UNL     1      40.530   0.195 133.425  1.00  0.00     0.174 HD
HETATM    6  N7  UNL     1      38.509   0.495 135.825  1.00  0.00    -0.083 N 
HETATM    7  N8  UNL     1      37.643  -0.530 135.794  1.00  0.00    -0.265 N 
ATOM      8  H8  UNL     1      37.652  -1.277 135.099  1.00  0.00     0.189 HD
HETATM    9  C6  UNL     1      36.773  -0.437 136.789  1.00  0.00     0.189 A 
HETATM   10  C7  UNL     1      37.085   0.724 137.527  1.00  0.00     0.117 A 
HETATM   11  C8  UNL     1      36.303   1.047 138.652  1.00  0.00     0.105 C 
HETATM   12  N9  UNL     1      35.633   1.271 139.571  1.00  0.00    -0.191 NA
HETATM   13  C9  UNL     1      38.158   1.254 136.888  1.00  0.00     0.118 A 
HETATM   14  C10 UNL     1      38.918   2.379 137.124  1.00  0.00     0.108 A 
HETATM   15  C11 UNL     1      38.630   3.218 138.139  1.00  0.00     0.263 A 
HETATM   16  O4  UNL     1      37.744   3.100 138.950  1.00  0.00    -0.267 OA
HETATM   17  N10 UNL     1      39.400   4.345 138.309  1.00  0.00    -0.311 N 
ATOM     18  H10 UNL     1      39.185   4.982 139.075  1.00  0.00     0.170 HD
HETATM   19  C12 UNL     1      40.410   4.624 137.507  1.00  0.00     0.114 A 
HETATM   20  N12 UNL     1      40.701   3.790 136.497  1.00  0.00    -0.329 N 
ATOM     21  H12 UNL     1      41.486   4.022 135.889  1.00  0.00     0.168 HD
HETATM   22  C20 UNL     1      39.998   2.645 136.243  1.00  0.00     0.143 A 
ENDROOT
BRANCH   9  23
HETATM   23  S2  UNL     1      35.472  -1.589 137.099  1.00  0.00     0.157 S 
HETATM   24  O1  UNL     1      35.529  -2.054 138.513  1.00  0.00    -0.590 OA
HETATM   25  O2  UNL     1      35.637  -2.727 136.129  1.00  0.00    -0.590 OA
HETATM   26  O3  UNL     1      33.965  -0.870 136.829  1.00  0.00    -0.590 OA
ENDBRANCH   9  23
BRANCH   1  27
HETATM   27  C4  UNL     1      41.377   2.136 134.284  1.00  0.00     0.160 C 
BRANCH  27  28
HETATM   28  C3  UNL     1      42.616   1.333 134.447  1.00  0.00     0.103 C 
BRANCH  28  29
HETATM   29  S1  UNL     1      43.023   0.592 135.988  1.00  0.00    -0.089 SA
BRANCH  29  30
HETATM   30  C2  UNL     1      44.463   1.197 136.801  1.00  0.00     0.178 A 
HETATM   31  N1  UNL     1      45.479   0.397 137.227  1.00  0.00    -0.259 N 
HETATM   32  C1  UNL     1      45.533  -1.035 137.072  1.00  0.00     0.181 C 
HETATM   33  N2  UNL     1      46.422   1.116 137.810  1.00  0.00    -0.224 N 
HETATM   34  N3  UNL     1      46.013   2.370 137.759  1.00  0.00    -0.226 N 
ATOM     35  H2  UNL     1      47.291   0.772 138.217  1.00  0.00     0.210 HD
HETATM   36  N4  UNL     1      44.826   2.413 137.148  1.00  0.00    -0.263 N 
ATOM     37  H3  UNL     1      46.521   3.175 138.127  1.00  0.00     0.210 HD
ATOM     38  H4  UNL     1      44.284   3.259 136.976  1.00  0.00     0.190 HD
ENDBRANCH  29  30
ENDBRANCH  28  29
ENDBRANCH  27  28
ENDBRANCH   1  27
BRANCH  19  39
HETATM   39  C13 UNL     1      41.223   5.845 137.664  1.00  0.00     0.348 C 
BRANCH  39  40
HETATM   40  N11 UNL     1      42.651   5.591 137.609  1.00  0.00     0.095 N 
HETATM   41  C14 UNL     1      43.197   5.897 138.892  1.00  0.00     0.273 C 
HETATM   42  C15 UNL     1      44.500   6.633 138.862  1.00  0.00     0.030 C 
HETATM   43  C16 UNL     1      45.619   5.866 138.232  1.00  0.00     0.002 C 
HETATM   44  C17 UNL     1      45.751   6.376 136.794  1.00  0.00     0.002 C 
HETATM   45  C18 UNL     1      44.557   5.775 136.047  1.00  0.00     0.030 C 
HETATM   46  C19 UNL     1      43.261   6.341 136.527  1.00  0.00     0.273 C 
ENDBRANCH  39  40
ENDBRANCH  19  39
TORSDOF 7
ENDMDL
