MODEL 1
REMARK VINA RESULT: -6.833429487      0.000      0.000
REMARK  16 active torsions:
REMARK  status: ('A' for Active; 'I' for Inactive)
REMARK    1  A    between atoms: O1_2  and  C2_3 
REMARK    2  A    between atoms: C2_3  and  C3_5 
REMARK    3  A    between atoms: C4_6  and  O3_7 
REMARK    4  A    between atoms: C5_9  and  O4_10 
REMARK    5  A    between atoms: O4_10  and  C6_11 
REMARK    6  A    between atoms: C6_11  and  O6_13 
REMARK    7  A    between atoms: O6_13  and  C7_14 
REMARK    8  A    between atoms: C7_14  and  C10_17 
REMARK    9  A    between atoms: C10_17  and  N1_18 
REMARK   10  A    between atoms: C11_21  and  N3_22 
REMARK   11  A    between atoms: C13_28  and  C14_29 
REMARK   12  A    between atoms: C14_29  and  O9_31 
REMARK   13  A    between atoms: C16_33  and  O10_34 
REMARK   14  A    between atoms: O10_34  and  C17_35 
REMARK   15  A    between atoms: C19_38  and  O12_39 
REMARK   16  A    between atoms: O12_39  and  C20_40 
ROOT
HETATM    1  C3  UNL     1      36.902  -3.825 127.822  1.00  0.00     0.149 C 
HETATM    2  C4  UNL     1      36.516  -3.664 126.362  1.00  0.00     0.165 C 
HETATM    3  C5  UNL     1      37.212  -2.427 125.890  1.00  0.00     0.180 C 
HETATM    4  C13 UNL     1      38.682  -2.562 126.073  1.00  0.00     0.149 C 
HETATM    5  C16 UNL     1      39.172  -3.773 126.750  1.00  0.00     0.178 C 
HETATM    6  C19 UNL     1      38.358  -4.198 127.963  1.00  0.00     0.178 C 
ENDROOT
BRANCH   3   7
HETATM    7  O4  UNL     1      36.637  -1.241 126.331  1.00  0.00    -0.289 OA
BRANCH   7   8
HETATM    8  C6  UNL     1      35.876  -0.364 125.594  1.00  0.00     0.407 C 
HETATM    9  O5  UNL     1      35.010  -0.853 124.840  1.00  0.00    -0.229 OA
BRANCH   8  10
HETATM   10  O6  UNL     1      35.993   0.998 125.623  1.00  0.00    -0.286 OA
BRANCH  10  11
HETATM   11  C7  UNL     1      37.153   1.749 125.696  1.00  0.00     0.084 C 
HETATM   12  C8  UNL     1      36.700   3.175 125.301  1.00  0.00     0.048 C 
HETATM   13  C9  UNL     1      38.162   1.369 124.601  1.00  0.00     0.048 C 
BRANCH  11  14
HETATM   14  C10 UNL     1      37.906   1.762 126.967  1.00  0.00     0.191 C 
BRANCH  14  15
HETATM   15  N1  UNL     1      37.081   1.889 128.188  1.00  0.00    -0.247 N 
HETATM   16  N2  UNL     1      36.328   0.927 128.605  1.00  0.00    -0.274 N 
HETATM   17  C11 UNL     1      35.612   1.111 129.716  1.00  0.00     0.162 A 
ATOM     18  H2  UNL     1      36.281   0.044 128.096  1.00  0.00     0.189 HD
HETATM   19  S1  UNL     1      36.030   2.694 130.170  1.00  0.00     0.010 SA
HETATM   20  C12 UNL     1      37.108   3.022 128.890  1.00  0.00     0.308 A 
HETATM   21  O7  UNL     1      37.789   4.088 128.646  1.00  0.00    -0.258 OA
BRANCH  17  22
HETATM   22  N3  UNL     1      34.789   0.276 130.315  1.00  0.00    -0.378 N 
ATOM     23  H32 UNL     1      34.997  -0.631 130.733  1.00  0.00     0.158 HD
ATOM     24  H31 UNL     1      33.786   0.373 130.475  1.00  0.00     0.158 HD
ENDBRANCH  17  22
ENDBRANCH  14  15
ENDBRANCH  11  14
ENDBRANCH  10  11
ENDBRANCH   8  10
ENDBRANCH   7   8
ENDBRANCH   3   7
BRANCH   2  25
HETATM   25  O3  UNL     1      35.138  -3.607 126.292  1.00  0.00    -0.392 OA
ATOM     26  H3  UNL     1      34.900  -2.767 125.917  1.00  0.00     0.210 HD
ENDBRANCH   2  25
BRANCH   4  27
HETATM   27  C14 UNL     1      39.357  -2.298 124.784  1.00  0.00     0.267 C 
HETATM   28  O8  UNL     1      39.139  -2.860 123.708  1.00  0.00    -0.265 OA
BRANCH  27  29
HETATM   29  O9  UNL     1      40.354  -1.297 124.778  1.00  0.00    -0.326 OA
HETATM   30  C15 UNL     1      41.679  -1.631 124.417  1.00  0.00     0.213 C 
ENDBRANCH  27  29
ENDBRANCH   4  27
BRANCH   1  31
HETATM   31  C2  UNL     1      36.569  -2.634 128.612  1.00  0.00     0.267 C 
HETATM   32  O2  UNL     1      35.391  -2.237 128.732  1.00  0.00    -0.265 OA
BRANCH  31  33
HETATM   33  O1  UNL     1      37.565  -1.911 129.252  1.00  0.00    -0.326 OA
HETATM   34  C1  UNL     1      37.698  -1.944 130.678  1.00  0.00     0.213 C 
ENDBRANCH  31  33
ENDBRANCH   1  31
BRANCH   5  35
HETATM   35  O10 UNL     1      39.517  -4.875 125.944  1.00  0.00    -0.313 OA
BRANCH  35  36
HETATM   36  C17 UNL     1      40.752  -5.336 125.647  1.00  0.00     0.255 C 
HETATM   37  C18 UNL     1      40.936  -6.587 124.890  1.00  0.00     0.126 C 
HETATM   38  O11 UNL     1      41.725  -4.687 126.022  1.00  0.00    -0.266 OA
ENDBRANCH  35  36
ENDBRANCH   5  35
BRANCH   6  39
HETATM   39  O12 UNL     1      38.415  -5.590 128.170  1.00  0.00    -0.313 OA
BRANCH  39  40
HETATM   40  C20 UNL     1      37.891  -6.273 129.225  1.00  0.00     0.255 C 
HETATM   41  C21 UNL     1      38.165  -5.897 130.651  1.00  0.00     0.126 C 
HETATM   42  O13 UNL     1      37.142  -7.262 128.976  1.00  0.00    -0.266 OA
ENDBRANCH  39  40
ENDBRANCH   6  39
TORSDOF 16
ENDMDL
MODEL 2
REMARK VINA RESULT: -6.819033343      3.055      7.966
REMARK  16 active torsions:
REMARK  status: ('A' for Active; 'I' for Inactive)
REMARK    1  A    between atoms: O1_2  and  C2_3 
REMARK    2  A    between atoms: C2_3  and  C3_5 
REMARK    3  A    between atoms: C4_6  and  O3_7 
REMARK    4  A    between atoms: C5_9  and  O4_10 
REMARK    5  A    between atoms: O4_10  and  C6_11 
REMARK    6  A    between atoms: C6_11  and  O6_13 
REMARK    7  A    between atoms: O6_13  and  C7_14 
REMARK    8  A    between atoms: C7_14  and  C10_17 
REMARK    9  A    between atoms: C10_17  and  N1_18 
REMARK   10  A    between atoms: C11_21  and  N3_22 
REMARK   11  A    between atoms: C13_28  and  C14_29 
REMARK   12  A    between atoms: C14_29  and  O9_31 
REMARK   13  A    between atoms: C16_33  and  O10_34 
REMARK   14  A    between atoms: O10_34  and  C17_35 
REMARK   15  A    between atoms: C19_38  and  O12_39 
REMARK   16  A    between atoms: O12_39  and  C20_40 
ROOT
HETATM    1  C3  UNL     1      37.548   1.244 128.240  1.00  0.00     0.149 C 
HETATM    2  C4  UNL     1      36.485   0.287 127.730  1.00  0.00     0.165 C 
HETATM    3  C5  UNL     1      36.358  -0.775 128.775  1.00  0.00     0.180 C 
HETATM    4  C13 UNL     1      35.989  -0.169 130.082  1.00  0.00     0.149 C 
HETATM    5  C16 UNL     1      35.923   1.299 130.154  1.00  0.00     0.178 C 
HETATM    6  C19 UNL     1      37.052   2.023 129.435  1.00  0.00     0.178 C 
ENDROOT
BRANCH   3   7
HETATM    7  O4  UNL     1      37.398  -1.696 128.789  1.00  0.00    -0.289 OA
BRANCH   7   8
HETATM    8  C6  UNL     1      37.401  -2.936 129.385  1.00  0.00     0.407 C 
HETATM    9  O5  UNL     1      37.971  -3.037 130.491  1.00  0.00    -0.229 OA
BRANCH   8  10
HETATM   10  O6  UNL     1      36.829  -4.062 128.862  1.00  0.00    -0.286 OA
BRANCH  10  11
HETATM   11  C7  UNL     1      37.344  -4.903 127.891  1.00  0.00     0.084 C 
HETATM   12  C8  UNL     1      36.379  -4.726 126.694  1.00  0.00     0.048 C 
HETATM   13  C9  UNL     1      37.194  -6.386 128.266  1.00  0.00     0.048 C 
BRANCH  11  14
HETATM   14  C10 UNL     1      38.749  -4.722 127.474  1.00  0.00     0.191 C 
BRANCH  14  15
HETATM   15  N1  UNL     1      38.941  -4.027 126.183  1.00  0.00    -0.247 N 
HETATM   16  N2  UNL     1      38.671  -2.773 126.036  1.00  0.00    -0.274 N 
HETATM   17  C11 UNL     1      38.869  -2.212 124.843  1.00  0.00     0.162 A 
ATOM     18  H2  UNL     1      38.314  -2.223 126.818  1.00  0.00     0.189 HD
HETATM   19  S1  UNL     1      39.455  -3.508 123.913  1.00  0.00     0.010 SA
HETATM   20  C12 UNL     1      39.406  -4.701 125.131  1.00  0.00     0.308 A 
HETATM   21  O7  UNL     1      39.735  -5.945 125.071  1.00  0.00    -0.258 OA
BRANCH  17  22
HETATM   22  N3  UNL     1      38.666  -0.964 124.473  1.00  0.00    -0.378 N 
ATOM     23  H32 UNL     1      39.218  -0.393 123.834  1.00  0.00     0.158 HD
ATOM     24  H31 UNL     1      37.921  -0.328 124.756  1.00  0.00     0.158 HD
ENDBRANCH  17  22
ENDBRANCH  14  15
ENDBRANCH  11  14
ENDBRANCH  10  11
ENDBRANCH   8  10
ENDBRANCH   7   8
ENDBRANCH   3   7
BRANCH   2  25
HETATM   25  O3  UNL     1      36.890  -0.175 126.493  1.00  0.00    -0.392 OA
ATOM     26  H3  UNL     1      36.448  -1.000 126.331  1.00  0.00     0.210 HD
ENDBRANCH   2  25
BRANCH   4  27
HETATM   27  C14 UNL     1      34.775  -0.835 130.601  1.00  0.00     0.267 C 
HETATM   28  O8  UNL     1      33.881  -1.363 129.934  1.00  0.00    -0.265 OA
BRANCH  27  29
HETATM   29  O9  UNL     1      34.618  -0.877 132.004  1.00  0.00    -0.326 OA
HETATM   30  C15 UNL     1      35.755  -1.001 132.833  1.00  0.00     0.213 C 
ENDBRANCH  27  29
ENDBRANCH   4  27
BRANCH   1  31
HETATM   31  C2  UNL     1      38.812   0.558 128.529  1.00  0.00     0.267 C 
HETATM   32  O2  UNL     1      39.316   0.568 129.672  1.00  0.00    -0.265 OA
BRANCH  31  33
HETATM   33  O1  UNL     1      39.488  -0.126 127.529  1.00  0.00    -0.326 OA
HETATM   34  C1  UNL     1      40.647  -0.912 127.828  1.00  0.00     0.213 C 
ENDBRANCH  31  33
ENDBRANCH   1  31
BRANCH   5  35
HETATM   35  O10 UNL     1      34.677   1.908 129.908  1.00  0.00    -0.313 OA
BRANCH  35  36
HETATM   36  C17 UNL     1      33.866   2.532 130.792  1.00  0.00     0.255 C 
HETATM   37  C18 UNL     1      34.266   3.800 131.427  1.00  0.00     0.126 C 
HETATM   38  O11 UNL     1      32.782   2.019 131.056  1.00  0.00    -0.266 OA
ENDBRANCH  35  36
ENDBRANCH   5  35
BRANCH   6  39
HETATM   39  O12 UNL     1      36.649   3.290 128.969  1.00  0.00    -0.313 OA
BRANCH  39  40
HETATM   40  C20 UNL     1      37.355   4.450 129.067  1.00  0.00     0.255 C 
HETATM   41  C21 UNL     1      36.714   5.801 128.956  1.00  0.00     0.126 C 
HETATM   42  O13 UNL     1      38.603   4.369 129.260  1.00  0.00    -0.266 OA
ENDBRANCH  39  40
ENDBRANCH   6  39
TORSDOF 16
ENDMDL
MODEL 3
REMARK VINA RESULT: -6.818740623      8.029     12.474
REMARK  16 active torsions:
REMARK  status: ('A' for Active; 'I' for Inactive)
REMARK    1  A    between atoms: O1_2  and  C2_3 
REMARK    2  A    between atoms: C2_3  and  C3_5 
REMARK    3  A    between atoms: C4_6  and  O3_7 
REMARK    4  A    between atoms: C5_9  and  O4_10 
REMARK    5  A    between atoms: O4_10  and  C6_11 
REMARK    6  A    between atoms: C6_11  and  O6_13 
REMARK    7  A    between atoms: O6_13  and  C7_14 
REMARK    8  A    between atoms: C7_14  and  C10_17 
REMARK    9  A    between atoms: C10_17  and  N1_18 
REMARK   10  A    between atoms: C11_21  and  N3_22 
REMARK   11  A    between atoms: C13_28  and  C14_29 
REMARK   12  A    between atoms: C14_29  and  O9_31 
REMARK   13  A    between atoms: C16_33  and  O10_34 
REMARK   14  A    between atoms: O10_34  and  C17_35 
REMARK   15  A    between atoms: C19_38  and  O12_39 
REMARK   16  A    between atoms: O12_39  and  C20_40 
ROOT
HETATM    1  C3  UNL     1      37.520   2.445 136.441  1.00  0.00     0.149 C 
HETATM    2  C4  UNL     1      36.059   2.031 136.405  1.00  0.00     0.165 C 
HETATM    3  C5  UNL     1      35.978   0.755 137.181  1.00  0.00     0.180 C 
HETATM    4  C13 UNL     1      36.471   0.964 138.569  1.00  0.00     0.149 C 
HETATM    5  C16 UNL     1      37.027   2.285 138.898  1.00  0.00     0.178 C 
HETATM    6  C19 UNL     1      37.929   2.881 137.828  1.00  0.00     0.178 C 
ENDROOT
BRANCH   3   7
HETATM    7  O4  UNL     1      36.468  -0.358 136.509  1.00  0.00    -0.289 OA
BRANCH   7   8
HETATM    8  C6  UNL     1      36.226  -1.679 136.805  1.00  0.00     0.407 C 
HETATM    9  O5  UNL     1      35.057  -2.092 136.661  1.00  0.00    -0.229 OA
BRANCH   8  10
HETATM   10  O6  UNL     1      37.163  -2.573 137.244  1.00  0.00    -0.286 OA
BRANCH  10  11
HETATM   11  C7  UNL     1      38.160  -3.188 136.508  1.00  0.00     0.084 C 
HETATM   12  C8  UNL     1      38.830  -4.151 137.518  1.00  0.00     0.048 C 
HETATM   13  C9  UNL     1      39.287  -2.215 136.127  1.00  0.00     0.048 C 
BRANCH  11  14
HETATM   14  C10 UNL     1      37.786  -3.894 135.266  1.00  0.00     0.191 C 
BRANCH  14  15
HETATM   15  N1  UNL     1      37.595  -3.031 134.081  1.00  0.00    -0.247 N 
HETATM   16  N2  UNL     1      36.725  -2.076 134.066  1.00  0.00    -0.274 N 
HETATM   17  C11 UNL     1      36.608  -1.337 132.962  1.00  0.00     0.162 A 
ATOM     18  H2  UNL     1      36.140  -1.893 134.880  1.00  0.00     0.189 HD
HETATM   19  S1  UNL     1      37.769  -2.022 131.928  1.00  0.00     0.010 SA
HETATM   20  C12 UNL     1      38.336  -3.229 132.991  1.00  0.00     0.308 A 
HETATM   21  O7  UNL     1      39.251  -4.117 132.808  1.00  0.00    -0.258 OA
BRANCH  17  22
HETATM   22  N3  UNL     1      35.798  -0.325 132.729  1.00  0.00    -0.378 N 
ATOM     23  H32 UNL     1      34.783  -0.291 132.818  1.00  0.00     0.158 HD
ATOM     24  H31 UNL     1      36.028   0.618 132.414  1.00  0.00     0.158 HD
ENDBRANCH  17  22
ENDBRANCH  14  15
ENDBRANCH  11  14
ENDBRANCH  10  11
ENDBRANCH   8  10
ENDBRANCH   7   8
ENDBRANCH   3   7
BRANCH   2  25
HETATM   25  O3  UNL     1      35.683   1.921 135.082  1.00  0.00    -0.392 OA
ATOM     26  H3  UNL     1      36.133   1.170 134.712  1.00  0.00     0.210 HD
ENDBRANCH   2  25
BRANCH   4  27
HETATM   27  C14 UNL     1      35.436   0.509 139.523  1.00  0.00     0.267 C 
HETATM   28  O8  UNL     1      35.599   0.246 140.718  1.00  0.00    -0.265 OA
BRANCH  27  29
HETATM   29  O9  UNL     1      34.124   0.360 139.022  1.00  0.00    -0.326 OA
HETATM   30  C15 UNL     1      33.317  -0.707 139.477  1.00  0.00     0.213 C 
ENDBRANCH  27  29
ENDBRANCH   4  27
BRANCH   1  31
HETATM   31  C2  UNL     1      38.402   1.394 135.923  1.00  0.00     0.267 C 
HETATM   32  O2  UNL     1      39.342   0.934 136.605  1.00  0.00    -0.265 OA
BRANCH  31  33
HETATM   33  O1  UNL     1      38.211   0.878 134.649  1.00  0.00    -0.326 OA
HETATM   34  C1  UNL     1      39.263   0.909 133.678  1.00  0.00     0.213 C 
ENDBRANCH  31  33
ENDBRANCH   1  31
BRANCH   5  35
HETATM   35  O10 UNL     1      36.147   3.248 139.431  1.00  0.00    -0.313 OA
BRANCH  35  36
HETATM   36  C17 UNL     1      36.334   4.039 140.511  1.00  0.00     0.255 C 
HETATM   37  C18 UNL     1      36.903   3.501 141.760  1.00  0.00     0.126 C 
HETATM   38  O11 UNL     1      36.021   5.224 140.431  1.00  0.00    -0.266 OA
ENDBRANCH  35  36
ENDBRANCH   5  35
BRANCH   6  39
HETATM   39  O12 UNL     1      37.904   4.290 137.847  1.00  0.00    -0.313 OA
BRANCH  39  40
HETATM   40  C20 UNL     1      38.936   5.112 138.180  1.00  0.00     0.255 C 
HETATM   41  C21 UNL     1      39.514   5.169 139.563  1.00  0.00     0.126 C 
HETATM   42  O13 UNL     1      39.419   5.853 137.275  1.00  0.00    -0.266 OA
ENDBRANCH  39  40
ENDBRANCH   6  39
TORSDOF 16
ENDMDL
MODEL 4
REMARK VINA RESULT: -6.790732153      8.707     12.611
REMARK  16 active torsions:
REMARK  status: ('A' for Active; 'I' for Inactive)
REMARK    1  A    between atoms: O1_2  and  C2_3 
REMARK    2  A    between atoms: C2_3  and  C3_5 
REMARK    3  A    between atoms: C4_6  and  O3_7 
REMARK    4  A    between atoms: C5_9  and  O4_10 
REMARK    5  A    between atoms: O4_10  and  C6_11 
REMARK    6  A    between atoms: C6_11  and  O6_13 
REMARK    7  A    between atoms: O6_13  and  C7_14 
REMARK    8  A    between atoms: C7_14  and  C10_17 
REMARK    9  A    between atoms: C10_17  and  N1_18 
REMARK   10  A    between atoms: C11_21  and  N3_22 
REMARK   11  A    between atoms: C13_28  and  C14_29 
REMARK   12  A    between atoms: C14_29  and  O9_31 
REMARK   13  A    between atoms: C16_33  and  O10_34 
REMARK   14  A    between atoms: O10_34  and  C17_35 
REMARK   15  A    between atoms: C19_38  and  O12_39 
REMARK   16  A    between atoms: O12_39  and  C20_40 
ROOT
HETATM    1  C3  UNL     1      43.350   3.251 135.458  1.00  0.00     0.149 C 
HETATM    2  C4  UNL     1      42.016   3.842 135.037  1.00  0.00     0.165 C 
HETATM    3  C5  UNL     1      41.028   3.394 136.067  1.00  0.00     0.180 C 
HETATM    4  C13 UNL     1      41.448   3.855 137.417  1.00  0.00     0.149 C 
HETATM    5  C16 UNL     1      42.745   4.540 137.527  1.00  0.00     0.178 C 
HETATM    6  C19 UNL     1      43.867   3.912 136.713  1.00  0.00     0.178 C 
ENDROOT
BRANCH   3   7
HETATM    7  O4  UNL     1      40.646   2.063 135.956  1.00  0.00    -0.289 OA
BRANCH   7   8
HETATM    8  C6  UNL     1      39.379   1.549 136.099  1.00  0.00     0.407 C 
HETATM    9  O5  UNL     1      38.781   1.792 137.167  1.00  0.00    -0.229 OA
BRANCH   8  10
HETATM   10  O6  UNL     1      38.724   0.795 135.165  1.00  0.00    -0.286 OA
BRANCH  10  11
HETATM   11  C7  UNL     1      38.839  -0.565 134.938  1.00  0.00     0.084 C 
HETATM   12  C8  UNL     1      37.657  -0.888 133.993  1.00  0.00     0.048 C 
HETATM   13  C9  UNL     1      38.539  -1.392 136.197  1.00  0.00     0.048 C 
BRANCH  11  14
HETATM   14  C10 UNL     1      40.112  -1.083 134.396  1.00  0.00     0.191 C 
BRANCH  14  15
HETATM   15  N1  UNL     1      40.480  -0.578 133.055  1.00  0.00    -0.247 N 
HETATM   16  N2  UNL     1      40.582   0.685 132.806  1.00  0.00    -0.274 N 
HETATM   17  C11 UNL     1      40.919   1.068 131.574  1.00  0.00     0.162 A 
ATOM     18  H2  UNL     1      40.408   1.375 133.537  1.00  0.00     0.189 HD
HETATM   19  S1  UNL     1      41.094  -0.411 130.757  1.00  0.00     0.010 SA
HETATM   20  C12 UNL     1      40.718  -1.439 132.066  1.00  0.00     0.308 A 
HETATM   21  O7  UNL     1      40.673  -2.726 132.109  1.00  0.00    -0.258 OA
BRANCH  17  22
HETATM   22  N3  UNL     1      41.079   2.288 131.105  1.00  0.00    -0.378 N 
ATOM     23  H32 UNL     1      40.592   2.740 130.331  1.00  0.00     0.158 HD
ATOM     24  H31 UNL     1      41.722   3.015 131.420  1.00  0.00     0.158 HD
ENDBRANCH  17  22
ENDBRANCH  14  15
ENDBRANCH  11  14
ENDBRANCH  10  11
ENDBRANCH   8  10
ENDBRANCH   7   8
ENDBRANCH   3   7
BRANCH   2  25
HETATM   25  O3  UNL     1      41.745   3.404 133.756  1.00  0.00    -0.392 OA
ATOM     26  H3  UNL     1      40.991   2.827 133.799  1.00  0.00     0.210 HD
ENDBRANCH   2  25
BRANCH   4  27
HETATM   27  C14 UNL     1      40.336   4.605 138.040  1.00  0.00     0.267 C 
HETATM   28  O8  UNL     1      40.191   4.848 139.241  1.00  0.00    -0.265 OA
BRANCH  27  29
HETATM   29  O9  UNL     1      39.333   5.098 137.176  1.00  0.00    -0.326 OA
HETATM   30  C15 UNL     1      37.996   5.178 137.627  1.00  0.00     0.213 C 
ENDBRANCH  27  29
ENDBRANCH   4  27
BRANCH   1  31
HETATM   31  C2  UNL     1      43.283   1.792 135.603  1.00  0.00     0.267 C 
HETATM   32  O2  UNL     1      42.952   1.055 134.651  1.00  0.00    -0.265 OA
BRANCH  31  33
HETATM   33  O1  UNL     1      43.588   1.189 136.814  1.00  0.00    -0.326 OA
HETATM   34  C1  UNL     1      44.271  -0.069 136.859  1.00  0.00     0.213 C 
ENDBRANCH  31  33
ENDBRANCH   1  31
BRANCH   5  35
HETATM   35  O10 UNL     1      42.751   5.945 137.421  1.00  0.00    -0.313 OA
BRANCH  35  36
HETATM   36  C17 UNL     1      43.022   6.851 138.387  1.00  0.00     0.255 C 
HETATM   37  C18 UNL     1      43.847   6.495 139.555  1.00  0.00     0.126 C 
HETATM   38  O11 UNL     1      42.565   7.985 138.271  1.00  0.00    -0.266 OA
ENDBRANCH  35  36
ENDBRANCH   5  35
BRANCH   6  39
HETATM   39  O12 UNL     1      44.826   4.866 136.319  1.00  0.00    -0.313 OA
BRANCH  39  40
HETATM   40  C20 UNL     1      46.017   5.115 136.928  1.00  0.00     0.255 C 
HETATM   41  C21 UNL     1      46.893   4.026 137.473  1.00  0.00     0.126 C 
HETATM   42  O13 UNL     1      46.389   6.320 137.030  1.00  0.00    -0.266 OA
ENDBRANCH  39  40
ENDBRANCH   6  39
TORSDOF 16
ENDMDL
MODEL 5
REMARK VINA RESULT: -6.710040960      3.165      6.876
REMARK  16 active torsions:
REMARK  status: ('A' for Active; 'I' for Inactive)
REMARK    1  A    between atoms: O1_2  and  C2_3 
REMARK    2  A    between atoms: C2_3  and  C3_5 
REMARK    3  A    between atoms: C4_6  and  O3_7 
REMARK    4  A    between atoms: C5_9  and  O4_10 
REMARK    5  A    between atoms: O4_10  and  C6_11 
REMARK    6  A    between atoms: C6_11  and  O6_13 
REMARK    7  A    between atoms: O6_13  and  C7_14 
REMARK    8  A    between atoms: C7_14  and  C10_17 
REMARK    9  A    between atoms: C10_17  and  N1_18 
REMARK   10  A    between atoms: C11_21  and  N3_22 
REMARK   11  A    between atoms: C13_28  and  C14_29 
REMARK   12  A    between atoms: C14_29  and  O9_31 
REMARK   13  A    between atoms: C16_33  and  O10_34 
REMARK   14  A    between atoms: O10_34  and  C17_35 
REMARK   15  A    between atoms: C19_38  and  O12_39 
REMARK   16  A    between atoms: O12_39  and  C20_40 
ROOT
HETATM    1  C3  UNL     1      39.677  -2.264 130.531  1.00  0.00     0.149 C 
HETATM    2  C4  UNL     1      39.819  -2.078 129.030  1.00  0.00     0.165 C 
HETATM    3  C5  UNL     1      38.881  -3.061 128.406  1.00  0.00     0.180 C 
HETATM    4  C13 UNL     1      37.491  -2.816 128.876  1.00  0.00     0.149 C 
HETATM    5  C16 UNL     1      37.295  -1.778 129.900  1.00  0.00     0.178 C 
HETATM    6  C19 UNL     1      38.331  -1.781 131.014  1.00  0.00     0.178 C 
ENDROOT
BRANCH   3   7
HETATM    7  O4  UNL     1      39.324  -4.379 128.439  1.00  0.00    -0.289 OA
BRANCH   7   8
HETATM    8  C6  UNL     1      38.792  -5.449 127.759  1.00  0.00     0.407 C 
HETATM    9  O5  UNL     1      37.989  -6.177 128.377  1.00  0.00    -0.229 OA
BRANCH   8  10
HETATM   10  O6  UNL     1      39.075  -5.777 126.462  1.00  0.00    -0.286 OA
BRANCH  10  11
HETATM   11  C7  UNL     1      40.288  -6.180 125.932  1.00  0.00     0.084 C 
HETATM   12  C8  UNL     1      40.008  -7.603 125.394  1.00  0.00     0.048 C 
HETATM   13  C9  UNL     1      41.352  -6.402 127.018  1.00  0.00     0.048 C 
BRANCH  11  14
HETATM   14  C10 UNL     1      40.921  -5.334 124.900  1.00  0.00     0.191 C 
BRANCH  14  15
HETATM   15  N1  UNL     1      40.412  -3.948 124.818  1.00  0.00    -0.247 N 
HETATM   16  N2  UNL     1      39.305  -3.662 124.218  1.00  0.00    -0.274 N 
HETATM   17  C11 UNL     1      38.906  -2.390 124.185  1.00  0.00     0.162 A 
ATOM     18  H2  UNL     1      38.747  -4.394 123.778  1.00  0.00     0.189 HD
HETATM   19  S1  UNL     1      40.142  -1.589 125.032  1.00  0.00     0.010 SA
HETATM   20  C12 UNL     1      41.103  -2.955 125.378  1.00  0.00     0.308 A 
HETATM   21  O7  UNL     1      42.217  -3.030 126.020  1.00  0.00    -0.258 OA
BRANCH  17  22
HETATM   22  N3  UNL     1      37.824  -1.878 123.636  1.00  0.00    -0.378 N 
ATOM     23  H32 UNL     1      36.862  -1.921 123.970  1.00  0.00     0.158 HD
ATOM     24  H31 UNL     1      37.738  -1.345 122.771  1.00  0.00     0.158 HD
ENDBRANCH  17  22
ENDBRANCH  14  15
ENDBRANCH  11  14
ENDBRANCH  10  11
ENDBRANCH   8  10
ENDBRANCH   7   8
ENDBRANCH   3   7
BRANCH   2  25
HETATM   25  O3  UNL     1      41.147  -2.269 128.704  1.00  0.00    -0.392 OA
ATOM     26  H3  UNL     1      41.269  -3.190 128.503  1.00  0.00     0.210 HD
ENDBRANCH   2  25
BRANCH   4  27
HETATM   27  C14 UNL     1      36.605  -2.655 127.702  1.00  0.00     0.267 C 
HETATM   28  O8  UNL     1      36.903  -2.153 126.616  1.00  0.00    -0.265 OA
BRANCH  27  29
HETATM   29  O9  UNL     1      35.279  -3.124 127.833  1.00  0.00    -0.326 OA
HETATM   30  C15 UNL     1      34.238  -2.494 127.113  1.00  0.00     0.213 C 
ENDBRANCH  27  29
ENDBRANCH   4  27
BRANCH   1  31
HETATM   31  C2  UNL     1      39.933  -3.650 130.939  1.00  0.00     0.267 C 
HETATM   32  O2  UNL     1      41.048  -4.187 130.769  1.00  0.00    -0.265 OA
BRANCH  31  33
HETATM   33  O1  UNL     1      38.932  -4.408 131.529  1.00  0.00    -0.326 OA
HETATM   34  C1  UNL     1      39.090  -5.818 131.719  1.00  0.00     0.213 C 
ENDBRANCH  31  33
ENDBRANCH   1  31
BRANCH   5  35
HETATM   35  O10 UNL     1      37.012  -0.471 129.457  1.00  0.00    -0.313 OA
BRANCH  35  36
HETATM   36  C17 UNL     1      35.898   0.261 129.681  1.00  0.00     0.255 C 
HETATM   37  C18 UNL     1      35.962   1.728 129.804  1.00  0.00     0.126 C 
HETATM   38  O11 UNL     1      34.823  -0.324 129.779  1.00  0.00    -0.266 OA
ENDBRANCH  35  36
ENDBRANCH   5  35
BRANCH   6  39
HETATM   39  O12 UNL     1      38.520  -0.494 131.557  1.00  0.00    -0.313 OA
BRANCH  39  40
HETATM   40  C20 UNL     1      38.125  -0.070 132.789  1.00  0.00     0.255 C 
HETATM   41  C21 UNL     1      39.091   0.428 133.823  1.00  0.00     0.126 C 
HETATM   42  O13 UNL     1      36.889  -0.103 133.059  1.00  0.00    -0.266 OA
ENDBRANCH  39  40
ENDBRANCH   6  39
TORSDOF 16
ENDMDL
