MODEL 1
REMARK VINA RESULT: -8.866235525      0.000      0.000
REMARK  10 active torsions:
REMARK  status: ('A' for Active; 'I' for Inactive)
REMARK    1  A    between atoms: C2_2  and  C3_3 
REMARK    2  A    between atoms: C2_2  and  C20_22 
REMARK    3  A    between atoms: C12_12  and  C13_13 
REMARK    4  A    between atoms: C13_13  and  C14_14 
REMARK    5  A    between atoms: C13_13  and  N1_16 
REMARK    6  A    between atoms: C23_25  and  C25_27 
REMARK       I    between atoms: C25_27  and  N2_29 
REMARK    7  A    between atoms: N2_29  and  C26_31 
REMARK    8  A    between atoms: C26_31  and  C27_32 
REMARK    9  A    between atoms: C27_32  and  C28_33 
REMARK   10  A    between atoms: C28_33  and  C29_34 
ROOT
HETATM    1  C3  UNL     1      11.331  -6.955  22.740  1.00  0.00     0.018 C 
HETATM    2  C4  UNL     1      10.659  -7.460  24.033  1.00  0.00     0.010 C 
HETATM    3  C5  UNL     1      11.168  -6.504  25.109  1.00  0.00     0.006 C 
HETATM    4  C6  UNL     1      11.875  -5.430  24.386  1.00  0.00    -0.005 C 
HETATM    5  C7  UNL     1      11.272  -5.498  22.986  1.00  0.00    -0.002 C 
HETATM    6  C8  UNL     1      12.187  -4.631  22.173  1.00  0.00     0.006 C 
HETATM    7  C9  UNL     1      11.894  -3.202  22.602  1.00  0.00     0.011 C 
HETATM    8  C10 UNL     1      12.212  -2.971  24.029  1.00  0.00    -0.031 C 
HETATM    9  C11 UNL     1      13.738  -2.917  24.177  1.00  0.00     0.016 C 
HETATM   10  C12 UNL     1      11.528  -1.782  24.633  1.00  0.00     0.039 C 
HETATM   11  C17 UNL     1      10.153  -2.306  24.871  1.00  0.00     0.011 C 
HETATM   12  C18 UNL     1      10.407  -3.711  25.473  1.00  0.00     0.006 C 
HETATM   13  C19 UNL     1      11.765  -4.063  24.980  1.00  0.00    -0.001 C 
ENDROOT
BRANCH   1  14
HETATM   14  C2  UNL     1      10.556  -7.440  21.588  1.00  0.00    -0.079 C 
HETATM   15  C1  UNL     1      10.702  -6.922  20.367  1.00  0.00     0.015 C 
BRANCH  14  16
HETATM   16  C20 UNL     1       9.583  -8.520  21.747  1.00  0.00     0.031 C 
HETATM   17  C21 UNL     1       8.792  -8.900  20.489  1.00  0.00     0.011 C 
HETATM   18  C22 UNL     1       8.724 -10.301  21.110  1.00  0.00     0.020 C 
HETATM   19  C23 UNL     1      10.051  -9.932  21.795  1.00  0.00     0.044 C 
HETATM   20  C24 UNL     1      10.029 -10.563  23.188  1.00  0.00     0.026 C 
BRANCH  19  21
HETATM   21  C25 UNL     1      11.228 -10.318  21.059  1.00  0.00     0.226 C 
HETATM   22  O1  UNL     1      11.223 -10.488  19.826  1.00  0.00    -0.273 OA
HETATM   23  N2  UNL     1      12.459 -10.519  21.746  1.00  0.00    -0.360 N 
ATOM     24  H2  UNL     1      12.477 -10.385  22.757  1.00  0.00     0.162 HD
BRANCH  23  25
HETATM   25  C26 UNL     1      13.667 -10.898  21.093  1.00  0.00     0.122 C 
BRANCH  25  26
HETATM   26  C27 UNL     1      14.785  -9.953  21.272  1.00  0.00     0.020 C 
BRANCH  26  27
HETATM   27  C28 UNL     1      14.789  -9.035  22.425  1.00  0.00     0.001 C 
BRANCH  27  28
HETATM   28  C29 UNL     1      16.085  -8.739  23.108  1.00  0.00    -0.004 C 
HETATM   29  C30 UNL     1      17.247  -9.274  22.232  1.00  0.00     0.005 C 
ENDBRANCH  27  28
ENDBRANCH  26  27
ENDBRANCH  25  26
ENDBRANCH  23  25
ENDBRANCH  19  21
ENDBRANCH  14  16
ENDBRANCH   1  14
BRANCH  10  30
HETATM   30  C13 UNL     1      11.556  -0.502  23.938  1.00  0.00    -0.014 C 
BRANCH  30  31
HETATM   31  C14 UNL     1      10.142  -0.005  23.542  1.00  0.00     0.048 C 
HETATM   32  C15 UNL     1      10.055  -0.140  22.008  1.00  0.00     0.011 C 
ENDBRANCH  30  31
BRANCH  30  33
HETATM   33  N1  UNL     1      12.356   0.573  24.342  1.00  0.00    -0.400 N 
HETATM   34  C16 UNL     1      12.441   1.757  23.567  1.00  0.00     0.145 C 
ATOM     35  H1  UNL     1      12.888   0.503  25.210  1.00  0.00     0.158 HD
ENDBRANCH  30  33
ENDBRANCH  10  30
TORSDOF 10
ENDMDL
MODEL 2
REMARK VINA RESULT: -8.768090364      4.017      8.520
REMARK  10 active torsions:
REMARK  status: ('A' for Active; 'I' for Inactive)
REMARK    1  A    between atoms: C2_2  and  C3_3 
REMARK    2  A    between atoms: C2_2  and  C20_22 
REMARK    3  A    between atoms: C12_12  and  C13_13 
REMARK    4  A    between atoms: C13_13  and  C14_14 
REMARK    5  A    between atoms: C13_13  and  N1_16 
REMARK    6  A    between atoms: C23_25  and  C25_27 
REMARK       I    between atoms: C25_27  and  N2_29 
REMARK    7  A    between atoms: N2_29  and  C26_31 
REMARK    8  A    between atoms: C26_31  and  C27_32 
REMARK    9  A    between atoms: C27_32  and  C28_33 
REMARK   10  A    between atoms: C28_33  and  C29_34 
ROOT
HETATM    1  C3  UNL     1      12.174  -4.461  25.890  1.00  0.00     0.018 C 
HETATM    2  C4  UNL     1      12.252  -3.344  24.830  1.00  0.00     0.010 C 
HETATM    3  C5  UNL     1      12.896  -4.026  23.625  1.00  0.00     0.006 C 
HETATM    4  C6  UNL     1      12.937  -5.463  23.956  1.00  0.00    -0.005 C 
HETATM    5  C7  UNL     1      11.849  -5.608  25.015  1.00  0.00    -0.002 C 
HETATM    6  C8  UNL     1      12.088  -6.980  25.572  1.00  0.00     0.006 C 
HETATM    7  C9  UNL     1      11.642  -7.950  24.489  1.00  0.00     0.011 C 
HETATM    8  C10 UNL     1      12.450  -7.821  23.256  1.00  0.00    -0.031 C 
HETATM    9  C11 UNL     1      13.830  -8.436  23.521  1.00  0.00     0.016 C 
HETATM   10  C12 UNL     1      11.797  -8.372  22.024  1.00  0.00     0.039 C 
HETATM   11  C17 UNL     1      10.830  -7.291  21.680  1.00  0.00     0.011 C 
HETATM   12  C18 UNL     1      11.662  -5.996  21.862  1.00  0.00     0.006 C 
HETATM   13  C19 UNL     1      12.735  -6.401  22.810  1.00  0.00    -0.001 C 
ENDROOT
BRANCH   1  14
HETATM   14  C2  UNL     1      11.145  -4.100  26.878  1.00  0.00    -0.079 C 
HETATM   15  C1  UNL     1       9.844  -4.117  26.585  1.00  0.00     0.015 C 
BRANCH  14  16
HETATM   16  C20 UNL     1      11.522  -3.702  28.233  1.00  0.00     0.031 C 
HETATM   17  C21 UNL     1      10.362  -3.405  29.192  1.00  0.00     0.011 C 
HETATM   18  C22 UNL     1      11.326  -3.859  30.295  1.00  0.00     0.020 C 
HETATM   19  C23 UNL     1      11.972  -4.733  29.207  1.00  0.00     0.044 C 
HETATM   20  C24 UNL     1      13.478  -4.745  29.473  1.00  0.00     0.026 C 
BRANCH  19  21
HETATM   21  C25 UNL     1      11.441  -6.070  29.124  1.00  0.00     0.226 C 
HETATM   22  O1  UNL     1      12.129  -7.045  28.769  1.00  0.00    -0.273 OA
HETATM   23  N2  UNL     1      10.077  -6.313  29.454  1.00  0.00    -0.360 N 
ATOM     24  H2  UNL     1       9.501  -5.523  29.744  1.00  0.00     0.162 HD
BRANCH  23  25
HETATM   25  C26 UNL     1       9.476  -7.604  29.400  1.00  0.00     0.122 C 
BRANCH  25  26
HETATM   26  C27 UNL     1       8.809  -8.023  30.647  1.00  0.00     0.020 C 
BRANCH  26  27
HETATM   27  C28 UNL     1       9.119  -7.331  31.911  1.00  0.00     0.001 C 
BRANCH  27  28
HETATM   28  C29 UNL     1       8.061  -6.494  32.553  1.00  0.00    -0.004 C 
HETATM   29  C30 UNL     1       8.451  -4.999  32.415  1.00  0.00     0.005 C 
ENDBRANCH  27  28
ENDBRANCH  26  27
ENDBRANCH  25  26
ENDBRANCH  23  25
ENDBRANCH  19  21
ENDBRANCH  14  16
ENDBRANCH   1  14
BRANCH  10  30
HETATM   30  C13 UNL     1      11.204  -9.701  22.054  1.00  0.00    -0.014 C 
BRANCH  30  31
HETATM   31  C14 UNL     1       9.670  -9.679  21.830  1.00  0.00     0.048 C 
HETATM   32  C15 UNL     1       9.041 -10.241  23.121  1.00  0.00     0.011 C 
ENDBRANCH  30  31
BRANCH  30  33
HETATM   33  N1  UNL     1      11.775 -10.810  21.416  1.00  0.00    -0.400 N 
HETATM   34  C16 UNL     1      13.109 -10.775  20.936  1.00  0.00     0.145 C 
ATOM     35  H1  UNL     1      11.220 -11.657  21.294  1.00  0.00     0.158 HD
ENDBRANCH  30  33
ENDBRANCH  10  30
TORSDOF 10
ENDMDL
MODEL 3
REMARK VINA RESULT: -8.748037888      2.996      4.405
REMARK  10 active torsions:
REMARK  status: ('A' for Active; 'I' for Inactive)
REMARK    1  A    between atoms: C2_2  and  C3_3 
REMARK    2  A    between atoms: C2_2  and  C20_22 
REMARK    3  A    between atoms: C12_12  and  C13_13 
REMARK    4  A    between atoms: C13_13  and  C14_14 
REMARK    5  A    between atoms: C13_13  and  N1_16 
REMARK    6  A    between atoms: C23_25  and  C25_27 
REMARK       I    between atoms: C25_27  and  N2_29 
REMARK    7  A    between atoms: N2_29  and  C26_31 
REMARK    8  A    between atoms: C26_31  and  C27_32 
REMARK    9  A    between atoms: C27_32  and  C28_33 
REMARK   10  A    between atoms: C28_33  and  C29_34 
ROOT
HETATM    1  C3  UNL     1      11.554  -7.072  24.362  1.00  0.00     0.018 C 
HETATM    2  C4  UNL     1      12.644  -8.047  24.853  1.00  0.00     0.010 C 
HETATM    3  C5  UNL     1      13.378  -7.262  25.937  1.00  0.00     0.006 C 
HETATM    4  C6  UNL     1      12.576  -6.044  26.159  1.00  0.00    -0.005 C 
HETATM    5  C7  UNL     1      11.193  -6.440  25.650  1.00  0.00    -0.002 C 
HETATM    6  C8  UNL     1      10.460  -5.133  25.586  1.00  0.00     0.006 C 
HETATM    7  C9  UNL     1      10.192  -4.737  27.030  1.00  0.00     0.011 C 
HETATM    8  C10 UNL     1      11.443  -4.512  27.789  1.00  0.00    -0.031 C 
HETATM    9  C11 UNL     1      12.051  -3.182  27.326  1.00  0.00     0.016 C 
HETATM   10  C12 UNL     1      11.288  -4.592  29.278  1.00  0.00     0.039 C 
HETATM   11  C17 UNL     1      11.243  -6.064  29.503  1.00  0.00     0.011 C 
HETATM   12  C18 UNL     1      12.381  -6.599  28.597  1.00  0.00     0.006 C 
HETATM   13  C19 UNL     1      12.533  -5.539  27.566  1.00  0.00    -0.001 C 
ENDROOT
BRANCH   1  14
HETATM   14  C2  UNL     1      10.488  -7.848  23.711  1.00  0.00    -0.079 C 
HETATM   15  C1  UNL     1       9.806  -8.796  24.356  1.00  0.00     0.015 C 
BRANCH  14  16
HETATM   16  C20 UNL     1      10.138  -7.604  22.313  1.00  0.00     0.031 C 
HETATM   17  C21 UNL     1      11.095  -6.696  21.530  1.00  0.00     0.011 C 
HETATM   18  C22 UNL     1      10.650  -7.499  20.302  1.00  0.00     0.020 C 
HETATM   19  C23 UNL     1      10.408  -8.652  21.291  1.00  0.00     0.044 C 
HETATM   20  C24 UNL     1       9.169  -9.408  20.809  1.00  0.00     0.026 C 
BRANCH  19  21
HETATM   21  C25 UNL     1      11.533  -9.537  21.460  1.00  0.00     0.226 C 
HETATM   22  O1  UNL     1      11.402 -10.763  21.633  1.00  0.00    -0.273 OA
HETATM   23  N2  UNL     1      12.857  -9.014  21.432  1.00  0.00    -0.360 N 
ATOM     24  H2  UNL     1      12.979  -8.011  21.293  1.00  0.00     0.162 HD
BRANCH  23  25
HETATM   25  C26 UNL     1      14.022  -9.820  21.588  1.00  0.00     0.122 C 
BRANCH  25  26
HETATM   26  C27 UNL     1      15.144  -9.151  22.272  1.00  0.00     0.020 C 
BRANCH  26  27
HETATM   27  C28 UNL     1      16.531  -9.517  21.932  1.00  0.00     0.001 C 
BRANCH  27  28
HETATM   28  C29 UNL     1      16.815 -10.093  20.583  1.00  0.00    -0.004 C 
HETATM   29  C30 UNL     1      18.320 -10.455  20.498  1.00  0.00     0.005 C 
ENDBRANCH  27  28
ENDBRANCH  26  27
ENDBRANCH  25  26
ENDBRANCH  23  25
ENDBRANCH  19  21
ENDBRANCH  14  16
ENDBRANCH   1  14
BRANCH  10  30
HETATM   30  C13 UNL     1      10.210  -3.865  29.933  1.00  0.00    -0.014 C 
BRANCH  30  31
HETATM   31  C14 UNL     1       9.362  -4.764  30.868  1.00  0.00     0.048 C 
HETATM   32  C15 UNL     1       8.951  -3.876  32.060  1.00  0.00     0.011 C 
ENDBRANCH  30  31
BRANCH  30  33
HETATM   33  N1  UNL     1      10.374  -2.593  30.495  1.00  0.00    -0.400 N 
HETATM   34  C16 UNL     1      11.663  -2.033  30.681  1.00  0.00     0.145 C 
ATOM     35  H1  UNL     1       9.550  -2.059  30.775  1.00  0.00     0.158 HD
ENDBRANCH  30  33
ENDBRANCH  10  30
TORSDOF 10
ENDMDL
MODEL 4
REMARK VINA RESULT: -8.735424395      2.924      5.262
REMARK  10 active torsions:
REMARK  status: ('A' for Active; 'I' for Inactive)
REMARK    1  A    between atoms: C2_2  and  C3_3 
REMARK    2  A    between atoms: C2_2  and  C20_22 
REMARK    3  A    between atoms: C12_12  and  C13_13 
REMARK    4  A    between atoms: C13_13  and  C14_14 
REMARK    5  A    between atoms: C13_13  and  N1_16 
REMARK    6  A    between atoms: C23_25  and  C25_27 
REMARK       I    between atoms: C25_27  and  N2_29 
REMARK    7  A    between atoms: N2_29  and  C26_31 
REMARK    8  A    between atoms: C26_31  and  C27_32 
REMARK    9  A    between atoms: C27_32  and  C28_33 
REMARK   10  A    between atoms: C28_33  and  C29_34 
ROOT
HETATM    1  C3  UNL     1      11.315  -6.580  23.046  1.00  0.00     0.018 C 
HETATM    2  C4  UNL     1      11.376  -5.053  22.838  1.00  0.00     0.010 C 
HETATM    3  C5  UNL     1      12.370  -4.578  23.895  1.00  0.00     0.006 C 
HETATM    4  C6  UNL     1      12.964  -5.803  24.462  1.00  0.00    -0.005 C 
HETATM    5  C7  UNL     1      12.735  -6.840  23.368  1.00  0.00    -0.002 C 
HETATM    6  C8  UNL     1      13.053  -8.139  24.049  1.00  0.00     0.006 C 
HETATM    7  C9  UNL     1      14.563  -8.155  24.225  1.00  0.00     0.011 C 
HETATM    8  C10 UNL     1      15.035  -7.062  25.104  1.00  0.00    -0.031 C 
HETATM    9  C11 UNL     1      14.660  -7.414  26.549  1.00  0.00     0.016 C 
HETATM   10  C12 UNL     1      16.487  -6.722  24.947  1.00  0.00     0.039 C 
HETATM   11  C17 UNL     1      16.480  -5.912  23.697  1.00  0.00     0.011 C 
HETATM   12  C18 UNL     1      15.260  -4.975  23.885  1.00  0.00     0.006 C 
HETATM   13  C19 UNL     1      14.403  -5.708  24.855  1.00  0.00    -0.001 C 
ENDROOT
BRANCH   1  14
HETATM   14  C2  UNL     1      10.816  -7.203  21.810  1.00  0.00    -0.079 C 
HETATM   15  C1  UNL     1      11.244  -6.827  20.604  1.00  0.00     0.015 C 
BRANCH  14  16
HETATM   16  C20 UNL     1       9.816  -8.269  21.865  1.00  0.00     0.031 C 
HETATM   17  C21 UNL     1       9.068  -8.555  20.557  1.00  0.00     0.011 C 
HETATM   18  C22 UNL     1       8.948  -9.988  21.088  1.00  0.00     0.020 C 
HETATM   19  C23 UNL     1      10.253  -9.691  21.846  1.00  0.00     0.044 C 
HETATM   20  C24 UNL     1      10.164 -10.404  23.195  1.00  0.00     0.026 C 
BRANCH  19  21
HETATM   21  C25 UNL     1      11.451 -10.058  21.133  1.00  0.00     0.226 C 
HETATM   22  O1  UNL     1      11.497 -10.133  19.891  1.00  0.00    -0.273 OA
HETATM   23  N2  UNL     1      12.643 -10.351  21.854  1.00  0.00    -0.360 N 
ATOM     24  H2  UNL     1      12.619 -10.296  22.873  1.00  0.00     0.162 HD
BRANCH  23  25
HETATM   25  C26 UNL     1      13.868 -10.719  21.227  1.00  0.00     0.122 C 
BRANCH  25  26
HETATM   26  C27 UNL     1      14.854  -9.628  21.117  1.00  0.00     0.020 C 
BRANCH  26  27
HETATM   27  C28 UNL     1      16.286  -9.913  21.315  1.00  0.00     0.001 C 
BRANCH  27  28
HETATM   28  C29 UNL     1      17.108 -10.332  20.139  1.00  0.00    -0.004 C 
HETATM   29  C30 UNL     1      18.588 -10.462  20.582  1.00  0.00     0.005 C 
ENDBRANCH  27  28
ENDBRANCH  26  27
ENDBRANCH  25  26
ENDBRANCH  23  25
ENDBRANCH  19  21
ENDBRANCH  14  16
ENDBRANCH   1  14
BRANCH  10  30
HETATM   30  C13 UNL     1      17.482  -7.785  24.953  1.00  0.00    -0.014 C 
BRANCH  30  31
HETATM   31  C14 UNL     1      18.288  -7.857  23.631  1.00  0.00     0.048 C 
HETATM   32  C15 UNL     1      19.392  -8.909  23.859  1.00  0.00     0.011 C 
ENDBRANCH  30  31
BRANCH  30  33
HETATM   33  N1  UNL     1      18.314  -8.051  26.047  1.00  0.00    -0.400 N 
HETATM   34  C16 UNL     1      18.466  -7.113  27.099  1.00  0.00     0.145 C 
ATOM     35  H1  UNL     1      18.819  -8.936  26.088  1.00  0.00     0.158 HD
ENDBRANCH  30  33
ENDBRANCH  10  30
TORSDOF 10
ENDMDL
MODEL 5
REMARK VINA RESULT: -8.634644707      4.717      9.279
REMARK  10 active torsions:
REMARK  status: ('A' for Active; 'I' for Inactive)
REMARK    1  A    between atoms: C2_2  and  C3_3 
REMARK    2  A    between atoms: C2_2  and  C20_22 
REMARK    3  A    between atoms: C12_12  and  C13_13 
REMARK    4  A    between atoms: C13_13  and  C14_14 
REMARK    5  A    between atoms: C13_13  and  N1_16 
REMARK    6  A    between atoms: C23_25  and  C25_27 
REMARK       I    between atoms: C25_27  and  N2_29 
REMARK    7  A    between atoms: N2_29  and  C26_31 
REMARK    8  A    between atoms: C26_31  and  C27_32 
REMARK    9  A    between atoms: C27_32  and  C28_33 
REMARK   10  A    between atoms: C28_33  and  C29_34 
ROOT
HETATM    1  C3  UNL     1      12.005  -4.399  28.175  1.00  0.00     0.018 C 
HETATM    2  C4  UNL     1      13.348  -5.076  28.518  1.00  0.00     0.010 C 
HETATM    3  C5  UNL     1      13.096  -6.555  28.235  1.00  0.00     0.006 C 
HETATM    4  C6  UNL     1      11.783  -6.615  27.566  1.00  0.00    -0.005 C 
HETATM    5  C7  UNL     1      11.616  -5.208  27.000  1.00  0.00    -0.002 C 
HETATM    6  C8  UNL     1      10.173  -5.168  26.592  1.00  0.00     0.006 C 
HETATM    7  C9  UNL     1      10.067  -6.048  25.356  1.00  0.00     0.011 C 
HETATM    8  C10 UNL     1      10.411  -7.459  25.645  1.00  0.00    -0.031 C 
HETATM    9  C11 UNL     1       9.254  -8.082  26.436  1.00  0.00     0.016 C 
HETATM   10  C12 UNL     1      10.789  -8.265  24.438  1.00  0.00     0.039 C 
HETATM   11  C17 UNL     1      12.190  -7.818  24.198  1.00  0.00     0.011 C 
HETATM   12  C18 UNL     1      12.812  -7.812  25.617  1.00  0.00     0.006 C 
HETATM   13  C19 UNL     1      11.634  -7.666  26.514  1.00  0.00    -0.001 C 
ENDROOT
BRANCH   1  14
HETATM   14  C2  UNL     1      12.251  -2.972  27.915  1.00  0.00    -0.079 C 
HETATM   15  C1  UNL     1      11.930  -2.397  26.755  1.00  0.00     0.015 C 
BRANCH  14  16
HETATM   16  C20 UNL     1      12.868  -2.126  28.935  1.00  0.00     0.031 C 
HETATM   17  C21 UNL     1      12.488  -0.640  28.893  1.00  0.00     0.011 C 
HETATM   18  C22 UNL     1      12.741  -0.665  30.406  1.00  0.00     0.020 C 
HETATM   19  C23 UNL     1      12.346  -2.149  30.328  1.00  0.00     0.044 C 
HETATM   20  C24 UNL     1      13.226  -2.902  31.326  1.00  0.00     0.026 C 
BRANCH  19  21
HETATM   21  C25 UNL     1      10.947  -2.407  30.560  1.00  0.00     0.226 C 
HETATM   22  O1  UNL     1      10.049  -1.647  30.152  1.00  0.00    -0.273 OA
HETATM   23  N2  UNL     1      10.549  -3.568  31.280  1.00  0.00    -0.360 N 
ATOM     24  H2  UNL     1      11.275  -4.198  31.622  1.00  0.00     0.162 HD
BRANCH  23  25
HETATM   25  C26 UNL     1       9.189  -3.896  31.550  1.00  0.00     0.122 C 
BRANCH  25  26
HETATM   26  C27 UNL     1       8.851  -5.318  31.358  1.00  0.00     0.020 C 
BRANCH  26  27
HETATM   27  C28 UNL     1       9.609  -6.126  30.386  1.00  0.00     0.001 C 
BRANCH  27  28
HETATM   28  C29 UNL     1       9.305  -7.585  30.268  1.00  0.00    -0.004 C 
HETATM   29  C30 UNL     1       8.510  -8.035  31.521  1.00  0.00     0.005 C 
ENDBRANCH  27  28
ENDBRANCH  26  27
ENDBRANCH  25  26
ENDBRANCH  23  25
ENDBRANCH  19  21
ENDBRANCH  14  16
ENDBRANCH   1  14
BRANCH  10  30
HETATM   30  C13 UNL     1       9.949  -8.225  23.250  1.00  0.00    -0.014 C 
BRANCH  30  31
HETATM   31  C14 UNL     1      10.721  -7.772  21.985  1.00  0.00     0.048 C 
HETATM   32  C15 UNL     1       9.857  -8.199  20.781  1.00  0.00     0.011 C 
ENDBRANCH  30  31
BRANCH  30  33
HETATM   33  N1  UNL     1       9.029  -9.230  22.928  1.00  0.00    -0.400 N 
HETATM   34  C16 UNL     1       9.085 -10.504  23.549  1.00  0.00     0.145 C 
ATOM     35  H1  UNL     1       8.305  -9.043  22.233  1.00  0.00     0.158 HD
ENDBRANCH  30  33
ENDBRANCH  10  30
TORSDOF 10
ENDMDL
