MODEL 1
REMARK VINA RESULT: -9.555149398      0.000      0.000
REMARK  10 active torsions:
REMARK  status: ('A' for Active; 'I' for Inactive)
REMARK    1  A    between atoms: C2_2  and  C3_3 
REMARK    2  A    between atoms: C3_3  and  C4_4 
REMARK    3  A    between atoms: C4_4  and  C5_5 
REMARK    4  A    between atoms: C5_5  and  N1_6 
REMARK       I    between atoms: N1_6  and  C6_8 
REMARK    5  A    between atoms: C6_8  and  C7_10 
REMARK    6  A    between atoms: C7_10  and  C8_11 
REMARK    7  A    between atoms: C7_10  and  C14_17 
REMARK    8  A    between atoms: C8_11  and  C9_12 
REMARK    9  A    between atoms: C9_12  and  C10_13 
REMARK   10  A    between atoms: C10_13  and  C11_14 
ROOT
HETATM    1  C14 UNL     1      11.653  -4.854  25.187  1.00  0.00     0.007 C 
HETATM    2  C15 UNL     1      10.995  -4.407  23.927  1.00  0.00     0.007 C 
HETATM    3  C16 UNL     1      11.959  -5.090  22.923  1.00  0.00     0.006 C 
HETATM    4  C17 UNL     1      12.417  -6.356  23.617  1.00  0.00    -0.002 C 
HETATM    5  C18 UNL     1      12.089  -7.500  22.742  1.00  0.00    -0.004 C 
HETATM    6  C19 UNL     1      13.094  -8.633  22.765  1.00  0.00     0.007 C 
HETATM    7  C20 UNL     1      12.520  -9.910  22.209  1.00  0.00     0.027 C 
HETATM    8  C21 UNL     1      11.417  -9.699  21.227  1.00  0.00     0.102 C 
HETATM    9  N2  UNL     1      10.550 -10.862  21.180  1.00  0.00    -0.354 N 
ATOM     10  H2  UNL     1      10.435 -11.670  20.568  1.00  0.00     0.162 HD
HETATM   11  C22 UNL     1       9.934 -10.373  22.367  1.00  0.00     0.228 C 
HETATM   12  O2  UNL     1       9.375 -11.001  23.305  1.00  0.00    -0.273 OA
HETATM   13  C23 UNL     1      10.270  -9.020  21.931  1.00  0.00     0.061 C 
HETATM   14  C24 UNL     1       9.292  -8.491  20.874  1.00  0.00     0.028 C 
HETATM   15  C25 UNL     1      10.667  -8.013  22.937  1.00  0.00     0.009 C 
HETATM   16  C26 UNL     1      10.571  -8.443  24.356  1.00  0.00     0.007 C 
HETATM   17  C27 UNL     1      10.610  -7.169  25.181  1.00  0.00     0.010 C 
HETATM   18  C28 UNL     1      11.811  -6.337  24.987  1.00  0.00    -0.036 C 
HETATM   19  C29 UNL     1      12.834  -6.781  26.050  1.00  0.00     0.016 C 
ENDROOT
BRANCH   1  20
HETATM   20  C7  UNL     1      11.353  -4.310  26.466  1.00  0.00     0.082 C 
BRANCH  20  21
HETATM   21  C6  UNL     1      11.449  -2.826  26.445  1.00  0.00     0.222 C 
HETATM   22  N1  UNL     1      12.650  -2.140  26.244  1.00  0.00    -0.361 N 
ATOM     23  H1  UNL     1      13.506  -2.681  26.116  1.00  0.00     0.162 HD
HETATM   24  O1  UNL     1      10.410  -2.159  26.615  1.00  0.00    -0.273 OA
BRANCH  22  25
HETATM   25  C5  UNL     1      12.732  -0.701  26.212  1.00  0.00     0.122 C 
BRANCH  25  26
HETATM   26  C4  UNL     1      12.765  -0.214  24.807  1.00  0.00     0.020 C 
BRANCH  26  27
HETATM   27  C3  UNL     1      11.502   0.200  24.160  1.00  0.00     0.001 C 
BRANCH  27  28
HETATM   28  C2  UNL     1      10.800  -0.762  23.288  1.00  0.00    -0.004 C 
HETATM   29  C1  UNL     1      10.365  -0.259  21.957  1.00  0.00     0.005 C 
ENDBRANCH  27  28
ENDBRANCH  26  27
ENDBRANCH  25  26
ENDBRANCH  22  25
ENDBRANCH  20  21
BRANCH  20  30
HETATM   30  C8  UNL     1      10.149  -4.706  27.233  1.00  0.00     0.014 C 
BRANCH  30  31
HETATM   31  C9  UNL     1      10.458  -5.241  28.615  1.00  0.00     0.001 C 
BRANCH  31  32
HETATM   32  C10 UNL     1      10.082  -6.730  28.684  1.00  0.00     0.004 C 
BRANCH  32  33
HETATM   33  C11 UNL     1       9.844  -7.061  30.155  1.00  0.00    -0.023 C 
HETATM   34  C12 UNL     1       9.231  -5.877  30.855  1.00  0.00     0.009 C 
HETATM   35  C13 UNL     1       8.933  -8.249  30.280  1.00  0.00     0.009 C 
ENDBRANCH  32  33
ENDBRANCH  31  32
ENDBRANCH  30  31
ENDBRANCH  20  30
ENDBRANCH   1  20
TORSDOF 10
ENDMDL
MODEL 2
REMARK VINA RESULT: -9.190902688      2.301      7.302
REMARK  10 active torsions:
REMARK  status: ('A' for Active; 'I' for Inactive)
REMARK    1  A    between atoms: C2_2  and  C3_3 
REMARK    2  A    between atoms: C3_3  and  C4_4 
REMARK    3  A    between atoms: C4_4  and  C5_5 
REMARK    4  A    between atoms: C5_5  and  N1_6 
REMARK       I    between atoms: N1_6  and  C6_8 
REMARK    5  A    between atoms: C6_8  and  C7_10 
REMARK    6  A    between atoms: C7_10  and  C8_11 
REMARK    7  A    between atoms: C7_10  and  C14_17 
REMARK    8  A    between atoms: C8_11  and  C9_12 
REMARK    9  A    between atoms: C9_12  and  C10_13 
REMARK   10  A    between atoms: C10_13  and  C11_14 
ROOT
HETATM    1  C14 UNL     1      10.576  -7.994  26.299  1.00  0.00     0.007 C 
HETATM    2  C15 UNL     1      10.006  -6.966  27.214  1.00  0.00     0.007 C 
HETATM    3  C16 UNL     1      11.297  -6.140  27.448  1.00  0.00     0.006 C 
HETATM    4  C17 UNL     1      12.073  -6.250  26.151  1.00  0.00    -0.002 C 
HETATM    5  C18 UNL     1      12.328  -4.882  25.655  1.00  0.00    -0.004 C 
HETATM    6  C19 UNL     1      13.662  -4.690  24.963  1.00  0.00     0.007 C 
HETATM    7  C20 UNL     1      13.691  -3.437  24.128  1.00  0.00     0.027 C 
HETATM    8  C21 UNL     1      12.755  -2.375  24.600  1.00  0.00     0.102 C 
HETATM    9  N2  UNL     1      12.395  -1.494  23.505  1.00  0.00    -0.354 N 
ATOM     10  H2  UNL     1      12.680  -0.571  23.177  1.00  0.00     0.162 HD
HETATM   11  C22 UNL     1      11.464  -2.490  23.092  1.00  0.00     0.228 C 
HETATM   12  O2  UNL     1      11.036  -2.768  21.941  1.00  0.00    -0.273 OA
HETATM   13  C23 UNL     1      11.344  -2.895  24.491  1.00  0.00     0.061 C 
HETATM   14  C24 UNL     1      10.418  -1.965  25.286  1.00  0.00     0.028 C 
HETATM   15  C25 UNL     1      11.182  -4.325  24.819  1.00  0.00     0.009 C 
HETATM   16  C26 UNL     1      11.030  -5.243  23.659  1.00  0.00     0.007 C 
HETATM   17  C27 UNL     1      10.470  -6.536  24.223  1.00  0.00     0.010 C 
HETATM   18  C28 UNL     1      11.296  -7.174  25.263  1.00  0.00    -0.036 C 
HETATM   19  C29 UNL     1      12.231  -8.163  24.543  1.00  0.00     0.016 C 
ENDROOT
BRANCH   1  20
HETATM   20  C7  UNL     1       9.902  -9.196  25.950  1.00  0.00     0.082 C 
BRANCH  20  21
HETATM   21  C6  UNL     1       9.312  -9.840  27.153  1.00  0.00     0.222 C 
HETATM   22  N1  UNL     1       8.802  -9.116  28.236  1.00  0.00    -0.361 N 
ATOM     23  H1  UNL     1       8.845  -8.097  28.205  1.00  0.00     0.162 HD
HETATM   24  O1  UNL     1       9.269 -11.084  27.203  1.00  0.00    -0.273 OA
BRANCH  22  25
HETATM   25  C5  UNL     1       8.220  -9.749  29.393  1.00  0.00     0.122 C 
BRANCH  25  26
HETATM   26  C4  UNL     1       8.329  -8.860  30.581  1.00  0.00     0.020 C 
BRANCH  26  27
HETATM   27  C3  UNL     1       9.310  -7.754  30.562  1.00  0.00     0.001 C 
BRANCH  27  28
HETATM   28  C2  UNL     1       8.927  -6.453  31.144  1.00  0.00    -0.004 C 
HETATM   29  C1  UNL     1       9.631  -5.254  30.614  1.00  0.00     0.005 C 
ENDBRANCH  27  28
ENDBRANCH  26  27
ENDBRANCH  25  26
ENDBRANCH  22  25
ENDBRANCH  20  21
BRANCH  20  30
HETATM   30  C8  UNL     1       8.925  -9.262  24.838  1.00  0.00     0.014 C 
BRANCH  30  31
HETATM   31  C9  UNL     1       9.418 -10.045  23.640  1.00  0.00     0.001 C 
BRANCH  31  32
HETATM   32  C10 UNL     1       8.730  -9.524  22.368  1.00  0.00     0.004 C 
BRANCH  32  33
HETATM   33  C11 UNL     1       9.795  -9.473  21.276  1.00  0.00    -0.023 C 
HETATM   34  C12 UNL     1      10.073  -8.041  20.896  1.00  0.00     0.009 C 
HETATM   35  C13 UNL     1      11.062 -10.123  21.754  1.00  0.00     0.009 C 
ENDBRANCH  32  33
ENDBRANCH  31  32
ENDBRANCH  30  31
ENDBRANCH  20  30
ENDBRANCH   1  20
TORSDOF 10
ENDMDL
MODEL 3
REMARK VINA RESULT: -8.988240307      1.583      5.284
REMARK  10 active torsions:
REMARK  status: ('A' for Active; 'I' for Inactive)
REMARK    1  A    between atoms: C2_2  and  C3_3 
REMARK    2  A    between atoms: C3_3  and  C4_4 
REMARK    3  A    between atoms: C4_4  and  C5_5 
REMARK    4  A    between atoms: C5_5  and  N1_6 
REMARK       I    between atoms: N1_6  and  C6_8 
REMARK    5  A    between atoms: C6_8  and  C7_10 
REMARK    6  A    between atoms: C7_10  and  C8_11 
REMARK    7  A    between atoms: C7_10  and  C14_17 
REMARK    8  A    between atoms: C8_11  and  C9_12 
REMARK    9  A    between atoms: C9_12  and  C10_13 
REMARK   10  A    between atoms: C10_13  and  C11_14 
ROOT
HETATM    1  C14 UNL     1      12.058  -5.253  25.909  1.00  0.00     0.007 C 
HETATM    2  C15 UNL     1      13.293  -6.063  25.718  1.00  0.00     0.007 C 
HETATM    3  C16 UNL     1      12.700  -7.452  26.070  1.00  0.00     0.006 C 
HETATM    4  C17 UNL     1      11.258  -7.391  25.608  1.00  0.00    -0.002 C 
HETATM    5  C18 UNL     1      11.035  -8.503  24.662  1.00  0.00    -0.004 C 
HETATM    6  C19 UNL     1       9.661  -9.137  24.730  1.00  0.00     0.007 C 
HETATM    7  C20 UNL     1       9.350  -9.948  23.499  1.00  0.00     0.027 C 
HETATM    8  C21 UNL     1      10.558 -10.480  22.805  1.00  0.00     0.102 C 
HETATM    9  N2  UNL     1      10.273 -10.718  21.403  1.00  0.00    -0.354 N 
ATOM     10  H2  UNL     1      10.046 -11.527  20.824  1.00  0.00     0.162 HD
HETATM   11  C22 UNL     1      10.452  -9.321  21.193  1.00  0.00     0.228 C 
HETATM   12  O2  UNL     1       9.933  -8.559  20.335  1.00  0.00    -0.273 OA
HETATM   13  C23 UNL     1      11.384  -9.317  22.319  1.00  0.00     0.061 C 
HETATM   14  C24 UNL     1      12.773  -9.836  21.924  1.00  0.00     0.028 C 
HETATM   15  C25 UNL     1      11.416  -8.154  23.228  1.00  0.00     0.009 C 
HETATM   16  C26 UNL     1      10.558  -7.004  22.839  1.00  0.00     0.007 C 
HETATM   17  C27 UNL     1      11.060  -5.819  23.644  1.00  0.00     0.010 C 
HETATM   18  C28 UNL     1      11.027  -5.999  25.106  1.00  0.00    -0.036 C 
HETATM   19  C29 UNL     1       9.669  -5.456  25.590  1.00  0.00     0.016 C 
ENDROOT
BRANCH   1  20
HETATM   20  C7  UNL     1      12.052  -3.832  25.978  1.00  0.00     0.082 C 
BRANCH  20  21
HETATM   21  C6  UNL     1      11.872  -3.372  27.380  1.00  0.00     0.222 C 
HETATM   22  N1  UNL     1      11.896  -4.237  28.478  1.00  0.00    -0.361 N 
ATOM     23  H1  UNL     1      12.033  -5.234  28.312  1.00  0.00     0.162 HD
HETATM   24  O1  UNL     1      11.691  -2.157  27.590  1.00  0.00    -0.273 OA
BRANCH  22  25
HETATM   25  C5  UNL     1      11.734  -3.780  29.836  1.00  0.00     0.122 C 
BRANCH  25  26
HETATM   26  C4  UNL     1      10.500  -4.356  30.435  1.00  0.00     0.020 C 
BRANCH  26  27
HETATM   27  C3  UNL     1       9.991  -5.647  29.925  1.00  0.00     0.001 C 
BRANCH  27  28
HETATM   28  C2  UNL     1       9.235  -6.525  30.839  1.00  0.00    -0.004 C 
HETATM   29  C1  UNL     1       8.553  -5.864  31.985  1.00  0.00     0.005 C 
ENDBRANCH  27  28
ENDBRANCH  26  27
ENDBRANCH  25  26
ENDBRANCH  22  25
ENDBRANCH  20  21
BRANCH  20  30
HETATM   30  C8  UNL     1      13.094  -3.004  25.327  1.00  0.00     0.014 C 
BRANCH  30  31
HETATM   31  C9  UNL     1      12.821  -2.723  23.864  1.00  0.00     0.001 C 
BRANCH  31  32
HETATM   32  C10 UNL     1      11.454  -2.033  23.721  1.00  0.00     0.004 C 
BRANCH  32  33
HETATM   33  C11 UNL     1      10.910  -2.407  22.344  1.00  0.00    -0.023 C 
HETATM   34  C12 UNL     1      10.476  -1.165  21.609  1.00  0.00     0.009 C 
HETATM   35  C13 UNL     1      11.962  -3.124  21.547  1.00  0.00     0.009 C 
ENDBRANCH  32  33
ENDBRANCH  31  32
ENDBRANCH  30  31
ENDBRANCH  20  30
ENDBRANCH   1  20
TORSDOF 10
ENDMDL
MODEL 4
REMARK VINA RESULT: -8.894318589      1.546      5.040
REMARK  10 active torsions:
REMARK  status: ('A' for Active; 'I' for Inactive)
REMARK    1  A    between atoms: C2_2  and  C3_3 
REMARK    2  A    between atoms: C3_3  and  C4_4 
REMARK    3  A    between atoms: C4_4  and  C5_5 
REMARK    4  A    between atoms: C5_5  and  N1_6 
REMARK       I    between atoms: N1_6  and  C6_8 
REMARK    5  A    between atoms: C6_8  and  C7_10 
REMARK    6  A    between atoms: C7_10  and  C8_11 
REMARK    7  A    between atoms: C7_10  and  C14_17 
REMARK    8  A    between atoms: C8_11  and  C9_12 
REMARK    9  A    between atoms: C9_12  and  C10_13 
REMARK   10  A    between atoms: C10_13  and  C11_14 
ROOT
HETATM    1  C14 UNL     1      12.036  -4.878  25.720  1.00  0.00     0.007 C 
HETATM    2  C15 UNL     1      13.280  -5.695  25.661  1.00  0.00     0.007 C 
HETATM    3  C16 UNL     1      12.665  -7.060  26.063  1.00  0.00     0.006 C 
HETATM    4  C17 UNL     1      11.255  -7.034  25.507  1.00  0.00    -0.002 C 
HETATM    5  C18 UNL     1      11.092  -8.205  24.623  1.00  0.00    -0.004 C 
HETATM    6  C19 UNL     1       9.716  -8.838  24.645  1.00  0.00     0.007 C 
HETATM    7  C20 UNL     1       9.482  -9.727  23.451  1.00  0.00     0.027 C 
HETATM    8  C21 UNL     1      10.732 -10.299  22.871  1.00  0.00     0.102 C 
HETATM    9  N2  UNL     1      10.537 -10.628  21.471  1.00  0.00    -0.354 N 
ATOM     10  H2  UNL     1      10.346 -11.473  20.932  1.00  0.00     0.162 HD
HETATM   11  C22 UNL     1      10.730  -9.246  21.184  1.00  0.00     0.228 C 
HETATM   12  O2  UNL     1      10.267  -8.543  20.248  1.00  0.00    -0.273 OA
HETATM   13  C23 UNL     1      11.588  -9.167  22.364  1.00  0.00     0.061 C 
HETATM   14  C24 UNL     1      12.999  -9.705  22.092  1.00  0.00     0.028 C 
HETATM   15  C25 UNL     1      11.563  -7.948  23.196  1.00  0.00     0.009 C 
HETATM   16  C26 UNL     1      10.732  -6.828  22.680  1.00  0.00     0.007 C 
HETATM   17  C27 UNL     1      11.183  -5.592  23.438  1.00  0.00     0.010 C 
HETATM   18  C28 UNL     1      11.057  -5.677  24.904  1.00  0.00    -0.036 C 
HETATM   19  C29 UNL     1       9.672  -5.109  25.264  1.00  0.00     0.016 C 
ENDROOT
BRANCH   1  20
HETATM   20  C7  UNL     1      12.028  -3.456  25.697  1.00  0.00     0.082 C 
BRANCH  20  21
HETATM   21  C6  UNL     1      11.916  -2.906  27.074  1.00  0.00     0.222 C 
HETATM   22  N1  UNL     1      12.849  -3.171  28.082  1.00  0.00    -0.361 N 
ATOM     23  H1  UNL     1      13.640  -3.778  27.867  1.00  0.00     0.162 HD
HETATM   24  O1  UNL     1      10.945  -2.174  27.347  1.00  0.00    -0.273 OA
BRANCH  22  25
HETATM   25  C5  UNL     1      12.740  -2.622  29.411  1.00  0.00     0.122 C 
BRANCH  25  26
HETATM   26  C4  UNL     1      12.183  -3.635  30.347  1.00  0.00     0.020 C 
BRANCH  26  27
HETATM   27  C3  UNL     1      11.835  -4.975  29.830  1.00  0.00     0.001 C 
BRANCH  27  28
HETATM   28  C2  UNL     1      10.428  -5.264  29.489  1.00  0.00    -0.004 C 
HETATM   29  C1  UNL     1      10.117  -6.657  29.066  1.00  0.00     0.005 C 
ENDBRANCH  27  28
ENDBRANCH  26  27
ENDBRANCH  25  26
ENDBRANCH  22  25
ENDBRANCH  20  21
BRANCH  20  30
HETATM   30  C8  UNL     1      13.031  -2.671  24.942  1.00  0.00     0.014 C 
BRANCH  30  31
HETATM   31  C9  UNL     1      12.498  -1.359  24.405  1.00  0.00     0.001 C 
BRANCH  31  32
HETATM   32  C10 UNL     1      11.081  -1.571  23.848  1.00  0.00     0.004 C 
BRANCH  32  33
HETATM   33  C11 UNL     1      11.142  -1.273  22.352  1.00  0.00    -0.023 C 
HETATM   34  C12 UNL     1      11.026  -2.554  21.568  1.00  0.00     0.009 C 
HETATM   35  C13 UNL     1      10.032  -0.340  21.962  1.00  0.00     0.009 C 
ENDBRANCH  32  33
ENDBRANCH  31  32
ENDBRANCH  30  31
ENDBRANCH  20  30
ENDBRANCH   1  20
TORSDOF 10
ENDMDL
MODEL 5
REMARK VINA RESULT: -8.788290353      1.858      5.749
REMARK  10 active torsions:
REMARK  status: ('A' for Active; 'I' for Inactive)
REMARK    1  A    between atoms: C2_2  and  C3_3 
REMARK    2  A    between atoms: C3_3  and  C4_4 
REMARK    3  A    between atoms: C4_4  and  C5_5 
REMARK    4  A    between atoms: C5_5  and  N1_6 
REMARK       I    between atoms: N1_6  and  C6_8 
REMARK    5  A    between atoms: C6_8  and  C7_10 
REMARK    6  A    between atoms: C7_10  and  C8_11 
REMARK    7  A    between atoms: C7_10  and  C14_17 
REMARK    8  A    between atoms: C8_11  and  C9_12 
REMARK    9  A    between atoms: C9_12  and  C10_13 
REMARK   10  A    between atoms: C10_13  and  C11_14 
ROOT
HETATM    1  C14 UNL     1      11.356  -4.669  27.293  1.00  0.00     0.007 C 
HETATM    2  C15 UNL     1      12.661  -5.379  27.397  1.00  0.00     0.007 C 
HETATM    3  C16 UNL     1      12.142  -6.824  27.185  1.00  0.00     0.006 C 
HETATM    4  C17 UNL     1      10.960  -6.682  26.247  1.00  0.00    -0.002 C 
HETATM    5  C18 UNL     1      11.213  -7.528  25.063  1.00  0.00    -0.004 C 
HETATM    6  C19 UNL     1       9.983  -8.189  24.474  1.00  0.00     0.007 C 
HETATM    7  C20 UNL     1      10.221  -8.674  23.068  1.00  0.00     0.027 C 
HETATM    8  C21 UNL     1      11.648  -8.990  22.771  1.00  0.00     0.102 C 
HETATM    9  N2  UNL     1      11.907  -8.877  21.348  1.00  0.00    -0.354 N 
ATOM     10  H2  UNL     1      11.992  -9.521  20.561  1.00  0.00     0.162 HD
HETATM   11  C22 UNL     1      11.991  -7.468  21.538  1.00  0.00     0.228 C 
HETATM   12  O2  UNL     1      11.727  -6.528  20.742  1.00  0.00    -0.273 OA
HETATM   13  C23 UNL     1      12.457  -7.724  22.899  1.00  0.00     0.061 C 
HETATM   14  C24 UNL     1      13.945  -8.098  22.941  1.00  0.00     0.028 C 
HETATM   15  C25 UNL     1      12.034  -6.824  23.990  1.00  0.00     0.009 C 
HETATM   16  C26 UNL     1      11.246  -5.632  23.578  1.00  0.00     0.007 C 
HETATM   17  C27 UNL     1      11.295  -4.675  24.755  1.00  0.00     0.010 C 
HETATM   18  C28 UNL     1      10.766  -5.214  26.020  1.00  0.00    -0.036 C 
HETATM   19  C29 UNL     1       9.274  -4.838  26.074  1.00  0.00     0.016 C 
ENDROOT
BRANCH   1  20
HETATM   20  C7  UNL     1      11.167  -3.310  27.670  1.00  0.00     0.082 C 
BRANCH  20  21
HETATM   21  C6  UNL     1      10.395  -3.217  28.938  1.00  0.00     0.222 C 
HETATM   22  N1  UNL     1      10.318  -4.259  29.866  1.00  0.00    -0.361 N 
ATOM     23  H1  UNL     1      10.807  -5.132  29.662  1.00  0.00     0.162 HD
HETATM   24  O1  UNL     1       9.784  -2.159  29.187  1.00  0.00    -0.273 OA
BRANCH  22  25
HETATM   25  C5  UNL     1       9.578  -4.155  31.099  1.00  0.00     0.122 C 
BRANCH  25  26
HETATM   26  C4  UNL     1       8.918  -5.448  31.419  1.00  0.00     0.020 C 
BRANCH  26  27
HETATM   27  C3  UNL     1       9.303  -6.658  30.662  1.00  0.00     0.001 C 
BRANCH  27  28
HETATM   28  C2  UNL     1       8.994  -7.984  31.232  1.00  0.00    -0.004 C 
HETATM   29  C1  UNL     1       8.308  -8.952  30.334  1.00  0.00     0.005 C 
ENDBRANCH  27  28
ENDBRANCH  26  27
ENDBRANCH  25  26
ENDBRANCH  22  25
ENDBRANCH  20  21
BRANCH  20  30
HETATM   30  C8  UNL     1      12.284  -2.338  27.711  1.00  0.00     0.014 C 
BRANCH  30  31
HETATM   31  C9  UNL     1      12.519  -1.626  26.396  1.00  0.00     0.001 C 
BRANCH  31  32
HETATM   32  C10 UNL     1      11.175  -1.415  25.680  1.00  0.00     0.004 C 
BRANCH  32  33
HETATM   33  C11 UNL     1      11.471  -0.643  24.397  1.00  0.00    -0.023 C 
HETATM   34  C12 UNL     1      10.269   0.172  23.998  1.00  0.00     0.009 C 
HETATM   35  C13 UNL     1      12.652   0.263  24.596  1.00  0.00     0.009 C 
ENDBRANCH  32  33
ENDBRANCH  31  32
ENDBRANCH  30  31
ENDBRANCH  20  30
ENDBRANCH   1  20
TORSDOF 10
ENDMDL
