MODEL 1
REMARK VINA RESULT: -10.635447467      0.000      0.000
REMARK  5 active torsions:
REMARK  status: ('A' for Active; 'I' for Inactive)
REMARK    1  A    between atoms: C8_14  and  N3_15 
REMARK    2  A    between atoms: N4_18  and  C11_19 
REMARK    3  A    between atoms: C12_22  and  N6_23 
REMARK    4  A    between atoms: N6_23  and  C13_25 
REMARK    5  A    between atoms: C21_36  and  N9_37 
ROOT
HETATM    1  C11 UNL     1      12.958  -8.287  23.364  1.00  0.00     0.725 A 
HETATM    2  N5  UNL     1      11.943  -8.949  22.775  1.00  0.00    -0.020 N 
ATOM      3  H5  UNL     1      10.996  -8.822  23.131  1.00  0.00     0.203 HD
HETATM    4  C12 UNL     1      12.146  -9.782  21.717  1.00  0.00     0.694 A 
HETATM    5  N7  UNL     1      13.410  -9.913  21.291  1.00  0.00    -0.172 N 
ATOM      6  H7  UNL     1      13.593 -10.532  20.501  1.00  0.00     0.186 HD
HETATM    7  C18 UNL     1      14.453  -9.268  21.853  1.00  0.00     0.185 A 
HETATM    8  C19 UNL     1      15.805  -9.246  21.594  1.00  0.00     0.136 A 
HETATM    9  C20 UNL     1      16.423  -9.999  20.546  1.00  0.00     0.107 C 
HETATM   10  N8  UNL     1      16.924 -10.610  19.719  1.00  0.00    -0.191 NA
HETATM   11  C21 UNL     1      16.346  -8.390  22.521  1.00  0.00     0.139 A 
HETATM   12  N10 UNL     1      15.366  -7.914  23.308  1.00  0.00    -0.262 N 
ATOM     13  H10 UNL     1      15.480  -7.258  24.081  1.00  0.00     0.190 HD
HETATM   14  N11 UNL     1      14.209  -8.457  22.892  1.00  0.00    -0.065 N 
ENDROOT
BRANCH  11  15
HETATM   15  N9  UNL     1      17.594  -8.096  22.615  1.00  0.00    -0.383 N 
ATOM     16  H92 UNL     1      18.223  -8.398  23.360  1.00  0.00     0.157 HD
ATOM     17  H91 UNL     1      18.113  -7.521  21.951  1.00  0.00     0.157 HD
ENDBRANCH  11  15
BRANCH   4  18
HETATM   18  N6  UNL     1      11.173 -10.408  21.161  1.00  0.00    -0.221 N 
ATOM     19  H6  UNL     1      11.361 -11.285  20.676  1.00  0.00     0.178 HD
BRANCH  18  20
HETATM   20  C13 UNL     1       9.822  -9.906  21.204  1.00  0.00     0.099 C 
HETATM   21  C14 UNL     1       9.117 -10.317  22.486  1.00  0.00     0.026 C 
HETATM   22  C15 UNL     1       7.654 -10.095  22.178  1.00  0.00     0.002 C 
HETATM   23  C16 UNL     1       7.529 -10.092  20.672  1.00  0.00     0.002 C 
HETATM   24  C17 UNL     1       8.922 -10.484  20.161  1.00  0.00     0.026 C 
ENDBRANCH  18  20
ENDBRANCH   4  18
BRANCH   1  25
HETATM   25  N4  UNL     1      12.731  -7.416  24.478  1.00  0.00    -0.142 N 
HETATM   26  C10 UNL     1      12.623  -7.928  25.856  1.00  0.00     0.171 C 
HETATM   27  C9  UNL     1      13.264  -6.869  26.771  1.00  0.00     0.143 C 
HETATM   28  N3  UNL     1      12.547  -5.634  26.737  1.00  0.00    -0.379 N 
HETATM   29  C23 UNL     1      12.006  -5.254  25.493  1.00  0.00     0.161 C 
HETATM   30  C22 UNL     1      12.603  -6.012  24.373  1.00  0.00     0.277 C 
HETATM   31  O2  UNL     1      13.010  -5.459  23.312  1.00  0.00    -0.266 OA
BRANCH  28  32
HETATM   32  C8  UNL     1      11.710  -5.389  27.856  1.00  0.00     0.085 C 
HETATM   33  C7  UNL     1      12.425  -5.312  29.170  1.00  0.00     0.027 C 
HETATM   34  C6  UNL     1      13.062  -3.941  29.076  1.00  0.00     0.025 C 
HETATM   35  C5  UNL     1      11.856  -3.131  28.602  1.00  0.00     0.051 C 
HETATM   36  C2  UNL     1      11.131  -2.662  29.821  1.00  0.00     0.017 C 
HETATM   37  C4  UNL     1      12.239  -1.850  27.999  1.00  0.00     0.091 C 
HETATM   38  C24 UNL     1      11.057  -4.046  27.740  1.00  0.00     0.047 C 
HETATM   39  C1  UNL     1      10.056  -3.107  30.383  1.00  0.00     0.025 C 
HETATM   40  C3  UNL     1      11.935  -1.519  30.292  1.00  0.00     0.253 C 
HETATM   41  O1  UNL     1      12.001  -1.073  31.466  1.00  0.00    -0.268 OA
HETATM   42  N1  UNL     1      12.621  -1.028  29.126  1.00  0.00    -0.312 N 
ATOM     43  H1  UNL     1      13.265  -0.238  29.100  1.00  0.00     0.170 HD
HETATM   44  N2  UNL     1      12.277  -1.410  26.795  1.00  0.00    -0.388 N 
ATOM     45  H22 UNL     1      12.543  -0.520  26.376  1.00  0.00     0.157 HD
ATOM     46  H21 UNL     1      12.008  -1.990  26.000  1.00  0.00     0.157 HD
ENDBRANCH  28  32
ENDBRANCH   1  25
TORSDOF 5
ENDMDL
MODEL 2
REMARK VINA RESULT: -10.402740350      3.772     10.422
REMARK  5 active torsions:
REMARK  status: ('A' for Active; 'I' for Inactive)
REMARK    1  A    between atoms: C8_14  and  N3_15 
REMARK    2  A    between atoms: N4_18  and  C11_19 
REMARK    3  A    between atoms: C12_22  and  N6_23 
REMARK    4  A    between atoms: N6_23  and  C13_25 
REMARK    5  A    between atoms: C21_36  and  N9_37 
ROOT
HETATM    1  C11 UNL     1      13.778  -8.582  22.100  1.00  0.00     0.725 A 
HETATM    2  N5  UNL     1      12.554  -8.529  21.540  1.00  0.00    -0.020 N 
ATOM      3  H5  UNL     1      12.409  -8.953  20.624  1.00  0.00     0.203 HD
HETATM    4  C12 UNL     1      11.504  -7.925  22.163  1.00  0.00     0.694 A 
HETATM    5  N7  UNL     1      11.750  -7.382  23.364  1.00  0.00    -0.172 N 
ATOM      6  H7  UNL     1      10.983  -6.921  23.852  1.00  0.00     0.186 HD
HETATM    7  C18 UNL     1      12.961  -7.416  23.958  1.00  0.00     0.185 A 
HETATM    8  C19 UNL     1      13.441  -6.940  25.157  1.00  0.00     0.136 A 
HETATM    9  C20 UNL     1      12.637  -6.236  26.109  1.00  0.00     0.107 C 
HETATM   10  N8  UNL     1      12.002  -5.660  26.866  1.00  0.00    -0.191 NA
HETATM   11  C21 UNL     1      14.768  -7.289  25.189  1.00  0.00     0.139 A 
HETATM   12  N10 UNL     1      15.080  -7.947  24.061  1.00  0.00    -0.262 N 
ATOM     13  H10 UNL     1      15.996  -8.324  23.817  1.00  0.00     0.190 HD
HETATM   14  N11 UNL     1      13.967  -8.020  23.311  1.00  0.00    -0.065 N 
ENDROOT
BRANCH  11  15
HETATM   15  N9  UNL     1      15.579  -7.023  26.152  1.00  0.00    -0.383 N 
ATOM     16  H92 UNL     1      15.560  -6.184  26.732  1.00  0.00     0.157 HD
ATOM     17  H91 UNL     1      16.345  -7.624  26.456  1.00  0.00     0.157 HD
ENDBRANCH  11  15
BRANCH   4  18
HETATM   18  N6  UNL     1      10.340  -7.878  21.622  1.00  0.00    -0.221 N 
ATOM     19  H6  UNL     1       9.979  -6.981  21.299  1.00  0.00     0.178 HD
BRANCH  18  20
HETATM   20  C13 UNL     1       9.530  -9.060  21.458  1.00  0.00     0.099 C 
HETATM   21  C14 UNL     1       8.549  -8.907  20.308  1.00  0.00     0.026 C 
HETATM   22  C15 UNL     1       7.537 -10.003  20.551  1.00  0.00     0.002 C 
HETATM   23  C16 UNL     1       7.644 -10.368  22.013  1.00  0.00     0.002 C 
HETATM   24  C17 UNL     1       8.616  -9.337  22.606  1.00  0.00     0.026 C 
ENDBRANCH  18  20
ENDBRANCH   4  18
BRANCH   1  25
HETATM   25  N4  UNL     1      14.874  -9.219  21.433  1.00  0.00    -0.142 N 
HETATM   26  C10 UNL     1      16.240  -8.666  21.480  1.00  0.00     0.171 C 
HETATM   27  C9  UNL     1      17.200  -9.867  21.513  1.00  0.00     0.143 C 
HETATM   28  N3  UNL     1      17.116 -10.648  20.319  1.00  0.00    -0.379 N 
HETATM   29  C23 UNL     1      15.837 -10.786  19.746  1.00  0.00     0.161 C 
HETATM   30  C22 UNL     1      14.762 -10.417  20.692  1.00  0.00     0.277 C 
HETATM   31  O2  UNL     1      13.735 -11.131  20.872  1.00  0.00    -0.266 OA
BRANCH  28  32
HETATM   32  C8  UNL     1      18.172 -10.451  19.392  1.00  0.00     0.085 C 
HETATM   33  C7  UNL     1      19.510 -10.945  19.850  1.00  0.00     0.027 C 
HETATM   34  C6  UNL     1      19.346 -12.440  19.671  1.00  0.00     0.025 C 
HETATM   35  C5  UNL     1      18.755 -12.466  18.262  1.00  0.00     0.051 C 
HETATM   36  C2  UNL     1      19.898 -12.521  17.304  1.00  0.00     0.017 C 
HETATM   37  C4  UNL     1      18.078 -13.731  17.958  1.00  0.00     0.091 C 
HETATM   38  C24 UNL     1      17.925 -11.235  18.140  1.00  0.00     0.047 C 
HETATM   39  C1  UNL     1      20.439 -11.594  16.584  1.00  0.00     0.025 C 
HETATM   40  C3  UNL     1      20.323 -13.934  17.341  1.00  0.00     0.253 C 
HETATM   41  O1  UNL     1      21.462 -14.389  17.066  1.00  0.00    -0.268 OA
HETATM   42  N1  UNL     1      19.158 -14.671  17.756  1.00  0.00    -0.312 N 
ATOM     43  H1  UNL     1      19.105 -15.681  17.885  1.00  0.00     0.170 HD
HETATM   44  N2  UNL     1      16.848 -14.079  17.855  1.00  0.00    -0.388 N 
ATOM     45  H22 UNL     1      16.378 -14.958  17.643  1.00  0.00     0.157 HD
ATOM     46  H21 UNL     1      16.086 -13.416  17.998  1.00  0.00     0.157 HD
ENDBRANCH  28  32
ENDBRANCH   1  25
TORSDOF 5
ENDMDL
MODEL 3
REMARK VINA RESULT: -10.373108907      9.328     16.681
REMARK  5 active torsions:
REMARK  status: ('A' for Active; 'I' for Inactive)
REMARK    1  A    between atoms: C8_14  and  N3_15 
REMARK    2  A    between atoms: N4_18  and  C11_19 
REMARK    3  A    between atoms: C12_22  and  N6_23 
REMARK    4  A    between atoms: N6_23  and  C13_25 
REMARK    5  A    between atoms: C21_36  and  N9_37 
ROOT
HETATM    1  C11 UNL     1      21.015 -11.977  17.700  1.00  0.00     0.725 A 
HETATM    2  N5  UNL     1      19.708 -11.704  17.518  1.00  0.00    -0.020 N 
ATOM      3  H5  UNL     1      19.299 -11.828  16.592  1.00  0.00     0.203 HD
HETATM    4  C12 UNL     1      18.917 -11.267  18.536  1.00  0.00     0.694 A 
HETATM    5  N7  UNL     1      19.505 -11.119  19.732  1.00  0.00    -0.172 N 
ATOM      6  H7  UNL     1      18.937 -10.791  20.513  1.00  0.00     0.186 HD
HETATM    7  C18 UNL     1      20.809 -11.383  19.954  1.00  0.00     0.185 A 
HETATM    8  C19 UNL     1      21.614 -11.309  21.069  1.00  0.00     0.136 A 
HETATM    9  C20 UNL     1      21.150 -10.886  22.354  1.00  0.00     0.107 C 
HETATM   10  N8  UNL     1      20.788 -10.534  23.381  1.00  0.00    -0.191 NA
HETATM   11  C21 UNL     1      22.859 -11.710  20.653  1.00  0.00     0.139 A 
HETATM   12  N10 UNL     1      22.812 -12.015  19.345  1.00  0.00    -0.262 N 
ATOM     13  H10 UNL     1      23.592 -12.343  18.775  1.00  0.00     0.190 HD
HETATM   14  N11 UNL     1      21.552 -11.811  18.925  1.00  0.00    -0.065 N 
ENDROOT
BRANCH  11  15
HETATM   15  N9  UNL     1      23.902 -11.781  21.403  1.00  0.00    -0.383 N 
ATOM     16  H92 UNL     1      24.287 -11.018  21.960  1.00  0.00     0.157 HD
ATOM     17  H91 UNL     1      24.474 -12.615  21.534  1.00  0.00     0.157 HD
ENDBRANCH  11  15
BRANCH   4  18
HETATM   18  N6  UNL     1      17.672 -11.009  18.355  1.00  0.00    -0.221 N 
ATOM     19  H6  UNL     1      17.356 -10.716  17.431  1.00  0.00     0.178 HD
BRANCH  18  20
HETATM   20  C13 UNL     1      16.708 -11.123  19.422  1.00  0.00     0.099 C 
HETATM   21  C14 UNL     1      15.376 -11.645  18.914  1.00  0.00     0.026 C 
HETATM   22  C15 UNL     1      14.408 -11.298  20.022  1.00  0.00     0.002 C 
HETATM   23  C16 UNL     1      15.051 -10.188  20.820  1.00  0.00     0.002 C 
HETATM   24  C17 UNL     1      16.314  -9.817  20.030  1.00  0.00     0.026 C 
ENDBRANCH  18  20
ENDBRANCH   4  18
BRANCH   1  25
HETATM   25  N4  UNL     1      21.836 -12.434  16.619  1.00  0.00    -0.142 N 
HETATM   26  C10 UNL     1      22.429 -11.500  15.644  1.00  0.00     0.171 C 
HETATM   27  C9  UNL     1      23.810 -12.069  15.272  1.00  0.00     0.143 C 
HETATM   28  N3  UNL     1      23.704 -13.333  14.615  1.00  0.00    -0.379 N 
HETATM   29  C23 UNL     1      22.687 -14.196  15.068  1.00  0.00     0.161 C 
HETATM   30  C22 UNL     1      22.164 -13.790  16.390  1.00  0.00     0.277 C 
HETATM   31  O2  UNL     1      21.993 -14.608  17.339  1.00  0.00    -0.266 OA
BRANCH  28  32
HETATM   32  C8  UNL     1      23.880 -13.299  13.208  1.00  0.00     0.085 C 
HETATM   33  C7  UNL     1      25.284 -13.541  12.744  1.00  0.00     0.027 C 
HETATM   34  C6  UNL     1      25.401 -15.039  12.937  1.00  0.00     0.025 C 
HETATM   35  C5  UNL     1      24.094 -15.484  12.282  1.00  0.00     0.051 C 
HETATM   36  C2  UNL     1      24.375 -15.694  10.831  1.00  0.00     0.017 C 
HETATM   37  C4  UNL     1      23.694 -16.837  12.685  1.00  0.00     0.091 C 
HETATM   38  C24 UNL     1      23.107 -14.403  12.555  1.00  0.00     0.047 C 
HETATM   39  C1  UNL     1      24.121 -14.947   9.808  1.00  0.00     0.025 C 
HETATM   40  C3  UNL     1      25.048 -17.007  10.788  1.00  0.00     0.253 C 
HETATM   41  O1  UNL     1      25.842 -17.422   9.905  1.00  0.00    -0.268 OA
HETATM   42  N1  UNL     1      24.601 -17.703  11.966  1.00  0.00    -0.312 N 
ATOM     43  H1  UNL     1      24.877 -18.645  12.244  1.00  0.00     0.170 HD
HETATM   44  N2  UNL     1      22.787 -17.301  13.464  1.00  0.00    -0.388 N 
ATOM     45  H22 UNL     1      22.509 -18.242  13.743  1.00  0.00     0.157 HD
ATOM     46  H21 UNL     1      22.147 -16.690  13.972  1.00  0.00     0.157 HD
ENDBRANCH  28  32
ENDBRANCH   1  25
TORSDOF 5
ENDMDL
MODEL 4
REMARK VINA RESULT: -10.278171819      3.910     10.368
REMARK  5 active torsions:
REMARK  status: ('A' for Active; 'I' for Inactive)
REMARK    1  A    between atoms: C8_14  and  N3_15 
REMARK    2  A    between atoms: N4_18  and  C11_19 
REMARK    3  A    between atoms: C12_22  and  N6_23 
REMARK    4  A    between atoms: N6_23  and  C13_25 
REMARK    5  A    between atoms: C21_36  and  N9_37 
ROOT
HETATM    1  C11 UNL     1      13.689  -9.301  21.751  1.00  0.00     0.725 A 
HETATM    2  N5  UNL     1      12.378  -9.155  21.478  1.00  0.00    -0.020 N 
ATOM      3  H5  UNL     1      11.988  -9.613  20.655  1.00  0.00     0.203 HD
HETATM    4  C12 UNL     1      11.558  -8.411  22.270  1.00  0.00     0.694 A 
HETATM    5  N7  UNL     1      12.121  -7.828  23.338  1.00  0.00    -0.172 N 
ATOM      6  H7  UNL     1      11.531  -7.263  23.948  1.00  0.00     0.186 HD
HETATM    7  C18 UNL     1      13.429  -7.951  23.645  1.00  0.00     0.185 A 
HETATM    8  C19 UNL     1      14.212  -7.458  24.664  1.00  0.00     0.136 A 
HETATM    9  C20 UNL     1      13.715  -6.622  25.713  1.00  0.00     0.107 C 
HETATM   10  N8  UNL     1      13.325  -5.940  26.545  1.00  0.00    -0.191 NA
HETATM   11  C21 UNL     1      15.476  -7.940  24.425  1.00  0.00     0.139 A 
HETATM   12  N10 UNL     1      15.459  -8.691  23.311  1.00  0.00    -0.262 N 
ATOM     13  H10 UNL     1      16.258  -9.173  22.899  1.00  0.00     0.190 HD
HETATM   14  N11 UNL     1      14.201  -8.692  22.839  1.00  0.00    -0.065 N 
ENDROOT
BRANCH  11  15
HETATM   15  N9  UNL     1      16.507  -7.704  25.156  1.00  0.00    -0.383 N 
ATOM     16  H92 UNL     1      16.591  -7.910  26.152  1.00  0.00     0.157 HD
ATOM     17  H91 UNL     1      17.374  -7.279  24.827  1.00  0.00     0.157 HD
ENDBRANCH  11  15
BRANCH   4  18
HETATM   18  N6  UNL     1      10.309  -8.276  22.003  1.00  0.00    -0.221 N 
ATOM     19  H6  UNL     1       9.895  -7.345  22.025  1.00  0.00     0.178 HD
BRANCH  18  20
HETATM   20  C13 UNL     1       9.476  -9.406  21.671  1.00  0.00     0.099 C 
HETATM   21  C14 UNL     1       8.612  -9.121  20.454  1.00  0.00     0.026 C 
HETATM   22  C15 UNL     1       7.543 -10.189  20.515  1.00  0.00     0.002 C 
HETATM   23  C16 UNL     1       7.502 -10.672  21.946  1.00  0.00     0.002 C 
HETATM   24  C17 UNL     1       8.450  -9.733  22.706  1.00  0.00     0.026 C 
ENDBRANCH  18  20
ENDBRANCH   4  18
BRANCH   1  25
HETATM   25  N4  UNL     1      14.541 -10.084  20.908  1.00  0.00    -0.142 N 
HETATM   26  C10 UNL     1      14.131 -11.405  20.398  1.00  0.00     0.171 C 
HETATM   27  C9  UNL     1      14.717 -11.533  18.982  1.00  0.00     0.143 C 
HETATM   28  N3  UNL     1      16.146 -11.527  18.995  1.00  0.00    -0.379 N 
HETATM   29  C23 UNL     1      16.763 -10.682  19.938  1.00  0.00     0.161 C 
HETATM   30  C22 UNL     1      15.824  -9.675  20.478  1.00  0.00     0.277 C 
HETATM   31  O2  UNL     1      16.118  -8.449  20.576  1.00  0.00    -0.266 OA
BRANCH  28  32
HETATM   32  C8  UNL     1      16.758 -12.797  18.837  1.00  0.00     0.085 C 
HETATM   33  C7  UNL     1      17.203 -13.110  17.440  1.00  0.00     0.027 C 
HETATM   34  C6  UNL     1      18.450 -12.258  17.334  1.00  0.00     0.025 C 
HETATM   35  C5  UNL     1      19.127 -12.629  18.653  1.00  0.00     0.051 C 
HETATM   36  C2  UNL     1      19.978 -13.828  18.391  1.00  0.00     0.017 C 
HETATM   37  C4  UNL     1      20.144 -11.653  19.059  1.00  0.00     0.091 C 
HETATM   38  C24 UNL     1      18.027 -12.871  19.627  1.00  0.00     0.047 C 
HETATM   39  C1  UNL     1      19.774 -15.077  18.652  1.00  0.00     0.025 C 
HETATM   40  C3  UNL     1      21.175 -13.275  17.730  1.00  0.00     0.253 C 
HETATM   41  O1  UNL     1      21.956 -13.878  16.951  1.00  0.00    -0.268 OA
HETATM   42  N1  UNL     1      21.254 -11.906  18.168  1.00  0.00    -0.312 N 
ATOM     43  H1  UNL     1      21.970 -11.232  17.897  1.00  0.00     0.170 HD
HETATM   44  N2  UNL     1      20.191 -10.742  19.960  1.00  0.00    -0.388 N 
ATOM     45  H22 UNL     1      20.898 -10.063  20.243  1.00  0.00     0.157 HD
ATOM     46  H21 UNL     1      19.408 -10.563  20.589  1.00  0.00     0.157 HD
ENDBRANCH  28  32
ENDBRANCH   1  25
TORSDOF 5
ENDMDL
MODEL 5
REMARK VINA RESULT: -10.209325122     10.417     16.831
REMARK  5 active torsions:
REMARK  status: ('A' for Active; 'I' for Inactive)
REMARK    1  A    between atoms: C8_14  and  N3_15 
REMARK    2  A    between atoms: N4_18  and  C11_19 
REMARK    3  A    between atoms: C12_22  and  N6_23 
REMARK    4  A    between atoms: N6_23  and  C13_25 
REMARK    5  A    between atoms: C21_36  and  N9_37 
ROOT
HETATM    1  C11 UNL     1      20.840 -12.150  17.488  1.00  0.00     0.725 A 
HETATM    2  N5  UNL     1      19.517 -12.041  17.263  1.00  0.00    -0.020 N 
ATOM      3  H5  UNL     1      19.151 -12.263  16.337  1.00  0.00     0.203 HD
HETATM    4  C12 UNL     1      18.652 -11.641  18.236  1.00  0.00     0.694 A 
HETATM    5  N7  UNL     1      19.185 -11.359  19.433  1.00  0.00    -0.172 N 
ATOM      6  H7  UNL     1      18.562 -11.055  20.181  1.00  0.00     0.186 HD
HETATM    7  C18 UNL     1      20.505 -11.457  19.699  1.00  0.00     0.185 A 
HETATM    8  C19 UNL     1      21.264 -11.227  20.824  1.00  0.00     0.136 A 
HETATM    9  C20 UNL     1      20.718 -10.788  22.072  1.00  0.00     0.107 C 
HETATM   10  N8  UNL     1      20.289 -10.423  23.067  1.00  0.00    -0.191 NA
HETATM   11  C21 UNL     1      22.558 -11.505  20.460  1.00  0.00     0.139 A 
HETATM   12  N10 UNL     1      22.583 -11.887  19.172  1.00  0.00    -0.262 N 
ATOM     13  H10 UNL     1      23.411 -12.154  18.639  1.00  0.00     0.190 HD
HETATM   14  N11 UNL     1      21.320 -11.854  18.713  1.00  0.00    -0.065 N 
ENDROOT
BRANCH  11  15
HETATM   15  N9  UNL     1      23.580 -11.412  21.236  1.00  0.00    -0.383 N 
ATOM     16  H92 UNL     1      23.815 -10.608  21.817  1.00  0.00     0.157 HD
ATOM     17  H91 UNL     1      24.285 -12.138  21.365  1.00  0.00     0.157 HD
ENDBRANCH  11  15
BRANCH   4  18
HETATM   18  N6  UNL     1      17.392 -11.539  18.012  1.00  0.00    -0.221 N 
ATOM     19  H6  UNL     1      16.868 -10.787  18.459  1.00  0.00     0.178 HD
BRANCH  18  20
HETATM   20  C13 UNL     1      16.696 -12.459  17.146  1.00  0.00     0.099 C 
HETATM   21  C14 UNL     1      15.193 -12.252  17.209  1.00  0.00     0.026 C 
HETATM   22  C15 UNL     1      14.630 -13.523  16.614  1.00  0.00     0.002 C 
HETATM   23  C16 UNL     1      15.717 -14.566  16.727  1.00  0.00     0.002 C 
HETATM   24  C17 UNL     1      16.826 -13.892  17.548  1.00  0.00     0.026 C 
ENDBRANCH  18  20
ENDBRANCH   4  18
BRANCH   1  25
HETATM   25  N4  UNL     1      21.739 -12.569  16.455  1.00  0.00    -0.142 N 
HETATM   26  C10 UNL     1      22.262 -11.627  15.449  1.00  0.00     0.171 C 
HETATM   27  C9  UNL     1      23.705 -12.064  15.144  1.00  0.00     0.143 C 
HETATM   28  N3  UNL     1      23.753 -13.363  14.551  1.00  0.00    -0.379 N 
HETATM   29  C23 UNL     1      22.818 -14.305  15.021  1.00  0.00     0.161 C 
HETATM   30  C22 UNL     1      22.213 -13.893  16.306  1.00  0.00     0.277 C 
HETATM   31  O2  UNL     1      22.099 -14.677  17.291  1.00  0.00    -0.266 OA
BRANCH  28  32
HETATM   32  C8  UNL     1      23.969 -13.379  13.148  1.00  0.00     0.085 C 
HETATM   33  C7  UNL     1      25.382 -13.654  12.733  1.00  0.00     0.027 C 
HETATM   34  C6  UNL     1      25.473 -15.145  12.981  1.00  0.00     0.025 C 
HETATM   35  C5  UNL     1      24.180 -15.597  12.304  1.00  0.00     0.051 C 
HETATM   36  C2  UNL     1      24.499 -15.860  10.870  1.00  0.00     0.017 C 
HETATM   37  C4  UNL     1      23.751 -16.930  12.740  1.00  0.00     0.091 C 
HETATM   38  C24 UNL     1      23.200 -14.495  12.511  1.00  0.00     0.047 C 
HETATM   39  C1  UNL     1      24.283 -15.145   9.815  1.00  0.00     0.025 C 
HETATM   40  C3  UNL     1      25.155 -17.182  10.890  1.00  0.00     0.253 C 
HETATM   41  O1  UNL     1      25.968 -17.636  10.045  1.00  0.00    -0.268 OA
HETATM   42  N1  UNL     1      24.666 -17.832  12.077  1.00  0.00    -0.312 N 
ATOM     43  H1  UNL     1      24.922 -18.767  12.395  1.00  0.00     0.170 HD
HETATM   44  N2  UNL     1      22.816 -17.356  13.508  1.00  0.00    -0.388 N 
ATOM     45  H22 UNL     1      22.518 -18.283  13.812  1.00  0.00     0.157 HD
ATOM     46  H21 UNL     1      22.170 -16.721  13.977  1.00  0.00     0.157 HD
ENDBRANCH  28  32
ENDBRANCH   1  25
TORSDOF 5
ENDMDL
