MODEL 1
REMARK VINA RESULT: -11.373359659      0.000      0.000
REMARK  6 active torsions:
REMARK  status: ('A' for Active; 'I' for Inactive)
REMARK    1  A    between atoms: C4_6  and  C5_7 
REMARK       I    between atoms: C5_7  and  N2_9 
REMARK    2  A    between atoms: N2_9  and  C6_11 
REMARK    3  A    between atoms: C8_17  and  C9_18 
REMARK       I    between atoms: C9_18  and  N5_20 
REMARK    4  A    between atoms: C16_27  and  C17_28 
REMARK    5  A    between atoms: C18_29  and  C19_30 
REMARK    6  A    between atoms: C20_33  and  N7_34 
ROOT
HETATM    1  C1  UNL     1      19.766 -11.046  20.671  1.00  0.00     0.070 C 
HETATM    2  C2  UNL     1      18.951 -10.061  21.465  1.00  0.00     0.024 A 
HETATM    3  N1  UNL     1      19.477  -9.355  22.468  1.00  0.00    -0.367 N 
ATOM      4  H1  UNL     1      20.459  -9.483  22.711  1.00  0.00     0.165 HD
HETATM    5  C3  UNL     1      18.735  -8.484  23.160  1.00  0.00     0.105 A 
HETATM    6  C4  UNL     1      17.412  -8.317  22.830  1.00  0.00     0.048 A 
HETATM    7  C15 UNL     1      16.871  -9.047  21.793  1.00  0.00     0.041 A 
HETATM    8  C16 UNL     1      17.627  -9.947  21.073  1.00  0.00     0.041 A 
ENDROOT
BRANCH   6   9
HETATM    9  C5  UNL     1      16.586  -7.373  23.571  1.00  0.00     0.254 C 
HETATM   10  O1  UNL     1      16.478  -6.180  23.126  1.00  0.00    -0.268 OA
HETATM   11  N2  UNL     1      15.883  -7.673  24.762  1.00  0.00    -0.334 N 
ATOM     12  H2  UNL     1      15.943  -8.614  25.152  1.00  0.00     0.165 HD
BRANCH  11  13
HETATM   13  C6  UNL     1      15.069  -6.662  25.451  1.00  0.00     0.209 C 
HETATM   14  N3  UNL     1      15.887  -5.887  26.252  1.00  0.00    -0.350 N 
HETATM   15  C7  UNL     1      15.971  -6.041  27.483  1.00  0.00     0.152 C 
ATOM     16  H3  UNL     1      16.447  -5.157  25.813  1.00  0.00     0.163 HD
HETATM   17  N4  UNL     1      16.749  -5.344  28.451  1.00  0.00    -0.075 NA
HETATM   18  S1  UNL     1      14.871  -7.383  27.894  1.00  0.00    -0.079 SA
HETATM   19  C8  UNL     1      14.046  -7.420  26.251  1.00  0.00     0.189 C 
BRANCH  19  20
HETATM   20  C9  UNL     1      12.825  -6.589  26.398  1.00  0.00     0.237 C 
HETATM   21  O2  UNL     1      12.808  -5.619  27.193  1.00  0.00    -0.272 OA
HETATM   22  N5  UNL     1      11.643  -6.868  25.646  1.00  0.00    -0.351 N 
HETATM   23  C10 UNL     1      10.442  -6.039  25.804  1.00  0.00     0.126 C 
HETATM   24  C14 UNL     1      11.536  -7.950  24.698  1.00  0.00     0.126 C 
HETATM   25  C11 UNL     1       9.348  -6.880  26.409  1.00  0.00     0.020 C 
HETATM   26  C12 UNL     1       9.392  -8.292  25.851  1.00  0.00     0.003 C 
HETATM   27  C13 UNL     1      10.055  -8.270  24.472  1.00  0.00     0.020 C 
ENDBRANCH  19  20
ENDBRANCH  11  13
ENDBRANCH   6   9
BRANCH   8  28
HETATM   28  C17 UNL     1      17.069 -10.713  19.989  1.00  0.00    -0.058 C 
HETATM   29  C18 UNL     1      16.607 -11.373  19.089  1.00  0.00    -0.042 C 
BRANCH  29  30
HETATM   30  C19 UNL     1      16.052 -12.176  18.037  1.00  0.00     0.112 A 
HETATM   31  N6  UNL     1      14.857 -11.880  17.496  1.00  0.00    -0.183 N 
HETATM   32  C20 UNL     1      14.320 -12.639  16.495  1.00  0.00     0.678 A 
ATOM     33  H6  UNL     1      14.340 -11.072  17.840  1.00  0.00     0.185 HD
HETATM   34  N8  UNL     1      14.946 -13.716  15.994  1.00  0.00    -0.178 N 
HETATM   35  C21 UNL     1      16.138 -14.046  16.505  1.00  0.00     0.140 A 
ATOM     36  H8  UNL     1      14.524 -14.267  15.246  1.00  0.00     0.185 HD
HETATM   37  N9  UNL     1      16.812 -15.181  15.988  1.00  0.00    -0.082 NA
HETATM   38  C22 UNL     1      16.691 -13.292  17.513  1.00  0.00     0.016 A 
HETATM   39  C23 UNL     1      18.031 -13.664  18.085  1.00  0.00     0.055 C 
BRANCH  32  40
HETATM   40  N7  UNL     1      13.156 -12.262  16.042  1.00  0.00    -0.234 N 
ATOM     41  H72 UNL     1      12.713 -11.406  16.373  1.00  0.00     0.174 HD
ATOM     42  H71 UNL     1      12.722 -12.868  15.347  1.00  0.00     0.174 HD
ENDBRANCH  32  40
ENDBRANCH  29  30
ENDBRANCH   8  28
TORSDOF 6
ENDMDL
MODEL 2
REMARK VINA RESULT: -10.818457846      2.510      3.491
REMARK  6 active torsions:
REMARK  status: ('A' for Active; 'I' for Inactive)
REMARK    1  A    between atoms: C4_6  and  C5_7 
REMARK       I    between atoms: C5_7  and  N2_9 
REMARK    2  A    between atoms: N2_9  and  C6_11 
REMARK    3  A    between atoms: C8_17  and  C9_18 
REMARK       I    between atoms: C9_18  and  N5_20 
REMARK    4  A    between atoms: C16_27  and  C17_28 
REMARK    5  A    between atoms: C18_29  and  C19_30 
REMARK    6  A    between atoms: C20_33  and  N7_34 
ROOT
HETATM    1  C1  UNL     1      17.994 -10.073  20.725  1.00  0.00     0.070 C 
HETATM    2  C2  UNL     1      16.698  -9.656  21.365  1.00  0.00     0.024 A 
HETATM    3  N1  UNL     1      16.663  -8.887  22.455  1.00  0.00    -0.367 N 
ATOM      4  H1  UNL     1      17.538  -8.570  22.874  1.00  0.00     0.165 HD
HETATM    5  C3  UNL     1      15.499  -8.527  23.007  1.00  0.00     0.105 A 
HETATM    6  C4  UNL     1      14.325  -8.959  22.441  1.00  0.00     0.048 A 
HETATM    7  C15 UNL     1      14.363  -9.753  21.314  1.00  0.00     0.041 A 
HETATM    8  C16 UNL     1      15.557 -10.130  20.737  1.00  0.00     0.041 A 
ENDROOT
BRANCH   6   9
HETATM    9  C5  UNL     1      13.046  -8.579  23.027  1.00  0.00     0.254 C 
HETATM   10  O1  UNL     1      11.977  -9.051  22.509  1.00  0.00    -0.268 OA
HETATM   11  N2  UNL     1      12.888  -7.717  24.137  1.00  0.00    -0.334 N 
ATOM     12  H2  UNL     1      13.716  -7.318  24.580  1.00  0.00     0.165 HD
BRANCH  11  13
HETATM   13  C6  UNL     1      11.559  -7.383  24.669  1.00  0.00     0.209 C 
HETATM   14  N3  UNL     1      11.021  -6.346  23.930  1.00  0.00    -0.350 N 
HETATM   15  C7  UNL     1      11.006  -5.168  24.328  1.00  0.00     0.152 C 
ATOM     16  H3  UNL     1      10.617  -6.557  23.018  1.00  0.00     0.163 HD
HETATM   17  N4  UNL     1      10.500  -3.990  23.710  1.00  0.00    -0.075 NA
HETATM   18  S1  UNL     1      11.782  -5.174  25.934  1.00  0.00    -0.079 SA
HETATM   19  C8  UNL     1      11.766  -7.005  26.110  1.00  0.00     0.189 C 
BRANCH  19  20
HETATM   20  C9  UNL     1      10.538  -7.322  26.881  1.00  0.00     0.237 C 
HETATM   21  O2  UNL     1       9.442  -7.482  26.293  1.00  0.00    -0.272 OA
HETATM   22  N5  UNL     1      10.569  -7.452  28.304  1.00  0.00    -0.351 N 
HETATM   23  C10 UNL     1       9.347  -7.764  29.053  1.00  0.00     0.126 C 
HETATM   24  C14 UNL     1      11.766  -7.297  29.094  1.00  0.00     0.126 C 
HETATM   25  C11 UNL     1       8.997  -6.584  29.923  1.00  0.00     0.020 C 
HETATM   26  C12 UNL     1      10.255  -5.949  30.489  1.00  0.00     0.003 C 
HETATM   27  C13 UNL     1      11.369  -6.997  30.544  1.00  0.00     0.020 C 
ENDBRANCH  19  20
ENDBRANCH  11  13
ENDBRANCH   6   9
BRANCH   8  28
HETATM   28  C17 UNL     1      15.605 -10.958  19.561  1.00  0.00    -0.058 C 
HETATM   29  C18 UNL     1      15.624 -11.653  18.573  1.00  0.00    -0.042 C 
BRANCH  29  30
HETATM   30  C19 UNL     1      15.627 -12.464  17.388  1.00  0.00     0.112 A 
HETATM   31  N6  UNL     1      14.797 -12.198  16.364  1.00  0.00    -0.183 N 
HETATM   32  C20 UNL     1      14.791 -12.965  15.234  1.00  0.00     0.678 A 
ATOM     33  H6  UNL     1      14.157 -11.407  16.433  1.00  0.00     0.185 HD
HETATM   34  N8  UNL     1      15.605 -14.021  15.076  1.00  0.00    -0.178 N 
HETATM   35  C21 UNL     1      16.448 -14.321  16.073  1.00  0.00     0.140 A 
ATOM     36  H8  UNL     1      15.582 -14.578  14.222  1.00  0.00     0.185 HD
HETATM   37  N9  UNL     1      17.314 -15.433  15.923  1.00  0.00    -0.082 NA
HETATM   38  C22 UNL     1      16.465 -13.558  17.217  1.00  0.00     0.016 A 
HETATM   39  C23 UNL     1      17.412 -13.896  18.334  1.00  0.00     0.055 C 
BRANCH  32  40
HETATM   40  N7  UNL     1      13.946 -12.618  14.302  1.00  0.00    -0.234 N 
ATOM     41  H72 UNL     1      13.915 -13.108  13.409  1.00  0.00     0.174 HD
ATOM     42  H71 UNL     1      13.327 -11.837  14.518  1.00  0.00     0.174 HD
ENDBRANCH  32  40
ENDBRANCH  29  30
ENDBRANCH   8  28
TORSDOF 6
ENDMDL
MODEL 3
REMARK VINA RESULT: -10.554334939      2.828      3.893
REMARK  6 active torsions:
REMARK  status: ('A' for Active; 'I' for Inactive)
REMARK    1  A    between atoms: C4_6  and  C5_7 
REMARK       I    between atoms: C5_7  and  N2_9 
REMARK    2  A    between atoms: N2_9  and  C6_11 
REMARK    3  A    between atoms: C8_17  and  C9_18 
REMARK       I    between atoms: C9_18  and  N5_20 
REMARK    4  A    between atoms: C16_27  and  C17_28 
REMARK    5  A    between atoms: C18_29  and  C19_30 
REMARK    6  A    between atoms: C20_33  and  N7_34 
ROOT
HETATM    1  C1  UNL     1      18.961 -10.606  20.080  1.00  0.00     0.070 C 
HETATM    2  C2  UNL     1      17.808 -10.049  20.871  1.00  0.00     0.024 A 
HETATM    3  N1  UNL     1      17.995  -9.313  21.968  1.00  0.00    -0.367 N 
ATOM      4  H1  UNL     1      18.944  -9.119  22.287  1.00  0.00     0.165 HD
HETATM    5  C3  UNL     1      16.956  -8.827  22.657  1.00  0.00     0.105 A 
HETATM    6  C4  UNL     1      15.680  -9.093  22.224  1.00  0.00     0.048 A 
HETATM    7  C15 UNL     1      15.490  -9.854  21.090  1.00  0.00     0.041 A 
HETATM    8  C16 UNL     1      16.553 -10.359  20.373  1.00  0.00     0.041 A 
ENDROOT
BRANCH   6   9
HETATM    9  C5  UNL     1      14.535  -8.574  22.959  1.00  0.00     0.254 C 
HETATM   10  O1  UNL     1      14.743  -7.709  23.878  1.00  0.00    -0.268 OA
HETATM   11  N2  UNL     1      13.190  -8.954  22.738  1.00  0.00    -0.334 N 
ATOM     12  H2  UNL     1      12.980  -9.642  22.015  1.00  0.00     0.165 HD
BRANCH  11  13
HETATM   13  C6  UNL     1      12.089  -8.382  23.525  1.00  0.00     0.209 C 
HETATM   14  N3  UNL     1      10.987  -9.212  23.437  1.00  0.00    -0.350 N 
HETATM   15  C7  UNL     1      10.016  -8.972  22.698  1.00  0.00     0.152 C 
ATOM     16  H3  UNL     1      10.969 -10.060  24.004  1.00  0.00     0.163 HD
HETATM   17  N4  UNL     1       8.814  -9.704  22.484  1.00  0.00    -0.075 NA
HETATM   18  S1  UNL     1      10.386  -7.435  21.873  1.00  0.00    -0.079 SA
HETATM   19  C8  UNL     1      11.821  -7.021  22.946  1.00  0.00     0.189 C 
BRANCH  19  20
HETATM   20  C9  UNL     1      11.282  -6.134  24.008  1.00  0.00     0.237 C 
HETATM   21  O2  UNL     1      10.476  -6.579  24.860  1.00  0.00    -0.272 OA
HETATM   22  N5  UNL     1      11.663  -4.759  24.088  1.00  0.00    -0.351 N 
HETATM   23  C10 UNL     1      11.121  -3.893  25.142  1.00  0.00     0.126 C 
HETATM   24  C14 UNL     1      12.584  -4.130  23.174  1.00  0.00     0.126 C 
HETATM   25  C11 UNL     1      10.257  -2.836  24.505  1.00  0.00     0.020 C 
HETATM   26  C12 UNL     1      10.864  -2.373  23.192  1.00  0.00     0.003 C 
HETATM   27  C13 UNL     1      12.376  -2.612  23.222  1.00  0.00     0.020 C 
ENDBRANCH  19  20
ENDBRANCH  11  13
ENDBRANCH   6   9
BRANCH   8  28
HETATM   28  C17 UNL     1      16.362 -11.154  19.188  1.00  0.00    -0.058 C 
HETATM   29  C18 UNL     1      16.192 -11.835  18.205  1.00  0.00    -0.042 C 
BRANCH  29  30
HETATM   30  C19 UNL     1      15.966 -12.653  17.047  1.00  0.00     0.112 A 
HETATM   31  N6  UNL     1      15.062 -12.300  16.115  1.00  0.00    -0.183 N 
HETATM   32  C20 UNL     1      14.839 -13.071  15.010  1.00  0.00     0.678 A 
ATOM     33  H6  UNL     1      14.530 -11.438  16.237  1.00  0.00     0.185 HD
HETATM   34  N8  UNL     1      15.503 -14.217  14.787  1.00  0.00    -0.178 N 
HETATM   35  C21 UNL     1      16.412 -14.605  15.691  1.00  0.00     0.140 A 
ATOM     36  H8  UNL     1      15.319 -14.777  13.954  1.00  0.00     0.185 HD
HETATM   37  N9  UNL     1      17.121 -15.813  15.471  1.00  0.00    -0.082 NA
HETATM   38  C22 UNL     1      16.647 -13.839  16.808  1.00  0.00     0.016 A 
HETATM   39  C23 UNL     1      17.668 -14.276  17.821  1.00  0.00     0.055 C 
BRANCH  32  40
HETATM   40  N7  UNL     1      13.941 -12.637  14.171  1.00  0.00    -0.234 N 
ATOM     41  H72 UNL     1      12.952 -12.620  14.417  1.00  0.00     0.174 HD
ATOM     42  H71 UNL     1      14.283 -12.318  13.264  1.00  0.00     0.174 HD
ENDBRANCH  32  40
ENDBRANCH  29  30
ENDBRANCH   8  28
TORSDOF 6
ENDMDL
MODEL 4
REMARK VINA RESULT: -10.419435798      2.364      3.052
REMARK  6 active torsions:
REMARK  status: ('A' for Active; 'I' for Inactive)
REMARK    1  A    between atoms: C4_6  and  C5_7 
REMARK       I    between atoms: C5_7  and  N2_9 
REMARK    2  A    between atoms: N2_9  and  C6_11 
REMARK    3  A    between atoms: C8_17  and  C9_18 
REMARK       I    between atoms: C9_18  and  N5_20 
REMARK    4  A    between atoms: C16_27  and  C17_28 
REMARK    5  A    between atoms: C18_29  and  C19_30 
REMARK    6  A    between atoms: C20_33  and  N7_34 
ROOT
HETATM    1  C1  UNL     1      19.152 -10.510  20.949  1.00  0.00     0.070 C 
HETATM    2  C2  UNL     1      18.175  -9.652  21.707  1.00  0.00     0.024 A 
HETATM    3  N1  UNL     1      18.556  -8.883  22.728  1.00  0.00    -0.367 N 
ATOM      4  H1  UNL     1      19.536  -8.871  23.011  1.00  0.00     0.165 HD
HETATM    5  C3  UNL     1      17.672  -8.127  23.388  1.00  0.00     0.105 A 
HETATM    6  C4  UNL     1      16.353  -8.146  23.005  1.00  0.00     0.048 A 
HETATM    7  C15 UNL     1      15.962  -8.942  21.949  1.00  0.00     0.041 A 
HETATM    8  C16 UNL     1      16.865  -9.725  21.262  1.00  0.00     0.041 A 
ENDROOT
BRANCH   6   9
HETATM    9  C5  UNL     1      15.373  -7.331  23.711  1.00  0.00     0.254 C 
HETATM   10  O1  UNL     1      15.484  -6.059  23.648  1.00  0.00    -0.268 OA
HETATM   11  N2  UNL     1      14.294  -7.838  24.472  1.00  0.00    -0.334 N 
ATOM     12  H2  UNL     1      14.170  -8.848  24.548  1.00  0.00     0.165 HD
BRANCH  11  13
HETATM   13  C6  UNL     1      13.347  -6.946  25.155  1.00  0.00     0.209 C 
HETATM   14  N3  UNL     1      12.775  -7.618  26.219  1.00  0.00    -0.350 N 
HETATM   15  C7  UNL     1      11.630  -8.102  26.178  1.00  0.00     0.152 C 
ATOM     16  H3  UNL     1      13.317  -7.722  27.077  1.00  0.00     0.163 HD
HETATM   17  N4  UNL     1      10.892  -8.814  27.164  1.00  0.00    -0.075 NA
HETATM   18  S1  UNL     1      10.992  -7.734  24.553  1.00  0.00    -0.079 SA
HETATM   19  C8  UNL     1      12.328  -6.545  24.124  1.00  0.00     0.189 C 
BRANCH  19  20
HETATM   20  C9  UNL     1      11.792  -5.203  24.461  1.00  0.00     0.237 C 
HETATM   21  O2  UNL     1      11.110  -5.033  25.500  1.00  0.00    -0.272 OA
HETATM   22  N5  UNL     1      12.034  -4.075  23.617  1.00  0.00    -0.351 N 
HETATM   23  C10 UNL     1      11.495  -2.754  23.962  1.00  0.00     0.126 C 
HETATM   24  C14 UNL     1      12.805  -4.138  22.400  1.00  0.00     0.126 C 
HETATM   25  C11 UNL     1      10.477  -2.360  22.924  1.00  0.00     0.020 C 
HETATM   26  C12 UNL     1      10.921  -2.811  21.544  1.00  0.00     0.003 C 
HETATM   27  C13 UNL     1      12.446  -2.936  21.520  1.00  0.00     0.020 C 
ENDBRANCH  19  20
ENDBRANCH  11  13
ENDBRANCH   6   9
BRANCH   8  28
HETATM   28  C17 UNL     1      16.464 -10.559  20.159  1.00  0.00    -0.058 C 
HETATM   29  C18 UNL     1      16.147 -11.265  19.233  1.00  0.00    -0.042 C 
BRANCH  29  30
HETATM   30  C19 UNL     1      15.787 -12.124  18.140  1.00  0.00     0.112 A 
HETATM   31  N6  UNL     1      14.651 -11.926  17.447  1.00  0.00    -0.183 N 
HETATM   32  C20 UNL     1      14.299 -12.737  16.407  1.00  0.00     0.678 A 
ATOM     33  H6  UNL     1      14.038 -11.152  17.705  1.00  0.00     0.185 HD
HETATM   34  N8  UNL     1      15.059 -13.773  16.014  1.00  0.00    -0.178 N 
HETATM   35  C21 UNL     1      16.198 -14.006  16.677  1.00  0.00     0.140 A 
ATOM     36  H8  UNL     1      14.775 -14.366  15.233  1.00  0.00     0.185 HD
HETATM   37  N9  UNL     1      17.011 -15.096  16.276  1.00  0.00    -0.082 NA
HETATM   38  C22 UNL     1      16.565 -13.198  17.727  1.00  0.00     0.016 A 
HETATM   39  C23 UNL     1      17.845 -13.460  18.470  1.00  0.00     0.055 C 
BRANCH  32  40
HETATM   40  N7  UNL     1      13.178 -12.455  15.804  1.00  0.00    -0.234 N 
ATOM     41  H72 UNL     1      12.330 -12.253  16.333  1.00  0.00     0.174 HD
ATOM     42  H71 UNL     1      13.199 -12.449  14.784  1.00  0.00     0.174 HD
ENDBRANCH  32  40
ENDBRANCH  29  30
ENDBRANCH   8  28
TORSDOF 6
ENDMDL
MODEL 5
REMARK VINA RESULT: -10.368294637      2.756      4.160
REMARK  6 active torsions:
REMARK  status: ('A' for Active; 'I' for Inactive)
REMARK    1  A    between atoms: C4_6  and  C5_7 
REMARK       I    between atoms: C5_7  and  N2_9 
REMARK    2  A    between atoms: N2_9  and  C6_11 
REMARK    3  A    between atoms: C8_17  and  C9_18 
REMARK       I    between atoms: C9_18  and  N5_20 
REMARK    4  A    between atoms: C16_27  and  C17_28 
REMARK    5  A    between atoms: C18_29  and  C19_30 
REMARK    6  A    between atoms: C20_33  and  N7_34 
ROOT
HETATM    1  C1  UNL     1      14.620 -11.522  19.576  1.00  0.00     0.070 C 
HETATM    2  C2  UNL     1      14.466 -10.466  20.637  1.00  0.00     0.024 A 
HETATM    3  N1  UNL     1      13.269 -10.110  21.109  1.00  0.00    -0.367 N 
ATOM      4  H1  UNL     1      12.431 -10.562  20.746  1.00  0.00     0.165 HD
HETATM    5  C3  UNL     1      13.154  -9.170  22.053  1.00  0.00     0.105 A 
HETATM    6  C4  UNL     1      14.287  -8.563  22.539  1.00  0.00     0.048 A 
HETATM    7  C15 UNL     1      15.521  -8.932  22.049  1.00  0.00     0.041 A 
HETATM    8  C16 UNL     1      15.652  -9.900  21.076  1.00  0.00     0.041 A 
ENDROOT
BRANCH   6   9
HETATM    9  C5  UNL     1      14.184  -7.535  23.566  1.00  0.00     0.254 C 
HETATM   10  O1  UNL     1      13.483  -6.495  23.318  1.00  0.00    -0.268 OA
HETATM   11  N2  UNL     1      14.806  -7.593  24.836  1.00  0.00    -0.334 N 
ATOM     12  H2  UNL     1      15.375  -8.405  25.074  1.00  0.00     0.165 HD
BRANCH  11  13
HETATM   13  C6  UNL     1      14.652  -6.512  25.819  1.00  0.00     0.209 C 
HETATM   14  N3  UNL     1      15.894  -5.977  26.106  1.00  0.00    -0.350 N 
HETATM   15  C7  UNL     1      16.526  -6.251  27.141  1.00  0.00     0.152 C 
ATOM     16  H3  UNL     1      16.311  -5.329  25.438  1.00  0.00     0.163 HD
HETATM   17  N4  UNL     1      17.798  -5.800  27.594  1.00  0.00    -0.075 NA
HETATM   18  S1  UNL     1      15.509  -7.393  28.058  1.00  0.00    -0.079 SA
HETATM   19  C8  UNL     1      14.008  -7.131  27.028  1.00  0.00     0.189 C 
BRANCH  19  20
HETATM   20  C9  UNL     1      13.210  -6.102  27.740  1.00  0.00     0.237 C 
HETATM   21  O2  UNL     1      13.762  -5.071  28.194  1.00  0.00    -0.272 OA
HETATM   22  N5  UNL     1      11.802  -6.255  27.928  1.00  0.00    -0.351 N 
HETATM   23  C10 UNL     1      11.027  -5.230  28.636  1.00  0.00     0.126 C 
HETATM   24  C14 UNL     1      11.051  -7.390  27.450  1.00  0.00     0.126 C 
HETATM   25  C11 UNL     1      10.500  -5.820  29.919  1.00  0.00     0.020 C 
HETATM   26  C12 UNL     1      10.088  -7.266  29.709  1.00  0.00     0.003 C 
HETATM   27  C13 UNL     1       9.738  -7.484  28.235  1.00  0.00     0.020 C 
ENDBRANCH  19  20
ENDBRANCH  11  13
ENDBRANCH   6   9
BRANCH   8  28
HETATM   28  C17 UNL     1      16.937 -10.291  20.560  1.00  0.00    -0.058 C 
HETATM   29  C18 UNL     1      18.017 -10.633  20.142  1.00  0.00    -0.042 C 
BRANCH  29  30
HETATM   30  C19 UNL     1      19.296 -11.064  19.652  1.00  0.00     0.112 A 
HETATM   31  N6  UNL     1      19.454 -11.455  18.375  1.00  0.00    -0.183 N 
HETATM   32  C20 UNL     1      20.666 -11.868  17.900  1.00  0.00     0.678 A 
ATOM     33  H6  UNL     1      18.650 -11.443  17.747  1.00  0.00     0.185 HD
HETATM   34  N8  UNL     1      21.765 -11.909  18.671  1.00  0.00    -0.178 N 
HETATM   35  C21 UNL     1      21.651 -11.528  19.950  1.00  0.00     0.140 A 
ATOM     36  H8  UNL     1      22.660 -12.221  18.294  1.00  0.00     0.185 HD
HETATM   37  N9  UNL     1      22.802 -11.566  20.778  1.00  0.00    -0.082 NA
HETATM   38  C22 UNL     1      20.437 -11.111  20.442  1.00  0.00     0.016 A 
HETATM   39  C23 UNL     1      20.312 -10.684  21.878  1.00  0.00     0.055 C 
BRANCH  32  40
HETATM   40  N7  UNL     1      20.707 -12.224  16.646  1.00  0.00    -0.234 N 
ATOM     41  H72 UNL     1      20.944 -13.178  16.376  1.00  0.00     0.174 HD
ATOM     42  H71 UNL     1      20.492 -11.500  15.961  1.00  0.00     0.174 HD
ENDBRANCH  32  40
ENDBRANCH  29  30
ENDBRANCH   8  28
TORSDOF 6
ENDMDL
