MODEL 1
REMARK VINA RESULT: -10.241352651      0.000      0.000
REMARK  5 active torsions:
REMARK  status: ('A' for Active; 'I' for Inactive)
REMARK    1  A    between atoms: N1_4  and  C4_5 
REMARK    2  A    between atoms: C7_8  and  N2_9 
REMARK    3  A    between atoms: C17_27  and  C18_28 
REMARK    4  A    between atoms: C18_28  and  O1_29 
REMARK    5  A    between atoms: O1_29  and  C19_30 
ROOT
HETATM    1  N2  UNL     1      14.192  -8.557  22.056  1.00  0.00    -0.313 N 
HETATM    2  C8  UNL     1      15.241  -7.764  22.647  1.00  0.00     0.176 C 
HETATM    3  C9  UNL     1      16.278  -8.645  23.300  1.00  0.00     0.075 C 
HETATM    4  N3  UNL     1      17.428  -7.987  23.779  1.00  0.00    -0.401 N 
ATOM      5  H3  UNL     1      18.359  -8.333  23.548  1.00  0.00     0.158 HD
HETATM    6  C10 UNL     1      17.267  -6.836  24.588  1.00  0.00     0.120 C 
HETATM    7  C11 UNL     1      17.623  -7.038  26.047  1.00  0.00     0.047 C 
HETATM    8  C12 UNL     1      16.449  -7.456  26.891  1.00  0.00     0.234 C 
HETATM    9  N4  UNL     1      15.904  -6.371  27.670  1.00  0.00    -0.075 N 
ATOM     10  H41 UNL     1      15.898  -5.484  27.166  1.00  0.00     0.277 HD
ATOM     11  H42 UNL     1      16.513  -6.086  28.436  1.00  0.00     0.277 HD
HETATM   12  C13 UNL     1      14.579  -6.775  28.120  1.00  0.00     0.233 C 
HETATM   13  C14 UNL     1      13.538  -6.590  27.057  1.00  0.00     0.055 C 
HETATM   14  C15 UNL     1      12.678  -7.855  26.934  1.00  0.00     0.234 C 
HETATM   15  N5  UNL     1      11.827  -7.750  25.740  1.00  0.00    -0.074 N 
ATOM     16  H51 UNL     1      11.152  -6.986  25.789  1.00  0.00     0.277 HD
ATOM     17  H52 UNL     1      11.150  -8.510  25.657  1.00  0.00     0.277 HD
HETATM   18  C16 UNL     1      12.734  -7.652  24.594  1.00  0.00     0.248 C 
HETATM   19  C17 UNL     1      11.999  -8.304  23.432  1.00  0.00     0.128 C 
HETATM   20  C22 UNL     1      12.803  -8.404  22.200  1.00  0.00     0.232 C 
HETATM   21  O2  UNL     1      12.103  -8.338  21.116  1.00  0.00    -0.272 OA
ENDROOT
BRANCH   1  22
HETATM   22  C7  UNL     1      14.652  -9.623  21.198  1.00  0.00     0.037 A 
HETATM   23  C6  UNL     1      15.925  -9.438  20.691  1.00  0.00     0.032 A 
HETATM   24  C5  UNL     1      16.479 -10.390  19.850  1.00  0.00     0.031 A 
HETATM   25  C4  UNL     1      15.791 -11.523  19.502  1.00  0.00     0.030 A 
HETATM   26  C24 UNL     1      14.517 -11.666  20.035  1.00  0.00     0.031 A 
HETATM   27  C23 UNL     1      13.940 -10.730  20.878  1.00  0.00     0.032 A 
BRANCH  25  28
HETATM   28  N1  UNL     1      16.359 -12.487  18.631  1.00  0.00    -0.377 N 
HETATM   29  C3  UNL     1      15.757 -12.734  17.325  1.00  0.00     0.155 C 
HETATM   30  C2  UNL     1      16.063 -14.189  16.975  1.00  0.00     0.199 C 
HETATM   31  C1  UNL     1      15.189 -14.692  15.876  1.00  0.00     0.041 C 
HETATM   32  N8  UNL     1      17.479 -14.334  16.720  1.00  0.00    -0.068 N 
HETATM   33  C26 UNL     1      18.271 -13.530  17.633  1.00  0.00     0.252 C 
ATOM     34  H82 UNL     1      17.763 -15.314  16.744  1.00  0.00     0.277 HD
ATOM     35  H81 UNL     1      17.706 -14.126  15.748  1.00  0.00     0.277 HD
HETATM   36  C25 UNL     1      17.534 -13.267  18.942  1.00  0.00     0.150 C 
ENDBRANCH  25  28
ENDBRANCH   1  22
BRANCH  19  37
HETATM   37  C18 UNL     1      10.789  -7.468  23.204  1.00  0.00     0.192 C 
BRANCH  37  38
HETATM   38  O1  UNL     1       9.560  -8.082  23.215  1.00  0.00    -0.337 OA
BRANCH  38  39
HETATM   39  C19 UNL     1       8.967  -8.818  22.227  1.00  0.00     0.130 C 
HETATM   40  N6  UNL     1       9.067  -8.526  20.979  1.00  0.00    -0.287 N 
HETATM   41  N7  UNL     1       8.360  -9.450  20.199  1.00  0.00    -0.139 NA
ATOM     42  H6  UNL     1       9.587  -7.731  20.609  1.00  0.00     0.184 HD
HETATM   43  C20 UNL     1       7.557 -10.291  21.067  1.00  0.00     0.143 C 
HETATM   44  C21 UNL     1       8.129 -10.049  22.427  1.00  0.00     0.103 C 
ENDBRANCH  38  39
ENDBRANCH  37  38
ENDBRANCH  19  37
TORSDOF 5
ENDMDL
MODEL 2
REMARK VINA RESULT: -10.092867048      1.578      1.703
REMARK  5 active torsions:
REMARK  status: ('A' for Active; 'I' for Inactive)
REMARK    1  A    between atoms: N1_4  and  C4_5 
REMARK    2  A    between atoms: C7_8  and  N2_9 
REMARK    3  A    between atoms: C17_27  and  C18_28 
REMARK    4  A    between atoms: C18_28  and  O1_29 
REMARK    5  A    between atoms: O1_29  and  C19_30 
ROOT
HETATM    1  N2  UNL     1      14.924  -8.146  22.448  1.00  0.00    -0.313 N 
HETATM    2  C8  UNL     1      16.144  -7.557  22.941  1.00  0.00     0.176 C 
HETATM    3  C9  UNL     1      17.091  -8.621  23.439  1.00  0.00     0.075 C 
HETATM    4  N3  UNL     1      18.377  -8.176  23.805  1.00  0.00    -0.401 N 
ATOM      5  H3  UNL     1      19.210  -8.650  23.456  1.00  0.00     0.158 HD
HETATM    6  C10 UNL     1      18.491  -7.058  24.667  1.00  0.00     0.120 C 
HETATM    7  C11 UNL     1      18.966  -7.389  26.066  1.00  0.00     0.047 C 
HETATM    8  C12 UNL     1      17.839  -7.663  27.026  1.00  0.00     0.234 C 
HETATM    9  N4  UNL     1      17.563  -6.549  27.899  1.00  0.00    -0.075 N 
ATOM     10  H41 UNL     1      17.645  -5.647  27.430  1.00  0.00     0.277 HD
ATOM     11  H42 UNL     1      18.290  -6.403  28.599  1.00  0.00     0.277 HD
HETATM   12  C13 UNL     1      16.247  -6.766  28.485  1.00  0.00     0.233 C 
HETATM   13  C14 UNL     1      15.139  -6.366  27.556  1.00  0.00     0.055 C 
HETATM   14  C15 UNL     1      14.081  -7.473  27.490  1.00  0.00     0.234 C 
HETATM   15  N5  UNL     1      13.132  -7.176  26.406  1.00  0.00    -0.074 N 
ATOM     16  H51 UNL     1      12.599  -6.320  26.559  1.00  0.00     0.277 HD
ATOM     17  H52 UNL     1      12.338  -7.816  26.375  1.00  0.00     0.277 HD
HETATM   18  C16 UNL     1      13.914  -7.160  25.167  1.00  0.00     0.248 C 
HETATM   19  C17 UNL     1      12.963  -7.628  24.076  1.00  0.00     0.128 C 
HETATM   20  C22 UNL     1      13.602  -7.787  22.756  1.00  0.00     0.232 C 
HETATM   21  O2  UNL     1      12.808  -7.556  21.763  1.00  0.00    -0.272 OA
ENDROOT
BRANCH   1  22
HETATM   22  C7  UNL     1      15.112  -9.223  21.506  1.00  0.00     0.037 A 
HETATM   23  C6  UNL     1      16.317  -9.188  20.831  1.00  0.00     0.032 A 
HETATM   24  C5  UNL     1      16.616 -10.166  19.896  1.00  0.00     0.031 A 
HETATM   25  C4  UNL     1      15.737 -11.180  19.618  1.00  0.00     0.030 A 
HETATM   26  C24 UNL     1      14.539 -11.175  20.319  1.00  0.00     0.031 A 
HETATM   27  C23 UNL     1      14.217 -10.209  21.260  1.00  0.00     0.032 A 
BRANCH  25  28
HETATM   28  N1  UNL     1      16.043 -12.171  18.651  1.00  0.00    -0.377 N 
HETATM   29  C3  UNL     1      15.347 -12.177  17.368  1.00  0.00     0.155 C 
HETATM   30  C2  UNL     1      15.312 -13.631  16.902  1.00  0.00     0.199 C 
HETATM   31  C1  UNL     1      14.304 -13.844  15.823  1.00  0.00     0.041 C 
HETATM   32  N8  UNL     1      16.650 -14.057  16.556  1.00  0.00    -0.068 N 
HETATM   33  C26 UNL     1      17.636 -13.518  17.475  1.00  0.00     0.252 C 
ATOM     34  H82 UNL     1      16.713 -15.074  16.495  1.00  0.00     0.277 HD
ATOM     35  H81 UNL     1      16.876 -13.826  15.589  1.00  0.00     0.277 HD
HETATM   36  C25 UNL     1      17.030 -13.209  18.838  1.00  0.00     0.150 C 
ENDBRANCH  25  28
ENDBRANCH   1  22
BRANCH  19  37
HETATM   37  C18 UNL     1      11.884  -6.603  24.018  1.00  0.00     0.192 C 
BRANCH  37  38
HETATM   38  O1  UNL     1      10.641  -6.936  24.499  1.00  0.00    -0.337 OA
BRANCH  38  39
HETATM   39  C19 UNL     1       9.978  -8.126  24.392  1.00  0.00     0.130 C 
HETATM   40  N6  UNL     1       9.753  -8.896  25.397  1.00  0.00    -0.287 N 
HETATM   41  N7  UNL     1       9.057 -10.043  24.992  1.00  0.00    -0.139 NA
ATOM     42  H6  UNL     1      10.042  -8.700  26.355  1.00  0.00     0.184 HD
HETATM   43  C20 UNL     1       9.028 -10.096  23.543  1.00  0.00     0.143 C 
HETATM   44  C21 UNL     1       9.420  -8.714  23.127  1.00  0.00     0.103 C 
ENDBRANCH  38  39
ENDBRANCH  37  38
ENDBRANCH  19  37
TORSDOF 5
ENDMDL
MODEL 3
REMARK VINA RESULT: -9.912302523      1.556      1.973
REMARK  5 active torsions:
REMARK  status: ('A' for Active; 'I' for Inactive)
REMARK    1  A    between atoms: N1_4  and  C4_5 
REMARK    2  A    between atoms: C7_8  and  N2_9 
REMARK    3  A    between atoms: C17_27  and  C18_28 
REMARK    4  A    between atoms: C18_28  and  O1_29 
REMARK    5  A    between atoms: O1_29  and  C19_30 
ROOT
HETATM    1  N2  UNL     1      14.896  -8.113  22.463  1.00  0.00    -0.313 N 
HETATM    2  C8  UNL     1      16.106  -7.528  22.985  1.00  0.00     0.176 C 
HETATM    3  C9  UNL     1      17.046  -8.598  23.486  1.00  0.00     0.075 C 
HETATM    4  N3  UNL     1      18.324  -8.155  23.880  1.00  0.00    -0.401 N 
ATOM      5  H3  UNL     1      19.164  -8.624  23.540  1.00  0.00     0.158 HD
HETATM    6  C10 UNL     1      18.421  -7.048  24.758  1.00  0.00     0.120 C 
HETATM    7  C11 UNL     1      18.872  -7.396  26.161  1.00  0.00     0.047 C 
HETATM    8  C12 UNL     1      17.729  -7.683  27.097  1.00  0.00     0.234 C 
HETATM    9  N4  UNL     1      17.435  -6.581  27.979  1.00  0.00    -0.075 N 
ATOM     10  H41 UNL     1      17.524  -5.672  27.523  1.00  0.00     0.277 HD
ATOM     11  H42 UNL     1      18.149  -6.442  28.694  1.00  0.00     0.277 HD
HETATM   12  C13 UNL     1      16.109  -6.807  28.539  1.00  0.00     0.233 C 
HETATM   13  C14 UNL     1      15.018  -6.397  27.595  1.00  0.00     0.055 C 
HETATM   14  C15 UNL     1      13.962  -7.505  27.497  1.00  0.00     0.234 C 
HETATM   15  N5  UNL     1      13.033  -7.195  26.400  1.00  0.00    -0.074 N 
ATOM     16  H51 UNL     1      12.495  -6.342  26.554  1.00  0.00     0.277 HD
ATOM     17  H52 UNL     1      12.240  -7.835  26.347  1.00  0.00     0.277 HD
HETATM   18  C16 UNL     1      13.836  -7.162  25.175  1.00  0.00     0.248 C 
HETATM   19  C17 UNL     1      12.905  -7.618  24.062  1.00  0.00     0.128 C 
HETATM   20  C22 UNL     1      13.568  -7.759  22.752  1.00  0.00     0.232 C 
HETATM   21  O2  UNL     1      12.791  -7.518  21.747  1.00  0.00    -0.272 OA
ENDROOT
BRANCH   1  22
HETATM   22  C7  UNL     1      15.102  -9.178  21.511  1.00  0.00     0.037 A 
HETATM   23  C6  UNL     1      16.302  -9.110  20.828  1.00  0.00     0.032 A 
HETATM   24  C5  UNL     1      16.616 -10.073  19.883  1.00  0.00     0.031 A 
HETATM   25  C4  UNL     1      15.759 -11.105  19.603  1.00  0.00     0.030 A 
HETATM   26  C24 UNL     1      14.566 -11.134  20.313  1.00  0.00     0.031 A 
HETATM   27  C23 UNL     1      14.229 -10.183  21.263  1.00  0.00     0.032 A 
BRANCH  25  28
HETATM   28  N1  UNL     1      16.081 -12.081  18.626  1.00  0.00    -0.377 N 
HETATM   29  C3  UNL     1      17.202 -12.990  18.846  1.00  0.00     0.155 C 
HETATM   30  C2  UNL     1      17.738 -13.357  17.464  1.00  0.00     0.199 C 
HETATM   31  C1  UNL     1      19.105 -13.950  17.538  1.00  0.00     0.041 C 
HETATM   32  N8  UNL     1      16.771 -14.184  16.777  1.00  0.00    -0.068 N 
HETATM   33  C26 UNL     1      15.412 -13.741  17.033  1.00  0.00     0.252 C 
ATOM     34  H82 UNL     1      16.965 -14.231  15.776  1.00  0.00     0.277 HD
ATOM     35  H81 UNL     1      16.891 -15.169  17.008  1.00  0.00     0.277 HD
HETATM   36  C25 UNL     1      15.358 -12.259  17.389  1.00  0.00     0.150 C 
ENDBRANCH  25  28
ENDBRANCH   1  22
BRANCH  19  37
HETATM   37  C18 UNL     1      11.826  -6.594  23.998  1.00  0.00     0.192 C 
BRANCH  37  38
HETATM   38  O1  UNL     1      10.576  -6.934  24.454  1.00  0.00    -0.337 OA
BRANCH  38  39
HETATM   39  C19 UNL     1       9.931  -8.135  24.356  1.00  0.00     0.130 C 
HETATM   40  N6  UNL     1       9.731  -8.908  25.363  1.00  0.00    -0.287 N 
HETATM   41  N7  UNL     1       9.050 -10.066  24.967  1.00  0.00    -0.139 NA
ATOM     42  H6  UNL     1      10.028  -8.707  26.317  1.00  0.00     0.184 HD
HETATM   43  C20 UNL     1       9.004 -10.121  23.518  1.00  0.00     0.143 C 
HETATM   44  C21 UNL     1       9.369  -8.733  23.097  1.00  0.00     0.103 C 
ENDBRANCH  38  39
ENDBRANCH  37  38
ENDBRANCH  19  37
TORSDOF 5
ENDMDL
MODEL 4
REMARK VINA RESULT: -9.892682990      0.309      1.183
REMARK  5 active torsions:
REMARK  status: ('A' for Active; 'I' for Inactive)
REMARK    1  A    between atoms: N1_4  and  C4_5 
REMARK    2  A    between atoms: C7_8  and  N2_9 
REMARK    3  A    between atoms: C17_27  and  C18_28 
REMARK    4  A    between atoms: C18_28  and  O1_29 
REMARK    5  A    between atoms: O1_29  and  C19_30 
ROOT
HETATM    1  N2  UNL     1      14.163  -8.468  22.158  1.00  0.00    -0.313 N 
HETATM    2  C8  UNL     1      15.203  -7.679  22.771  1.00  0.00     0.176 C 
HETATM    3  C9  UNL     1      16.246  -8.567  23.406  1.00  0.00     0.075 C 
HETATM    4  N3  UNL     1      17.388  -7.911  23.904  1.00  0.00    -0.401 N 
ATOM      5  H3  UNL     1      18.323  -8.243  23.668  1.00  0.00     0.158 HD
HETATM    6  C10 UNL     1      17.215  -6.780  24.740  1.00  0.00     0.120 C 
HETATM    7  C11 UNL     1      17.569  -7.014  26.194  1.00  0.00     0.047 C 
HETATM    8  C12 UNL     1      16.396  -7.461  27.025  1.00  0.00     0.234 C 
HETATM    9  N4  UNL     1      15.839  -6.400  27.827  1.00  0.00    -0.075 N 
ATOM     10  H41 UNL     1      15.828  -5.501  27.344  1.00  0.00     0.277 HD
ATOM     11  H42 UNL     1      16.444  -6.128  28.602  1.00  0.00     0.277 HD
HETATM   12  C13 UNL     1      14.517  -6.826  28.263  1.00  0.00     0.233 C 
HETATM   13  C14 UNL     1      13.477  -6.626  27.202  1.00  0.00     0.055 C 
HETATM   14  C15 UNL     1      12.629  -7.894  27.047  1.00  0.00     0.234 C 
HETATM   15  N5  UNL     1      11.780  -7.769  25.852  1.00  0.00    -0.074 N 
ATOM     16  H51 UNL     1      11.099  -7.012  25.918  1.00  0.00     0.277 HD
ATOM     17  H52 UNL     1      11.111  -8.532  25.749  1.00  0.00     0.277 HD
HETATM   18  C16 UNL     1      12.689  -7.636  24.712  1.00  0.00     0.248 C 
HETATM   19  C17 UNL     1      11.964  -8.266  23.533  1.00  0.00     0.128 C 
HETATM   20  C22 UNL     1      12.772  -8.330  22.301  1.00  0.00     0.232 C 
HETATM   21  O2  UNL     1      12.075  -8.245  21.216  1.00  0.00    -0.272 OA
ENDROOT
BRANCH   1  22
HETATM   22  C7  UNL     1      14.635  -9.509  21.276  1.00  0.00     0.037 A 
HETATM   23  C6  UNL     1      15.898  -9.290  20.759  1.00  0.00     0.032 A 
HETATM   24  C5  UNL     1      16.461 -10.215  19.896  1.00  0.00     0.031 A 
HETATM   25  C4  UNL     1      15.793 -11.356  19.535  1.00  0.00     0.030 A 
HETATM   26  C24 UNL     1      14.528 -11.534  20.079  1.00  0.00     0.031 A 
HETATM   27  C23 UNL     1      13.942 -10.624  20.945  1.00  0.00     0.032 A 
BRANCH  25  28
HETATM   28  N1  UNL     1      16.371 -12.293  18.641  1.00  0.00    -0.377 N 
HETATM   29  C3  UNL     1      17.499 -13.112  19.073  1.00  0.00     0.155 C 
HETATM   30  C2  UNL     1      18.314 -13.421  17.819  1.00  0.00     0.199 C 
HETATM   31  C1  UNL     1      19.686 -13.903  18.152  1.00  0.00     0.041 C 
HETATM   32  N8  UNL     1      17.563 -14.315  16.966  1.00  0.00    -0.068 N 
HETATM   33  C26 UNL     1      16.149 -13.985  16.960  1.00  0.00     0.252 C 
ATOM     34  H82 UNL     1      17.945 -14.336  16.020  1.00  0.00     0.277 HD
ATOM     35  H81 UNL     1      17.716 -15.290  17.221  1.00  0.00     0.277 HD
HETATM   36  C25 UNL     1      15.910 -12.516  17.291  1.00  0.00     0.150 C 
ENDBRANCH  25  28
ENDBRANCH   1  22
BRANCH  19  37
HETATM   37  C18 UNL     1      10.747  -7.436  23.321  1.00  0.00     0.192 C 
BRANCH  37  38
HETATM   38  O1  UNL     1       9.525  -8.064  23.292  1.00  0.00    -0.337 OA
BRANCH  38  39
HETATM   39  C19 UNL     1       8.972  -8.804  22.285  1.00  0.00     0.130 C 
HETATM   40  N6  UNL     1       9.085  -8.493  21.043  1.00  0.00    -0.287 N 
HETATM   41  N7  UNL     1       8.419  -9.427  20.239  1.00  0.00    -0.139 NA
ATOM     42  H6  UNL     1       9.588  -7.679  20.691  1.00  0.00     0.184 HD
HETATM   43  C20 UNL     1       7.626 -10.302  21.081  1.00  0.00     0.143 C 
HETATM   44  C21 UNL     1       8.166 -10.060  22.455  1.00  0.00     0.103 C 
ENDBRANCH  38  39
ENDBRANCH  37  38
ENDBRANCH  19  37
TORSDOF 5
ENDMDL
MODEL 5
REMARK VINA RESULT: -9.869972044      2.111      2.695
REMARK  5 active torsions:
REMARK  status: ('A' for Active; 'I' for Inactive)
REMARK    1  A    between atoms: N1_4  and  C4_5 
REMARK    2  A    between atoms: C7_8  and  N2_9 
REMARK    3  A    between atoms: C17_27  and  C18_28 
REMARK    4  A    between atoms: C18_28  and  O1_29 
REMARK    5  A    between atoms: O1_29  and  C19_30 
ROOT
HETATM    1  N2  UNL     1      14.439  -8.230  22.392  1.00  0.00    -0.313 N 
HETATM    2  C8  UNL     1      15.583  -7.578  22.980  1.00  0.00     0.176 C 
HETATM    3  C9  UNL     1      16.537  -8.591  23.564  1.00  0.00     0.075 C 
HETATM    4  N3  UNL     1      17.764  -8.080  24.031  1.00  0.00    -0.401 N 
ATOM      5  H3  UNL     1      18.645  -8.513  23.756  1.00  0.00     0.158 HD
HETATM    6  C10 UNL     1      17.750  -6.954  24.889  1.00  0.00     0.120 C 
HETATM    7  C11 UNL     1      18.123  -7.254  26.326  1.00  0.00     0.047 C 
HETATM    8  C12 UNL     1      16.935  -7.580  27.191  1.00  0.00     0.234 C 
HETATM    9  N4  UNL     1      16.532  -6.477  28.029  1.00  0.00    -0.075 N 
ATOM     10  H41 UNL     1      16.608  -5.574  27.561  1.00  0.00     0.277 HD
ATOM     11  H42 UNL     1      17.190  -6.291  28.786  1.00  0.00     0.277 HD
HETATM   12  C13 UNL     1      15.184  -6.757  28.506  1.00  0.00     0.233 C 
HETATM   13  C14 UNL     1      14.140  -6.418  27.485  1.00  0.00     0.055 C 
HETATM   14  C15 UNL     1      13.147  -7.578  27.341  1.00  0.00     0.234 C 
HETATM   15  N5  UNL     1      12.278  -7.333  26.179  1.00  0.00    -0.074 N 
ATOM     16  H51 UNL     1      11.691  -6.504  26.280  1.00  0.00     0.277 HD
ATOM     17  H52 UNL     1      11.522  -8.012  26.088  1.00  0.00     0.277 HD
HETATM   18  C16 UNL     1      13.158  -7.284  25.010  1.00  0.00     0.248 C 
HETATM   19  C17 UNL     1      12.325  -7.804  23.848  1.00  0.00     0.128 C 
HETATM   20  C22 UNL     1      13.079  -7.936  22.587  1.00  0.00     0.232 C 
HETATM   21  O2  UNL     1      12.360  -7.751  21.529  1.00  0.00    -0.272 OA
ENDROOT
BRANCH   1  22
HETATM   22  C7  UNL     1      14.758  -9.301  21.478  1.00  0.00     0.037 A 
HETATM   23  C6  UNL     1      15.992  -9.182  20.868  1.00  0.00     0.032 A 
HETATM   24  C5  UNL     1      16.413 -10.146  19.966  1.00  0.00     0.031 A 
HETATM   25  C4  UNL     1      15.629 -11.226  19.657  1.00  0.00     0.030 A 
HETATM   26  C24 UNL     1      14.397 -11.304  20.294  1.00  0.00     0.031 A 
HETATM   27  C23 UNL     1      13.954 -10.355  21.201  1.00  0.00     0.032 A 
BRANCH  25  28
HETATM   28  N1  UNL     1      16.060 -12.203  18.723  1.00  0.00    -0.377 N 
HETATM   29  C3  UNL     1      15.444 -12.270  17.402  1.00  0.00     0.155 C 
HETATM   30  C2  UNL     1      15.538 -13.727  16.955  1.00  0.00     0.199 C 
HETATM   31  C1  UNL     1      14.614 -14.021  15.822  1.00  0.00     0.041 C 
HETATM   32  N8  UNL     1      16.921 -14.061  16.693  1.00  0.00    -0.068 N 
HETATM   33  C26 UNL     1      17.811 -13.445  17.661  1.00  0.00     0.252 C 
ATOM     34  H82 UNL     1      17.058 -15.071  16.650  1.00  0.00     0.277 HD
ATOM     35  H81 UNL     1      17.187 -13.824  15.738  1.00  0.00     0.277 HD
HETATM   36  C25 UNL     1      17.105 -13.166  18.982  1.00  0.00     0.150 C 
ENDBRANCH  25  28
ENDBRANCH   1  22
BRANCH  19  37
HETATM   37  C18 UNL     1      11.206  -6.835  23.691  1.00  0.00     0.192 C 
BRANCH  37  38
HETATM   38  O1  UNL     1      11.423  -5.524  24.042  1.00  0.00    -0.337 OA
BRANCH  38  39
HETATM   39  C19 UNL     1      11.290  -4.404  23.271  1.00  0.00     0.130 C 
HETATM   40  N6  UNL     1      10.607  -3.378  23.637  1.00  0.00    -0.287 N 
HETATM   41  N7  UNL     1      10.647  -2.383  22.651  1.00  0.00    -0.139 NA
ATOM     42  H6  UNL     1      10.107  -3.299  24.522  1.00  0.00     0.184 HD
HETATM   43  C20 UNL     1      11.244  -2.929  21.447  1.00  0.00     0.143 C 
HETATM   44  C21 UNL     1      11.897  -4.191  21.913  1.00  0.00     0.103 C 
ENDBRANCH  38  39
ENDBRANCH  37  38
ENDBRANCH  19  37
TORSDOF 5
ENDMDL
