MODEL 1
REMARK VINA RESULT: -9.516451150      0.000      0.000
REMARK  5 active torsions:
REMARK  status: ('A' for Active; 'I' for Inactive)
REMARK    1  A    between atoms: C2_2  and  C4_4 
REMARK    2  A    between atoms: C4_4  and  C5_5 
REMARK    3  A    between atoms: C9_10  and  C10_11 
REMARK    4  A    between atoms: C10_11  and  N1_12 
REMARK    5  A    between atoms: C10_11  and  O2_16 
ROOT
HETATM    1  C5  UNL     1      10.105  -8.305  22.796  1.00  0.00     0.213 C 
HETATM    2  O1  UNL     1       9.896  -9.290  23.745  1.00  0.00    -0.376 OA
HETATM    3  C6  UNL     1      10.401  -8.892  24.975  1.00  0.00     0.168 C 
HETATM    4  C7  UNL     1       9.362  -9.070  26.091  1.00  0.00     0.029 C 
HETATM    5  C8  UNL     1      10.073  -9.065  27.402  1.00  0.00     0.039 C 
HETATM    6  C9  UNL     1       9.296  -8.337  28.490  1.00  0.00     0.188 C 
HETATM    7  O3  UNL     1      10.120  -8.074  29.591  1.00  0.00    -0.310 OA
HETATM    8  C11 UNL     1      10.808  -6.937  29.852  1.00  0.00     0.290 C 
HETATM    9  O4  UNL     1      11.956  -6.992  30.351  1.00  0.00    -0.263 OA
HETATM   10  C12 UNL     1      10.250  -5.594  29.565  1.00  0.00     0.284 C 
HETATM   11  C13 UNL     1       9.083  -5.344  30.532  1.00  0.00     0.051 C 
HETATM   12  N2  UNL     1      11.209  -4.542  29.843  1.00  0.00    -0.028 N 
ATOM     13  H21 UNL     1      11.955  -4.888  30.446  1.00  0.00     0.281 HD
ATOM     14  H22 UNL     1      10.799  -3.840  30.459  1.00  0.00     0.281 HD
HETATM   15  C14 UNL     1      11.756  -3.925  28.678  1.00  0.00     0.251 C 
HETATM   16  C15 UNL     1      11.346  -2.475  28.668  1.00  0.00     0.071 C 
HETATM   17  C16 UNL     1      11.240  -1.915  30.075  1.00  0.00     0.006 C 
HETATM   18  C17 UNL     1      12.546  -1.415  30.605  1.00  0.00     0.027 C 
HETATM   19  C18 UNL     1      13.699  -2.349  30.356  1.00  0.00     0.232 C 
HETATM   20  N3  UNL     1      13.827  -2.664  28.952  1.00  0.00    -0.071 N 
ATOM     21  H31 UNL     1      14.782  -2.568  28.607  1.00  0.00     0.277 HD
ATOM     22  H32 UNL     1      13.397  -1.966  28.345  1.00  0.00     0.277 HD
HETATM   23  C19 UNL     1      13.284  -3.996  28.760  1.00  0.00     0.300 C 
HETATM   24  O5  UNL     1      11.383  -4.619  27.556  1.00  0.00    -0.351 OA
HETATM   25  C20 UNL     1      11.584  -3.863  26.390  1.00  0.00     0.197 C 
HETATM   26  C21 UNL     1      11.103  -4.729  25.239  1.00  0.00     0.193 C 
HETATM   27  O6  UNL     1      11.231  -3.990  24.065  1.00  0.00    -0.387 OA
HETATM   28  C22 UNL     1      12.057  -4.675  23.173  1.00  0.00     0.187 C 
HETATM   29  C23 UNL     1      11.247  -5.469  22.156  1.00  0.00     0.148 C 
HETATM   30  N4  UNL     1      11.922  -6.737  21.984  1.00  0.00    -0.357 N 
ATOM     31  H4  UNL     1      12.749  -6.756  21.388  1.00  0.00     0.162 HD
HETATM   32  C24 UNL     1      11.515  -7.948  22.582  1.00  0.00     0.246 C 
HETATM   33  O7  UNL     1      12.427  -8.739  22.941  1.00  0.00    -0.271 OA
ENDROOT
BRANCH   6  34
HETATM   34  C10 UNL     1       8.233  -9.334  28.970  1.00  0.00     0.346 C 
BRANCH  34  35
HETATM   35  N1  UNL     1       8.534 -10.672  28.566  1.00  0.00    -0.051 N 
ATOM     36  H13 UNL     1       9.537 -10.803  28.436  1.00  0.00     0.277 HD
ATOM     37  H12 UNL     1       8.384 -11.333  29.329  1.00  0.00     0.277 HD
ATOM     38  H11 UNL     1       8.014 -10.945  27.732  1.00  0.00     0.277 HD
ENDBRANCH  34  35
BRANCH  34  39
HETATM   39  O2  UNL     1       7.997  -9.202  30.328  1.00  0.00    -0.368 OA
ATOM     40  H2  UNL     1       8.619  -9.709  30.837  1.00  0.00     0.212 HD
ENDBRANCH  34  39
ENDBRANCH   6  34
BRANCH   1  41
HETATM   41  C4  UNL     1       9.410  -8.557  21.509  1.00  0.00     0.045 C 
BRANCH  41  42
HETATM   42  C2  UNL     1       9.019  -9.950  21.196  1.00  0.00    -0.020 C 
HETATM   43  C1  UNL     1       7.497 -10.033  21.435  1.00  0.00     0.009 C 
HETATM   44  C3  UNL     1       9.255 -10.437  19.809  1.00  0.00     0.009 C 
ENDBRANCH  41  42
ENDBRANCH   1  41
TORSDOF 5
ENDMDL
MODEL 2
REMARK VINA RESULT: -9.241328003      4.498      8.255
REMARK  5 active torsions:
REMARK  status: ('A' for Active; 'I' for Inactive)
REMARK    1  A    between atoms: C2_2  and  C4_4 
REMARK    2  A    between atoms: C4_4  and  C5_5 
REMARK    3  A    between atoms: C9_10  and  C10_11 
REMARK    4  A    between atoms: C10_11  and  N1_12 
REMARK    5  A    between atoms: C10_11  and  O2_16 
ROOT
HETATM    1  C5  UNL     1      18.046  -7.131  25.696  1.00  0.00     0.213 C 
HETATM    2  O1  UNL     1      17.328  -6.378  26.609  1.00  0.00    -0.376 OA
HETATM    3  C6  UNL     1      16.040  -6.150  26.141  1.00  0.00     0.168 C 
HETATM    4  C7  UNL     1      14.989  -6.509  27.201  1.00  0.00     0.029 C 
HETATM    5  C8  UNL     1      13.706  -5.841  26.836  1.00  0.00     0.039 C 
HETATM    6  C9  UNL     1      12.489  -6.710  27.120  1.00  0.00     0.188 C 
HETATM    7  O3  UNL     1      11.357  -6.196  26.477  1.00  0.00    -0.310 OA
HETATM    8  C11 UNL     1      10.860  -6.558  25.270  1.00  0.00     0.290 C 
HETATM    9  O4  UNL     1      10.382  -5.694  24.498  1.00  0.00    -0.263 OA
HETATM   10  C12 UNL     1      10.855  -7.966  24.809  1.00  0.00     0.284 C 
HETATM   11  C13 UNL     1       9.858  -8.751  25.675  1.00  0.00     0.051 C 
HETATM   12  N2  UNL     1      10.359  -8.087  23.451  1.00  0.00    -0.028 N 
ATOM     13  H21 UNL     1       9.842  -7.249  23.184  1.00  0.00     0.281 HD
ATOM     14  H22 UNL     1       9.608  -8.776  23.406  1.00  0.00     0.281 HD
HETATM   15  C14 UNL     1      11.365  -8.381  22.484  1.00  0.00     0.251 C 
HETATM   16  C15 UNL     1      11.068  -9.730  21.880  1.00  0.00     0.071 C 
HETATM   17  C16 UNL     1       9.573  -9.988  21.802  1.00  0.00     0.006 C 
HETATM   18  C17 UNL     1       8.948  -9.433  20.562  1.00  0.00     0.027 C 
HETATM   19  C18 UNL     1       9.389  -8.031  20.237  1.00  0.00     0.232 C 
HETATM   20  N3  UNL     1      10.827  -7.940  20.145  1.00  0.00    -0.071 N 
ATOM     21  H31 UNL     1      11.143  -7.450  19.308  1.00  0.00     0.277 HD
ATOM     22  H32 UNL     1      11.272  -8.837  19.948  1.00  0.00     0.277 HD
HETATM   23  C19 UNL     1      11.298  -7.328  21.373  1.00  0.00     0.300 C 
HETATM   24  O5  UNL     1      12.610  -8.286  23.051  1.00  0.00    -0.351 OA
HETATM   25  C20 UNL     1      13.588  -8.909  22.260  1.00  0.00     0.197 C 
HETATM   26  C21 UNL     1      14.897  -8.760  23.015  1.00  0.00     0.193 C 
HETATM   27  O6  UNL     1      15.887  -9.418  22.288  1.00  0.00    -0.387 OA
HETATM   28  C22 UNL     1      16.903  -8.517  21.967  1.00  0.00     0.187 C 
HETATM   29  C23 UNL     1      18.067  -8.613  22.946  1.00  0.00     0.148 C 
HETATM   30  N4  UNL     1      18.504  -7.258  23.207  1.00  0.00    -0.357 N 
ATOM     31  H4  UNL     1      19.089  -6.805  22.506  1.00  0.00     0.162 HD
HETATM   32  C24 UNL     1      18.177  -6.521  24.365  1.00  0.00     0.246 C 
HETATM   33  O7  UNL     1      17.993  -5.284  24.218  1.00  0.00    -0.271 OA
ENDROOT
BRANCH   6  34
HETATM   34  C10 UNL     1      12.233  -6.576  28.627  1.00  0.00     0.346 C 
BRANCH  34  35
HETATM   35  N1  UNL     1      12.332  -5.219  29.067  1.00  0.00    -0.051 N 
ATOM     36  H13 UNL     1      13.181  -4.777  28.715  1.00  0.00     0.277 HD
ATOM     37  H12 UNL     1      11.640  -4.628  28.606  1.00  0.00     0.277 HD
ATOM     38  H11 UNL     1      12.268  -5.141  30.082  1.00  0.00     0.277 HD
ENDBRANCH  34  35
BRANCH  34  39
HETATM   39  O2  UNL     1      11.050  -7.195  28.993  1.00  0.00    -0.368 OA
ATOM     40  H2  UNL     1      10.640  -6.749  29.725  1.00  0.00     0.212 HD
ENDBRANCH  34  39
ENDBRANCH   6  34
BRANCH   1  41
HETATM   41  C4  UNL     1      19.358  -7.601  26.208  1.00  0.00     0.045 C 
BRANCH  41  42
HETATM   42  C2  UNL     1      19.592  -9.062  26.270  1.00  0.00    -0.020 C 
HETATM   43  C1  UNL     1      20.857  -9.330  25.427  1.00  0.00     0.009 C 
HETATM   44  C3  UNL     1      19.841  -9.663  27.608  1.00  0.00     0.009 C 
ENDBRANCH  41  42
ENDBRANCH   1  41
TORSDOF 5
ENDMDL
MODEL 3
REMARK VINA RESULT: -9.052534983      4.364      8.384
REMARK  5 active torsions:
REMARK  status: ('A' for Active; 'I' for Inactive)
REMARK    1  A    between atoms: C2_2  and  C4_4 
REMARK    2  A    between atoms: C4_4  and  C5_5 
REMARK    3  A    between atoms: C9_10  and  C10_11 
REMARK    4  A    between atoms: C10_11  and  N1_12 
REMARK    5  A    between atoms: C10_11  and  O2_16 
ROOT
HETATM    1  C5  UNL     1      17.977  -7.052  25.892  1.00  0.00     0.213 C 
HETATM    2  O1  UNL     1      17.232  -6.314  26.795  1.00  0.00    -0.376 OA
HETATM    3  C6  UNL     1      15.951  -6.099  26.305  1.00  0.00     0.168 C 
HETATM    4  C7  UNL     1      14.884  -6.478  27.341  1.00  0.00     0.029 C 
HETATM    5  C8  UNL     1      13.600  -5.825  26.956  1.00  0.00     0.039 C 
HETATM    6  C9  UNL     1      12.389  -6.712  27.212  1.00  0.00     0.188 C 
HETATM    7  O3  UNL     1      11.263  -6.208  26.551  1.00  0.00    -0.310 OA
HETATM    8  C11 UNL     1      10.793  -6.569  25.332  1.00  0.00     0.290 C 
HETATM    9  O4  UNL     1      10.320  -5.706  24.556  1.00  0.00    -0.263 OA
HETATM   10  C12 UNL     1      10.816  -7.974  24.863  1.00  0.00     0.284 C 
HETATM   11  C13 UNL     1       9.813  -8.777  25.705  1.00  0.00     0.051 C 
HETATM   12  N2  UNL     1      10.347  -8.093  23.495  1.00  0.00    -0.028 N 
ATOM     13  H21 UNL     1       9.824  -7.260  23.223  1.00  0.00     0.281 HD
ATOM     14  H22 UNL     1       9.606  -8.791  23.431  1.00  0.00     0.281 HD
HETATM   15  C14 UNL     1      11.376  -8.368  22.546  1.00  0.00     0.251 C 
HETATM   16  C15 UNL     1      11.107  -9.716  21.927  1.00  0.00     0.071 C 
HETATM   17  C16 UNL     1       9.618  -9.993  21.820  1.00  0.00     0.006 C 
HETATM   18  C17 UNL     1       9.009  -9.438  20.572  1.00  0.00     0.027 C 
HETATM   19  C18 UNL     1       9.438  -8.029  20.264  1.00  0.00     0.232 C 
HETATM   20  N3  UNL     1      10.876  -7.919  20.199  1.00  0.00    -0.071 N 
ATOM     21  H31 UNL     1      11.201  -7.420  19.371  1.00  0.00     0.277 HD
ATOM     22  H32 UNL     1      11.336  -8.808  20.006  1.00  0.00     0.277 HD
HETATM   23  C19 UNL     1      11.316  -7.309  21.440  1.00  0.00     0.300 C 
HETATM   24  O5  UNL     1      12.608  -8.260  23.137  1.00  0.00    -0.351 OA
HETATM   25  C20 UNL     1      13.609  -8.865  22.361  1.00  0.00     0.197 C 
HETATM   26  C21 UNL     1      14.901  -8.704  23.141  1.00  0.00     0.193 C 
HETATM   27  O6  UNL     1      15.913  -9.345  22.430  1.00  0.00    -0.387 OA
HETATM   28  C22 UNL     1      16.924  -8.429  22.133  1.00  0.00     0.187 C 
HETATM   29  C23 UNL     1      18.070  -8.515  23.133  1.00  0.00     0.148 C 
HETATM   30  N4  UNL     1      18.484  -7.158  23.411  1.00  0.00    -0.357 N 
ATOM     31  H4  UNL     1      19.077  -6.693  22.724  1.00  0.00     0.162 HD
HETATM   32  C24 UNL     1      18.126  -6.432  24.567  1.00  0.00     0.246 C 
HETATM   33  O7  UNL     1      17.929  -5.196  24.424  1.00  0.00    -0.271 OA
ENDROOT
BRANCH   6  34
HETATM   34  C10 UNL     1      12.103  -6.590  28.715  1.00  0.00     0.346 C 
BRANCH  34  35
HETATM   35  N1  UNL     1      12.116  -5.229  29.153  1.00  0.00    -0.051 N 
ATOM     36  H13 UNL     1      12.657  -4.641  28.519  1.00  0.00     0.277 HD
ATOM     37  H12 UNL     1      11.201  -4.793  29.036  1.00  0.00     0.277 HD
ATOM     38  H11 UNL     1      12.448  -5.140  30.113  1.00  0.00     0.277 HD
ENDBRANCH  34  35
BRANCH  34  39
HETATM   39  O2  UNL     1      10.953  -7.276  29.065  1.00  0.00    -0.368 OA
ATOM     40  H2  UNL     1      10.958  -8.159  28.713  1.00  0.00     0.212 HD
ENDBRANCH  34  39
ENDBRANCH   6  34
BRANCH   1  41
HETATM   41  C4  UNL     1      19.285  -7.508  26.425  1.00  0.00     0.045 C 
BRANCH  41  42
HETATM   42  C2  UNL     1      20.425  -6.565  26.356  1.00  0.00    -0.020 C 
HETATM   43  C1  UNL     1      20.795  -6.231  27.817  1.00  0.00     0.009 C 
HETATM   44  C3  UNL     1      21.674  -7.043  25.702  1.00  0.00     0.009 C 
ENDBRANCH  41  42
ENDBRANCH   1  41
TORSDOF 5
ENDMDL
MODEL 4
REMARK VINA RESULT: -9.019997584      3.861      7.086
REMARK  5 active torsions:
REMARK  status: ('A' for Active; 'I' for Inactive)
REMARK    1  A    between atoms: C2_2  and  C4_4 
REMARK    2  A    between atoms: C4_4  and  C5_5 
REMARK    3  A    between atoms: C9_10  and  C10_11 
REMARK    4  A    between atoms: C10_11  and  N1_12 
REMARK    5  A    between atoms: C10_11  and  O2_16 
ROOT
HETATM    1  C5  UNL     1      17.311  -6.101  24.454  1.00  0.00     0.213 C 
HETATM    2  O1  UNL     1      16.441  -5.965  23.387  1.00  0.00    -0.376 OA
HETATM    3  C6  UNL     1      15.132  -6.172  23.802  1.00  0.00     0.168 C 
HETATM    4  C7  UNL     1      14.211  -5.035  23.337  1.00  0.00     0.029 C 
HETATM    5  C8  UNL     1      12.800  -5.513  23.406  1.00  0.00     0.039 C 
HETATM    6  C9  UNL     1      11.836  -4.434  23.882  1.00  0.00     0.188 C 
HETATM    7  O3  UNL     1      10.606  -4.998  24.239  1.00  0.00    -0.310 OA
HETATM    8  C11 UNL     1      10.200  -5.372  25.477  1.00  0.00     0.290 C 
HETATM    9  O4  UNL     1       9.518  -6.411  25.632  1.00  0.00    -0.263 OA
HETATM   10  C12 UNL     1      10.536  -4.586  26.688  1.00  0.00     0.284 C 
HETATM   11  C13 UNL     1       9.771  -3.255  26.624  1.00  0.00     0.051 C 
HETATM   12  N2  UNL     1      10.071  -5.236  27.898  1.00  0.00    -0.028 N 
ATOM     13  H21 UNL     1       9.361  -5.935  27.678  1.00  0.00     0.281 HD
ATOM     14  H22 UNL     1       9.511  -4.592  28.457  1.00  0.00     0.281 HD
HETATM   15  C14 UNL     1      11.109  -5.812  28.690  1.00  0.00     0.251 C 
HETATM   16  C15 UNL     1      11.144  -5.102  30.020  1.00  0.00     0.071 C 
HETATM   17  C16 UNL     1       9.758  -4.657  30.451  1.00  0.00     0.006 C 
HETATM   18  C17 UNL     1       9.003  -5.722  31.180  1.00  0.00     0.027 C 
HETATM   19  C18 UNL     1       9.083  -7.076  30.528  1.00  0.00     0.232 C 
HETATM   20  N3  UNL     1      10.454  -7.488  30.338  1.00  0.00    -0.071 N 
ATOM     21  H31 UNL     1      10.632  -8.441  30.655  1.00  0.00     0.277 HD
ATOM     22  H32 UNL     1      11.103  -7.017  30.969  1.00  0.00     0.277 HD
HETATM   23  C19 UNL     1      10.774  -7.286  28.937  1.00  0.00     0.300 C 
HETATM   24  O5  UNL     1      12.298  -5.781  28.008  1.00  0.00    -0.351 OA
HETATM   25  C20 UNL     1      13.390  -5.991  28.863  1.00  0.00     0.197 C 
HETATM   26  C21 UNL     1      14.630  -5.898  27.993  1.00  0.00     0.193 C 
HETATM   27  O6  UNL     1      15.744  -6.044  28.818  1.00  0.00    -0.387 OA
HETATM   28  C22 UNL     1      16.505  -7.130  28.381  1.00  0.00     0.187 C 
HETATM   29  C23 UNL     1      17.667  -6.683  27.502  1.00  0.00     0.148 C 
HETATM   30  N4  UNL     1      17.761  -7.636  26.419  1.00  0.00    -0.357 N 
ATOM     31  H4  UNL     1      18.210  -8.531  26.612  1.00  0.00     0.162 HD
HETATM   32  C24 UNL     1      17.275  -7.415  25.112  1.00  0.00     0.246 C 
HETATM   33  O7  UNL     1      16.792  -8.409  24.510  1.00  0.00    -0.271 OA
ENDROOT
BRANCH   6  34
HETATM   34  C10 UNL     1      11.571  -3.553  22.654  1.00  0.00     0.346 C 
BRANCH  34  35
HETATM   35  N1  UNL     1      11.677  -4.290  21.433  1.00  0.00    -0.051 N 
ATOM     36  H13 UNL     1      11.953  -5.256  21.608  1.00  0.00     0.277 HD
ATOM     37  H12 UNL     1      10.760  -4.456  21.020  1.00  0.00     0.277 HD
ATOM     38  H11 UNL     1      12.307  -3.839  20.769  1.00  0.00     0.277 HD
ENDBRANCH  34  35
BRANCH  34  39
HETATM   39  O2  UNL     1      10.381  -2.857  22.783  1.00  0.00    -0.368 OA
ATOM     40  H2  UNL     1      10.108  -2.483  21.953  1.00  0.00     0.212 HD
ENDBRANCH  34  39
ENDBRANCH   6  34
BRANCH   1  41
HETATM   41  C4  UNL     1      18.704  -5.688  24.146  1.00  0.00     0.045 C 
BRANCH  41  42
HETATM   42  C2  UNL     1      18.927  -4.298  23.687  1.00  0.00    -0.020 C 
HETATM   43  C1  UNL     1      19.400  -3.508  24.926  1.00  0.00     0.009 C 
HETATM   44  C3  UNL     1      19.950  -4.078  22.630  1.00  0.00     0.009 C 
ENDBRANCH  41  42
ENDBRANCH   1  41
TORSDOF 5
ENDMDL
MODEL 5
REMARK VINA RESULT: -8.069419007     15.643     20.032
REMARK  5 active torsions:
REMARK  status: ('A' for Active; 'I' for Inactive)
REMARK    1  A    between atoms: C2_2  and  C4_4 
REMARK    2  A    between atoms: C4_4  and  C5_5 
REMARK    3  A    between atoms: C9_10  and  C10_11 
REMARK    4  A    between atoms: C10_11  and  N1_12 
REMARK    5  A    between atoms: C10_11  and  O2_16 
ROOT
HETATM    1  C5  UNL     1      21.173 -12.629  18.299  1.00  0.00     0.213 C 
HETATM    2  O1  UNL     1      21.047 -13.894  18.846  1.00  0.00    -0.376 OA
HETATM    3  C6  UNL     1      21.352 -14.863  17.899  1.00  0.00     0.168 C 
HETATM    4  C7  UNL     1      22.369 -15.876  18.442  1.00  0.00     0.029 C 
HETATM    5  C8  UNL     1      22.315 -17.100  17.592  1.00  0.00     0.039 C 
HETATM    6  C9  UNL     1      23.687 -17.716  17.358  1.00  0.00     0.188 C 
HETATM    7  O3  UNL     1      23.637 -18.647  16.315  1.00  0.00    -0.310 OA
HETATM    8  C11 UNL     1      23.929 -18.436  15.009  1.00  0.00     0.290 C 
HETATM    9  O4  UNL     1      23.247 -18.984  14.112  1.00  0.00    -0.263 OA
HETATM   10  C12 UNL     1      25.048 -17.564  14.581  1.00  0.00     0.284 C 
HETATM   11  C13 UNL     1      26.366 -18.251  14.969  1.00  0.00     0.051 C 
HETATM   12  N2  UNL     1      25.101 -17.423  13.138  1.00  0.00    -0.028 N 
ATOM     13  H21 UNL     1      24.564 -18.164  12.688  1.00  0.00     0.281 HD
ATOM     14  H22 UNL     1      26.033 -17.649  12.792  1.00  0.00     0.281 HD
HETATM   15  C14 UNL     1      24.686 -16.145  12.660  1.00  0.00     0.251 C 
HETATM   16  C15 UNL     1      25.860 -15.484  11.983  1.00  0.00     0.071 C 
HETATM   17  C16 UNL     1      26.760 -16.504  11.308  1.00  0.00     0.006 C 
HETATM   18  C17 UNL     1      26.315 -16.850   9.923  1.00  0.00     0.027 C 
HETATM   19  C18 UNL     1      24.837 -17.103   9.807  1.00  0.00     0.232 C 
HETATM   20  N3  UNL     1      24.071 -15.983  10.303  1.00  0.00    -0.071 N 
ATOM     21  H31 UNL     1      23.329 -15.693   9.666  1.00  0.00     0.277 HD
ATOM     22  H32 UNL     1      24.595 -15.108  10.301  1.00  0.00     0.277 HD
HETATM   23  C19 UNL     1      23.580 -16.349  11.619  1.00  0.00     0.300 C 
HETATM   24  O5  UNL     1      24.143 -15.409  13.681  1.00  0.00    -0.351 OA
HETATM   25  C20 UNL     1      24.061 -14.048  13.351  1.00  0.00     0.197 C 
HETATM   26  C21 UNL     1      23.482 -13.353  14.570  1.00  0.00     0.193 C 
HETATM   27  O6  UNL     1      23.438 -11.986  14.304  1.00  0.00    -0.387 OA
HETATM   28  C22 UNL     1      22.123 -11.532  14.422  1.00  0.00     0.187 C 
HETATM   29  C23 UNL     1      21.868 -10.905  15.788  1.00  0.00     0.148 C 
HETATM   30  N4  UNL     1      20.553 -11.340  16.207  1.00  0.00    -0.357 N 
ATOM     31  H4  UNL     1      19.746 -10.867  15.803  1.00  0.00     0.162 HD
HETATM   32  C24 UNL     1      20.311 -12.375  17.136  1.00  0.00     0.246 C 
HETATM   33  O7  UNL     1      19.301 -13.098  16.930  1.00  0.00    -0.271 OA
ENDROOT
BRANCH   6  34
HETATM   34  C10 UNL     1      24.003 -18.508  18.635  1.00  0.00     0.346 C 
BRANCH  34  35
HETATM   35  N1  UNL     1      22.991 -19.476  18.927  1.00  0.00    -0.051 N 
ATOM     36  H13 UNL     1      22.901 -19.625  19.932  1.00  0.00     0.277 HD
ATOM     37  H12 UNL     1      22.059 -19.108  18.734  1.00  0.00     0.277 HD
ATOM     38  H11 UNL     1      23.151 -20.355  18.435  1.00  0.00     0.277 HD
ENDBRANCH  34  35
BRANCH  34  39
HETATM   39  O2  UNL     1      25.283 -19.034  18.595  1.00  0.00    -0.368 OA
ATOM     40  H2  UNL     1      25.919 -18.374  18.347  1.00  0.00     0.212 HD
ENDBRANCH  34  39
ENDBRANCH   6  34
BRANCH   1  41
HETATM   41  C4  UNL     1      21.074 -11.533  19.295  1.00  0.00     0.045 C 
BRANCH  41  42
HETATM   42  C2  UNL     1      19.950 -11.575  20.258  1.00  0.00    -0.020 C 
HETATM   43  C1  UNL     1      20.499 -11.008  21.584  1.00  0.00     0.009 C 
HETATM   44  C3  UNL     1      18.733 -10.783  19.932  1.00  0.00     0.009 C 
ENDBRANCH  41  42
ENDBRANCH   1  41
TORSDOF 5
ENDMDL
