MODEL 1
REMARK VINA RESULT: -9.855470233      0.000      0.000
REMARK  2 active torsions:
REMARK  status: ('A' for Active; 'I' for Inactive)
REMARK    1  A    between atoms: C2_2  and  O1_4 
REMARK    2  A    between atoms: O1_4  and  N1_5 
ROOT
HETATM    1  N1  UNL     1      10.279  -6.135  29.373  1.00  0.00    -0.275 N 
ATOM      2  H1  UNL     1      10.812  -5.265  29.407  1.00  0.00     0.193 HD
HETATM    3  C4  UNL     1      10.212  -6.752  28.236  1.00  0.00     0.010 C 
HETATM    4  C5  UNL     1       9.439  -8.016  28.195  1.00  0.00     0.054 C 
HETATM    5  C6  UNL     1       8.788  -8.277  26.869  1.00  0.00     0.006 C 
HETATM    6  C7  UNL     1       9.706  -9.224  26.091  1.00  0.00     0.000 C 
HETATM    7  C8  UNL     1       9.077  -9.644  24.780  1.00  0.00     0.000 C 
HETATM    8  C9  UNL     1       9.939  -9.045  23.671  1.00  0.00     0.000 C 
HETATM    9  C10 UNL     1       9.384  -9.288  22.312  1.00  0.00     0.000 C 
HETATM   10  C11 UNL     1       9.676  -8.170  21.341  1.00  0.00     0.000 C 
HETATM   11  C12 UNL     1      11.077  -7.659  21.427  1.00  0.00     0.001 C 
HETATM   12  C13 UNL     1      11.160  -6.156  21.129  1.00  0.00     0.017 C 
HETATM   13  C14 UNL     1      11.223  -5.451  22.440  1.00  0.00     0.171 C 
HETATM   14  S1  UNL     1      11.901  -3.849  22.390  1.00  0.00     0.265 S 
HETATM   15  O2  UNL     1      10.814  -2.867  22.045  1.00  0.00    -0.199 OA
HETATM   16  O3  UNL     1      13.055  -3.702  21.463  1.00  0.00    -0.199 OA
HETATM   17  O4  UNL     1      12.427  -3.454  23.949  1.00  0.00    -0.276 OA
HETATM   18  C15 UNL     1      11.491  -3.757  24.912  1.00  0.00     0.190 C 
HETATM   19  C16 UNL     1      12.196  -4.320  26.145  1.00  0.00     0.028 C 
HETATM   20  C17 UNL     1      11.207  -4.730  27.201  1.00  0.00     0.008 C 
HETATM   21  C18 UNL     1      10.885  -6.200  27.058  1.00  0.00     0.054 C 
ENDROOT
BRANCH   1  22
HETATM   22  O1  UNL     1       9.696  -6.559  30.518  1.00  0.00    -0.276 OA
BRANCH  22  23
HETATM   23  C2  UNL     1       8.690  -5.874  31.214  1.00  0.00     0.144 C 
HETATM   24  C1  UNL     1       8.468  -6.603  32.544  1.00  0.00     0.042 C 
HETATM   25  C3  UNL     1       9.038  -4.454  31.549  1.00  0.00     0.042 C 
ENDBRANCH  22  23
ENDBRANCH   1  22
TORSDOF 2
ENDMDL
MODEL 2
REMARK VINA RESULT: -9.686879925      2.408      4.589
REMARK  2 active torsions:
REMARK  status: ('A' for Active; 'I' for Inactive)
REMARK    1  A    between atoms: C2_2  and  O1_4 
REMARK    2  A    between atoms: O1_4  and  N1_5 
ROOT
HETATM    1  N1  UNL     1       9.409  -7.981  29.716  1.00  0.00    -0.275 N 
ATOM      2  H1  UNL     1       9.133  -8.815  29.198  1.00  0.00     0.193 HD
HETATM    3  C4  UNL     1       9.731  -6.929  29.031  1.00  0.00     0.010 C 
HETATM    4  C5  UNL     1      10.128  -5.720  29.790  1.00  0.00     0.054 C 
HETATM    5  C6  UNL     1      11.131  -4.866  29.074  1.00  0.00     0.006 C 
HETATM    6  C7  UNL     1      10.356  -3.744  28.377  1.00  0.00     0.000 C 
HETATM    7  C8  UNL     1      11.295  -2.755  27.720  1.00  0.00     0.000 C 
HETATM    8  C9  UNL     1      11.072  -2.875  26.214  1.00  0.00     0.000 C 
HETATM    9  C10 UNL     1      12.007  -2.029  25.422  1.00  0.00     0.000 C 
HETATM   10  C11 UNL     1      12.374  -2.636  24.090  1.00  0.00     0.000 C 
HETATM   11  C12 UNL     1      11.211  -3.233  23.367  1.00  0.00     0.001 C 
HETATM   12  C13 UNL     1      11.617  -4.461  22.542  1.00  0.00     0.017 C 
HETATM   13  C14 UNL     1      11.257  -5.666  23.340  1.00  0.00     0.171 C 
HETATM   14  S1  UNL     1      11.062  -7.133  22.425  1.00  0.00     0.265 S 
HETATM   15  O2  UNL     1      12.406  -7.788  22.256  1.00  0.00    -0.199 OA
HETATM   16  O3  UNL     1      10.399  -6.947  21.106  1.00  0.00    -0.199 OA
HETATM   17  O4  UNL     1      10.119  -8.200  23.339  1.00  0.00    -0.276 OA
HETATM   18  C15 UNL     1      10.534  -8.276  24.650  1.00  0.00     0.190 C 
HETATM   19  C16 UNL     1       9.313  -8.355  25.564  1.00  0.00     0.028 C 
HETATM   20  C17 UNL     1       9.715  -8.372  27.013  1.00  0.00     0.008 C 
HETATM   21  C18 UNL     1       9.692  -6.965  27.567  1.00  0.00     0.054 C 
ENDROOT
BRANCH   1  22
HETATM   22  O1  UNL     1       9.411  -8.053  31.067  1.00  0.00    -0.276 OA
BRANCH  22  23
HETATM   23  C2  UNL     1       8.307  -8.398  31.860  1.00  0.00     0.144 C 
HETATM   24  C1  UNL     1       7.747  -7.104  32.461  1.00  0.00     0.042 C 
HETATM   25  C3  UNL     1       7.190  -9.046  31.101  1.00  0.00     0.042 C 
ENDBRANCH  22  23
ENDBRANCH   1  22
TORSDOF 2
ENDMDL
MODEL 3
REMARK VINA RESULT: -9.366380149      2.092      2.868
REMARK  2 active torsions:
REMARK  status: ('A' for Active; 'I' for Inactive)
REMARK    1  A    between atoms: C2_2  and  O1_4 
REMARK    2  A    between atoms: O1_4  and  N1_5 
ROOT
HETATM    1  N1  UNL     1       9.189  -7.655  29.848  1.00  0.00    -0.275 N 
ATOM      2  H1  UNL     1       9.440  -6.872  30.451  1.00  0.00     0.193 HD
HETATM    3  C4  UNL     1       9.578  -7.609  28.613  1.00  0.00     0.010 C 
HETATM    4  C5  UNL     1       9.210  -8.752  27.743  1.00  0.00     0.054 C 
HETATM    5  C6  UNL     1       9.007  -8.370  26.307  1.00  0.00     0.006 C 
HETATM    6  C7  UNL     1      10.311  -8.681  25.567  1.00  0.00     0.000 C 
HETATM    7  C8  UNL     1      10.168  -8.439  24.080  1.00  0.00     0.000 C 
HETATM    8  C9  UNL     1      11.087  -7.268  23.737  1.00  0.00     0.000 C 
HETATM    9  C10 UNL     1      10.976  -6.843  22.315  1.00  0.00     0.000 C 
HETATM   10  C11 UNL     1      11.189  -5.362  22.118  1.00  0.00     0.000 C 
HETATM   11  C12 UNL     1      12.332  -4.816  22.909  1.00  0.00     0.001 C 
HETATM   12  C13 UNL     1      12.079  -3.372  23.364  1.00  0.00     0.017 C 
HETATM   13  C14 UNL     1      11.619  -3.432  24.780  1.00  0.00     0.171 C 
HETATM   14  S1  UNL     1      11.829  -1.965  25.692  1.00  0.00     0.265 S 
HETATM   15  O2  UNL     1      10.641  -1.071  25.465  1.00  0.00    -0.199 OA
HETATM   16  O3  UNL     1      13.096  -1.241  25.401  1.00  0.00    -0.199 OA
HETATM   17  O4  UNL     1      11.822  -2.366  27.336  1.00  0.00    -0.276 OA
HETATM   18  C15 UNL     1      10.792  -3.218  27.664  1.00  0.00     0.190 C 
HETATM   19  C16 UNL     1      11.290  -4.250  28.676  1.00  0.00     0.028 C 
HETATM   20  C17 UNL     1      10.216  -5.247  29.014  1.00  0.00     0.008 C 
HETATM   21  C18 UNL     1      10.350  -6.463  28.127  1.00  0.00     0.054 C 
ENDROOT
BRANCH   1  22
HETATM   22  O1  UNL     1       8.473  -8.665  30.396  1.00  0.00    -0.276 OA
BRANCH  22  23
HETATM   23  C2  UNL     1       7.852  -8.626  31.652  1.00  0.00     0.144 C 
HETATM   24  C1  UNL     1       7.950  -7.189  32.173  1.00  0.00     0.042 C 
HETATM   25  C3  UNL     1       6.396  -8.981  31.623  1.00  0.00     0.042 C 
ENDBRANCH  22  23
ENDBRANCH   1  22
TORSDOF 2
ENDMDL
MODEL 4
REMARK VINA RESULT: -9.332135822      2.525      4.482
REMARK  2 active torsions:
REMARK  status: ('A' for Active; 'I' for Inactive)
REMARK    1  A    between atoms: C2_2  and  O1_4 
REMARK    2  A    between atoms: O1_4  and  N1_5 
ROOT
HETATM    1  N1  UNL     1       9.601  -7.961  29.281  1.00  0.00    -0.275 N 
ATOM      2  H1  UNL     1       9.129  -8.771  28.879  1.00  0.00     0.193 HD
HETATM    3  C4  UNL     1      10.018  -7.045  28.466  1.00  0.00     0.010 C 
HETATM    4  C5  UNL     1      10.701  -5.869  29.058  1.00  0.00     0.054 C 
HETATM    5  C6  UNL     1      11.747  -5.272  28.165  1.00  0.00     0.006 C 
HETATM    6  C7  UNL     1      11.101  -4.089  27.438  1.00  0.00     0.000 C 
HETATM    7  C8  UNL     1      12.115  -3.343  26.598  1.00  0.00     0.000 C 
HETATM    8  C9  UNL     1      11.705  -3.543  25.140  1.00  0.00     0.000 C 
HETATM    9  C10 UNL     1      12.674  -2.947  24.180  1.00  0.00     0.000 C 
HETATM   10  C11 UNL     1      12.779  -3.717  22.886  1.00  0.00     0.000 C 
HETATM   11  C12 UNL     1      11.456  -4.150  22.344  1.00  0.00     0.001 C 
HETATM   12  C13 UNL     1      11.548  -5.494  21.609  1.00  0.00     0.017 C 
HETATM   13  C14 UNL     1      11.081  -6.545  22.555  1.00  0.00     0.171 C 
HETATM   14  S1  UNL     1      10.534  -8.022  21.815  1.00  0.00     0.265 S 
HETATM   15  O2  UNL     1      11.718  -8.921  21.583  1.00  0.00    -0.199 OA
HETATM   16  O3  UNL     1       9.767  -7.827  20.555  1.00  0.00    -0.199 OA
HETATM   17  O4  UNL     1       9.533  -8.823  22.919  1.00  0.00    -0.276 OA
HETATM   18  C15 UNL     1      10.075  -8.866  24.184  1.00  0.00     0.190 C 
HETATM   19  C16 UNL     1       8.970  -8.648  25.217  1.00  0.00     0.028 C 
HETATM   20  C17 UNL     1       9.526  -8.619  26.614  1.00  0.00     0.008 C 
HETATM   21  C18 UNL     1       9.808  -7.192  27.024  1.00  0.00     0.054 C 
ENDROOT
BRANCH   1  22
HETATM   22  O1  UNL     1       9.744  -7.923  30.626  1.00  0.00    -0.276 OA
BRANCH  22  23
HETATM   23  C2  UNL     1       8.698  -8.019  31.554  1.00  0.00     0.144 C 
HETATM   24  C1  UNL     1       8.176  -6.601  31.812  1.00  0.00     0.042 C 
HETATM   25  C3  UNL     1       7.532  -8.832  31.077  1.00  0.00     0.042 C 
ENDBRANCH  22  23
ENDBRANCH   1  22
TORSDOF 2
ENDMDL
MODEL 5
REMARK VINA RESULT: -9.301795157      7.883     11.720
REMARK  2 active torsions:
REMARK  status: ('A' for Active; 'I' for Inactive)
REMARK    1  A    between atoms: C2_2  and  O1_4 
REMARK    2  A    between atoms: O1_4  and  N1_5 
ROOT
HETATM    1  N1  UNL     1      15.502 -13.091  17.530  1.00  0.00    -0.275 N 
ATOM      2  H1  UNL     1      14.492 -13.122  17.667  1.00  0.00     0.193 HD
HETATM    3  C4  UNL     1      16.210 -12.474  18.423  1.00  0.00     0.010 C 
HETATM    4  C5  UNL     1      17.677 -12.435  18.217  1.00  0.00     0.054 C 
HETATM    5  C6  UNL     1      18.326 -11.200  18.766  1.00  0.00     0.006 C 
HETATM    6  C7  UNL     1      18.883 -11.555  20.148  1.00  0.00     0.000 C 
HETATM    7  C8  UNL     1      19.665 -10.401  20.737  1.00  0.00     0.000 C 
HETATM    8  C9  UNL     1      18.885  -9.926  21.961  1.00  0.00     0.000 C 
HETATM    9  C10 UNL     1      19.482  -8.718  22.594  1.00  0.00     0.000 C 
HETATM   10  C11 UNL     1      18.455  -7.804  23.217  1.00  0.00     0.000 C 
HETATM   11  C12 UNL     1      17.401  -8.531  23.987  1.00  0.00     0.001 C 
HETATM   12  C13 UNL     1      16.042  -7.823  23.909  1.00  0.00     0.017 C 
HETATM   13  C14 UNL     1      15.238  -8.528  22.872  1.00  0.00     0.171 C 
HETATM   14  S1  UNL     1      13.515  -8.321  23.000  1.00  0.00     0.265 S 
HETATM   15  O2  UNL     1      13.118  -7.059  22.284  1.00  0.00    -0.199 OA
HETATM   16  O3  UNL     1      13.002  -8.317  24.396  1.00  0.00    -0.199 OA
HETATM   17  O4  UNL     1      12.772  -9.596  22.172  1.00  0.00    -0.276 OA
HETATM   18  C15 UNL     1      13.331  -9.816  20.934  1.00  0.00     0.190 C 
HETATM   19  C16 UNL     1      13.413 -11.320  20.674  1.00  0.00     0.028 C 
HETATM   20  C17 UNL     1      14.081 -11.612  19.359  1.00  0.00     0.008 C 
HETATM   21  C18 UNL     1      15.558 -11.851  19.577  1.00  0.00     0.054 C 
ENDROOT
BRANCH   1  22
HETATM   22  O1  UNL     1      16.004 -13.698  16.429  1.00  0.00    -0.276 OA
BRANCH  22  23
HETATM   23  C2  UNL     1      15.257 -14.087  15.309  1.00  0.00     0.144 C 
HETATM   24  C1  UNL     1      13.831 -13.557  15.497  1.00  0.00     0.042 C 
HETATM   25  C3  UNL     1      15.763 -13.526  14.014  1.00  0.00     0.042 C 
ENDBRANCH  22  23
ENDBRANCH   1  22
TORSDOF 2
ENDMDL
