MODEL 1
REMARK VINA RESULT: -8.264204865      0.000      0.000
REMARK  2 active torsions:
REMARK  status: ('A' for Active; 'I' for Inactive)
REMARK    1  A    between atoms: C2_2  and  C3_3 
REMARK    2  A    between atoms: C3_3  and  C4_4 
ROOT
HETATM    1  C4  UNL     1      11.512  -4.383  23.471  1.00  0.00     0.085 C 
HETATM    2  C5  UNL     1      10.865  -3.452  24.511  1.00  0.00     0.049 C 
HETATM    3  C6  UNL     1      12.983  -4.506  23.682  1.00  0.00     0.209 C 
HETATM    4  O1  UNL     1      13.218  -5.769  23.316  1.00  0.00    -0.347 OA
HETATM    5  C7  UNL     1      12.088  -6.585  23.508  1.00  0.00     0.233 C 
HETATM    6  O2  UNL     1      11.098  -5.649  23.546  1.00  0.00    -0.337 OA
HETATM    7  C8  UNL     1      12.311  -7.396  24.710  1.00  0.00     0.117 C 
HETATM    8  C9  UNL     1      12.234  -6.609  26.032  1.00  0.00     0.052 C 
HETATM    9  C10 UNL     1      13.704  -7.948  24.633  1.00  0.00     0.044 C 
HETATM   10  C11 UNL     1      14.350  -8.013  23.304  1.00  0.00     0.011 C 
HETATM   11  C12 UNL     1      13.420  -8.082  22.097  1.00  0.00     0.030 C 
HETATM   12  C13 UNL     1      13.298  -9.606  21.860  1.00  0.00     0.009 C 
HETATM   13  C14 UNL     1      12.036  -9.912  22.699  1.00  0.00     0.016 C 
HETATM   14  C15 UNL     1      11.290  -8.781  22.310  1.00  0.00     0.032 C 
HETATM   15  C16 UNL     1      11.027  -9.044  20.789  1.00  0.00     0.022 C 
HETATM   16  C17 UNL     1      10.064  -8.230  22.800  1.00  0.00     0.124 C 
HETATM   17  C18 UNL     1       8.794  -8.978  22.375  1.00  0.00     0.052 C 
HETATM   18  C19 UNL     1      10.093  -8.062  24.266  1.00  0.00     0.210 C 
HETATM   19  O3  UNL     1      11.314  -8.325  24.841  1.00  0.00    -0.372 OA
HETATM   20  O4  UNL     1      10.061  -7.062  22.015  1.00  0.00    -0.226 OA
HETATM   21  O5  UNL     1      11.290  -6.902  21.480  1.00  0.00    -0.222 OA
HETATM   22  C20 UNL     1      12.121  -7.516  22.332  1.00  0.00     0.169 C 
ENDROOT
BRANCH   1  23
HETATM   23  C3  UNL     1      11.307  -3.647  22.164  1.00  0.00     0.066 C 
BRANCH  23  24
HETATM   24  C2  UNL     1      10.881  -2.254  22.353  1.00  0.00    -0.034 C 
HETATM   25  C1  UNL     1      10.106  -1.664  21.469  1.00  0.00     0.007 C 
ENDBRANCH  23  24
ENDBRANCH   1  23
TORSDOF 2
ENDMDL
MODEL 2
REMARK VINA RESULT: -8.208230905      1.534      3.407
REMARK  2 active torsions:
REMARK  status: ('A' for Active; 'I' for Inactive)
REMARK    1  A    between atoms: C2_2  and  C3_3 
REMARK    2  A    between atoms: C3_3  and  C4_4 
ROOT
HETATM    1  C4  UNL     1      12.160  -4.322  23.581  1.00  0.00     0.085 C 
HETATM    2  C5  UNL     1      13.441  -3.469  23.553  1.00  0.00     0.049 C 
HETATM    3  C6  UNL     1      12.048  -5.187  22.372  1.00  0.00     0.209 C 
HETATM    4  O1  UNL     1      11.450  -6.278  22.858  1.00  0.00    -0.347 OA
HETATM    5  C7  UNL     1      11.737  -6.464  24.223  1.00  0.00     0.233 C 
HETATM    6  O2  UNL     1      12.120  -5.205  24.579  1.00  0.00    -0.337 OA
HETATM    7  C8  UNL     1      12.728  -7.539  24.337  1.00  0.00     0.117 C 
HETATM    8  C9  UNL     1      14.145  -7.152  23.872  1.00  0.00     0.052 C 
HETATM    9  C10 UNL     1      12.286  -8.660  23.443  1.00  0.00     0.044 C 
HETATM   10  C11 UNL     1      10.861  -8.714  23.053  1.00  0.00     0.011 C 
HETATM   11  C12 UNL     1       9.871  -8.036  23.995  1.00  0.00     0.030 C 
HETATM   12  C13 UNL     1       9.429  -9.204  24.908  1.00  0.00     0.009 C 
HETATM   13  C14 UNL     1      10.448  -9.050  26.061  1.00  0.00     0.016 C 
HETATM   14  C15 UNL     1      10.398  -7.643  26.149  1.00  0.00     0.032 C 
HETATM   15  C16 UNL     1       8.939  -7.378  26.653  1.00  0.00     0.022 C 
HETATM   16  C17 UNL     1      11.206  -6.701  26.862  1.00  0.00     0.124 C 
HETATM   17  C18 UNL     1      10.935  -6.616  28.369  1.00  0.00     0.052 C 
HETATM   18  C19 UNL     1      12.643  -6.921  26.612  1.00  0.00     0.210 C 
HETATM   19  O3  UNL     1      12.912  -7.870  25.653  1.00  0.00    -0.372 OA
HETATM   20  O4  UNL     1      10.629  -5.531  26.337  1.00  0.00    -0.226 OA
HETATM   21  O5  UNL     1       9.887  -5.864  25.258  1.00  0.00    -0.222 OA
HETATM   22  C20 UNL     1      10.449  -6.985  24.787  1.00  0.00     0.169 C 
ENDROOT
BRANCH   1  23
HETATM   23  C3  UNL     1      11.052  -3.293  23.500  1.00  0.00     0.066 C 
BRANCH  23  24
HETATM   24  C2  UNL     1      10.847  -2.778  22.139  1.00  0.00    -0.034 C 
HETATM   25  C1  UNL     1      10.426  -1.547  21.945  1.00  0.00     0.007 C 
ENDBRANCH  23  24
ENDBRANCH   1  23
TORSDOF 2
ENDMDL
MODEL 3
REMARK VINA RESULT: -8.195245599      1.747      5.221
REMARK  2 active torsions:
REMARK  status: ('A' for Active; 'I' for Inactive)
REMARK    1  A    between atoms: C2_2  and  C3_3 
REMARK    2  A    between atoms: C3_3  and  C4_4 
ROOT
HETATM    1  C4  UNL     1      11.365  -7.730  23.182  1.00  0.00     0.085 C 
HETATM    2  C5  UNL     1      12.378  -8.764  22.656  1.00  0.00     0.049 C 
HETATM    3  C6  UNL     1      10.478  -8.314  24.229  1.00  0.00     0.209 C 
HETATM    4  O1  UNL     1      10.274  -7.272  25.041  1.00  0.00    -0.347 OA
HETATM    5  C7  UNL     1      11.349  -6.366  25.004  1.00  0.00     0.233 C 
HETATM    6  O2  UNL     1      11.926  -6.698  23.814  1.00  0.00    -0.337 OA
HETATM    7  C8  UNL     1      12.142  -6.551  26.224  1.00  0.00     0.117 C 
HETATM    8  C9  UNL     1      12.962  -7.855  26.260  1.00  0.00     0.052 C 
HETATM    9  C10 UNL     1      11.186  -6.627  27.379  1.00  0.00     0.044 C 
HETATM   10  C11 UNL     1       9.834  -6.057  27.196  1.00  0.00     0.011 C 
HETATM   11  C12 UNL     1       9.692  -4.964  26.141  1.00  0.00     0.030 C 
HETATM   12  C13 UNL     1       9.874  -3.674  26.974  1.00  0.00     0.009 C 
HETATM   13  C14 UNL     1      11.398  -3.461  26.817  1.00  0.00     0.016 C 
HETATM   14  C15 UNL     1      11.476  -3.781  25.446  1.00  0.00     0.032 C 
HETATM   15  C16 UNL     1      10.676  -2.617  24.770  1.00  0.00     0.022 C 
HETATM   16  C17 UNL     1      12.594  -4.004  24.580  1.00  0.00     0.124 C 
HETATM   17  C18 UNL     1      13.339  -2.740  24.133  1.00  0.00     0.052 C 
HETATM   18  C19 UNL     1      13.539  -4.980  25.155  1.00  0.00     0.210 C 
HETATM   19  O3  UNL     1      13.100  -5.577  26.314  1.00  0.00    -0.372 OA
HETATM   20  O4  UNL     1      11.867  -4.401  23.442  1.00  0.00    -0.226 OA
HETATM   21  O5  UNL     1      10.597  -4.670  23.816  1.00  0.00    -0.222 OA
HETATM   22  C20 UNL     1      10.685  -5.025  25.105  1.00  0.00     0.169 C 
ENDROOT
BRANCH   1  23
HETATM   23  C3  UNL     1      10.502  -7.437  21.974  1.00  0.00     0.066 C 
BRANCH  23  24
HETATM   24  C2  UNL     1       9.426  -8.420  21.787  1.00  0.00    -0.034 C 
HETATM   25  C1  UNL     1       9.034  -8.764  20.579  1.00  0.00     0.007 C 
ENDBRANCH  23  24
ENDBRANCH   1  23
TORSDOF 2
ENDMDL
MODEL 4
REMARK VINA RESULT: -7.950118179      1.709      4.777
REMARK  2 active torsions:
REMARK  status: ('A' for Active; 'I' for Inactive)
REMARK    1  A    between atoms: C2_2  and  C3_3 
REMARK    2  A    between atoms: C3_3  and  C4_4 
ROOT
HETATM    1  C4  UNL     1      10.073  -7.909  25.120  1.00  0.00     0.085 C 
HETATM    2  C5  UNL     1       9.033  -8.849  24.484  1.00  0.00     0.049 C 
HETATM    3  C6  UNL     1      11.228  -8.666  25.682  1.00  0.00     0.209 C 
HETATM    4  O1  UNL     1      12.248  -7.830  25.467  1.00  0.00    -0.347 OA
HETATM    5  C7  UNL     1      12.015  -7.002  24.353  1.00  0.00     0.233 C 
HETATM    6  O2  UNL     1      10.658  -7.084  24.250  1.00  0.00    -0.337 OA
HETATM    7  C8  UNL     1      12.818  -7.508  23.235  1.00  0.00     0.117 C 
HETATM    8  C9  UNL     1      12.306  -8.830  22.630  1.00  0.00     0.052 C 
HETATM    9  C10 UNL     1      14.195  -7.793  23.758  1.00  0.00     0.044 C 
HETATM   10  C11 UNL     1      14.614  -7.121  25.006  1.00  0.00     0.011 C 
HETATM   11  C12 UNL     1      13.913  -5.809  25.341  1.00  0.00     0.030 C 
HETATM   12  C13 UNL     1      14.866  -4.757  24.725  1.00  0.00     0.009 C 
HETATM   13  C14 UNL     1      14.229  -4.601  23.324  1.00  0.00     0.016 C 
HETATM   14  C15 UNL     1      12.883  -4.600  23.745  1.00  0.00     0.032 C 
HETATM   15  C16 UNL     1      12.774  -3.268  24.561  1.00  0.00     0.022 C 
HETATM   16  C17 UNL     1      11.654  -4.681  23.016  1.00  0.00     0.124 C 
HETATM   17  C18 UNL     1      11.233  -3.393  22.299  1.00  0.00     0.052 C 
HETATM   18  C19 UNL     1      11.657  -5.815  22.073  1.00  0.00     0.210 C 
HETATM   19  O3  UNL     1      12.755  -6.637  22.180  1.00  0.00    -0.372 OA
HETATM   20  O4  UNL     1      10.790  -4.763  24.123  1.00  0.00    -0.226 OA
HETATM   21  O5  UNL     1      11.525  -5.039  25.223  1.00  0.00    -0.222 OA
HETATM   22  C20 UNL     1      12.604  -5.685  24.763  1.00  0.00     0.169 C 
ENDROOT
BRANCH   1  23
HETATM   23  C3  UNL     1       9.327  -7.297  26.286  1.00  0.00     0.066 C 
BRANCH  23  24
HETATM   24  C2  UNL     1       9.119  -8.242  27.392  1.00  0.00    -0.034 C 
HETATM   25  C1  UNL     1       9.312  -7.868  28.638  1.00  0.00     0.007 C 
ENDBRANCH  23  24
ENDBRANCH   1  23
TORSDOF 2
ENDMDL
MODEL 5
REMARK VINA RESULT: -7.878141699      1.950      4.660
REMARK  2 active torsions:
REMARK  status: ('A' for Active; 'I' for Inactive)
REMARK    1  A    between atoms: C2_2  and  C3_3 
REMARK    2  A    between atoms: C3_3  and  C4_4 
ROOT
HETATM    1  C4  UNL     1      11.424  -6.614  22.397  1.00  0.00     0.085 C 
HETATM    2  C5  UNL     1      11.402  -5.937  21.015  1.00  0.00     0.049 C 
HETATM    3  C6  UNL     1      12.695  -7.359  22.625  1.00  0.00     0.209 C 
HETATM    4  O1  UNL     1      12.886  -7.199  23.937  1.00  0.00    -0.347 OA
HETATM    5  C7  UNL     1      12.303  -6.008  24.406  1.00  0.00     0.233 C 
HETATM    6  O2  UNL     1      11.397  -5.758  23.419  1.00  0.00    -0.337 OA
HETATM    7  C8  UNL     1      13.375  -5.029  24.616  1.00  0.00     0.117 C 
HETATM    8  C9  UNL     1      13.990  -4.470  23.319  1.00  0.00     0.052 C 
HETATM    9  C10 UNL     1      14.490  -5.725  25.341  1.00  0.00     0.044 C 
HETATM   10  C11 UNL     1      14.165  -6.959  26.087  1.00  0.00     0.011 C 
HETATM   11  C12 UNL     1      12.721  -7.114  26.553  1.00  0.00     0.030 C 
HETATM   12  C13 UNL     1      12.771  -6.533  27.986  1.00  0.00     0.009 C 
HETATM   13  C14 UNL     1      12.394  -5.062  27.696  1.00  0.00     0.016 C 
HETATM   14  C15 UNL     1      11.369  -5.326  26.764  1.00  0.00     0.032 C 
HETATM   15  C16 UNL     1      10.273  -6.022  27.638  1.00  0.00     0.022 C 
HETATM   16  C17 UNL     1      10.639  -4.470  25.879  1.00  0.00     0.124 C 
HETATM   17  C18 UNL     1       9.553  -3.615  26.545  1.00  0.00     0.052 C 
HETATM   18  C19 UNL     1      11.541  -3.620  25.079  1.00  0.00     0.210 C 
HETATM   19  O3  UNL     1      12.877  -3.912  25.232  1.00  0.00    -0.372 OA
HETATM   20  O4  UNL     1       9.926  -5.475  25.200  1.00  0.00    -0.226 OA
HETATM   21  O5  UNL     1      10.495  -6.668  25.478  1.00  0.00    -0.222 OA
HETATM   22  C20 UNL     1      11.773  -6.383  25.758  1.00  0.00     0.169 C 
ENDROOT
BRANCH   1  23
HETATM   23  C3  UNL     1      10.314  -7.640  22.302  1.00  0.00     0.066 C 
BRANCH  23  24
HETATM   24  C2  UNL     1       9.906  -7.916  20.918  1.00  0.00    -0.034 C 
HETATM   25  C1  UNL     1       8.968  -8.801  20.660  1.00  0.00     0.007 C 
ENDBRANCH  23  24
ENDBRANCH   1  23
TORSDOF 2
ENDMDL
