MODEL 1
REMARK VINA RESULT: -8.857504975      0.000      0.000
REMARK  3 active torsions:
REMARK  status: ('A' for Active; 'I' for Inactive)
REMARK    1  A    between atoms: C2_2  and  O1_3 
REMARK    2  A    between atoms: O1_3  and  C3_4 
REMARK    3  A    between atoms: C3_4  and  C4_6 
ROOT
HETATM    1  C4  UNL     1      10.449  -8.381  21.507  1.00  0.00     0.085 C 
HETATM    2  C5  UNL     1       9.594  -8.038  22.697  1.00  0.00     0.018 C 
HETATM    3  C6  UNL     1      10.439  -7.777  23.924  1.00  0.00     0.044 C 
HETATM    4  C7  UNL     1      11.497  -6.725  23.660  1.00  0.00     0.118 C 
HETATM    5  C8  UNL     1      12.344  -7.213  22.504  1.00  0.00     0.044 C 
HETATM    6  C9  UNL     1      11.868  -8.549  21.981  1.00  0.00     0.018 C 
HETATM    7  C10 UNL     1      12.290  -6.541  24.912  1.00  0.00     0.212 C 
HETATM    8  O3  UNL     1      12.453  -5.272  25.345  1.00  0.00    -0.349 OA
HETATM    9  C11 UNL     1      11.584  -4.329  24.899  1.00  0.00     0.204 C 
HETATM   10  O4  UNL     1      10.441  -4.867  24.292  1.00  0.00    -0.199 OA
HETATM   11  O5  UNL     1      10.833  -5.572  23.255  1.00  0.00    -0.224 OA
HETATM   12  C12 UNL     1      11.092  -3.405  25.993  1.00  0.00     0.052 C 
HETATM   13  C13 UNL     1      10.032  -2.493  25.434  1.00  0.00     0.014 C 
HETATM   14  C14 UNL     1      10.614  -1.681  24.304  1.00  0.00    -0.013 C 
HETATM   15  C15 UNL     1      11.715  -0.806  24.863  1.00  0.00     0.009 C 
HETATM   16  C16 UNL     1      12.791  -1.685  25.432  1.00  0.00    -0.013 C 
HETATM   17  C17 UNL     1      12.195  -2.537  26.550  1.00  0.00     0.014 C 
HETATM   18  C18 UNL     1      13.372  -2.641  24.423  1.00  0.00     0.014 C 
HETATM   19  C19 UNL     1      12.276  -3.481  23.852  1.00  0.00     0.052 C 
HETATM   20  C20 UNL     1      11.210  -2.576  23.253  1.00  0.00     0.014 C 
ENDROOT
BRANCH   1  21
HETATM   21  C3  UNL     1       9.962  -9.596  20.790  1.00  0.00     0.263 C 
HETATM   22  O2  UNL     1      10.765 -10.570  20.658  1.00  0.00    -0.265 OA
BRANCH  21  23
HETATM   23  O1  UNL     1       8.700  -9.704  20.274  1.00  0.00    -0.322 OA
BRANCH  23  24
HETATM   24  C2  UNL     1       7.903 -10.873  20.441  1.00  0.00     0.174 C 
HETATM   25  C1  UNL     1       6.537 -10.541  20.982  1.00  0.00     0.034 C 
ENDBRANCH  23  24
ENDBRANCH  21  23
ENDBRANCH   1  21
TORSDOF 3
ENDMDL
MODEL 2
REMARK VINA RESULT: -8.665705306     10.836     13.832
REMARK  3 active torsions:
REMARK  status: ('A' for Active; 'I' for Inactive)
REMARK    1  A    between atoms: C2_2  and  O1_3 
REMARK    2  A    between atoms: O1_3  and  C3_4 
REMARK    3  A    between atoms: C3_4  and  C4_6 
ROOT
HETATM    1  C4  UNL     1      21.601 -12.187  18.294  1.00  0.00     0.085 C 
HETATM    2  C5  UNL     1      21.225 -13.606  17.963  1.00  0.00     0.018 C 
HETATM    3  C6  UNL     1      19.953 -14.016  18.672  1.00  0.00     0.044 C 
HETATM    4  C7  UNL     1      18.821 -13.048  18.396  1.00  0.00     0.118 C 
HETATM    5  C8  UNL     1      19.280 -11.676  18.842  1.00  0.00     0.044 C 
HETATM    6  C9  UNL     1      20.688 -11.703  19.389  1.00  0.00     0.018 C 
HETATM    7  C10 UNL     1      17.616 -13.519  19.140  1.00  0.00     0.212 C 
HETATM    8  O3  UNL     1      16.469 -13.621  18.434  1.00  0.00    -0.349 OA
HETATM    9  C11 UNL     1      16.558 -13.706  17.083  1.00  0.00     0.204 C 
HETATM   10  O4  UNL     1      17.851 -13.993  16.626  1.00  0.00    -0.199 OA
HETATM   11  O5  UNL     1      18.639 -13.017  17.017  1.00  0.00    -0.224 OA
HETATM   12  C12 UNL     1      15.651 -14.765  16.490  1.00  0.00     0.052 C 
HETATM   13  C13 UNL     1      15.924 -14.883  15.014  1.00  0.00     0.014 C 
HETATM   14  C14 UNL     1      15.660 -13.556  14.348  1.00  0.00    -0.013 C 
HETATM   15  C15 UNL     1      14.193 -13.222  14.512  1.00  0.00     0.009 C 
HETATM   16  C16 UNL     1      13.886 -13.098  15.976  1.00  0.00    -0.013 C 
HETATM   17  C17 UNL     1      14.189 -14.429  16.660  1.00  0.00     0.014 C 
HETATM   18  C18 UNL     1      14.720 -12.056  16.672  1.00  0.00     0.014 C 
HETATM   19  C19 UNL     1      16.167 -12.373  16.481  1.00  0.00     0.052 C 
HETATM   20  C20 UNL     1      16.469 -12.463  14.992  1.00  0.00     0.014 C 
ENDROOT
BRANCH   1  21
HETATM   21  C3  UNL     1      23.037 -12.055  18.678  1.00  0.00     0.263 C 
HETATM   22  O2  UNL     1      23.409 -12.573  19.776  1.00  0.00    -0.265 OA
BRANCH  21  23
HETATM   23  O1  UNL     1      23.962 -11.407  17.906  1.00  0.00    -0.322 OA
BRANCH  23  24
HETATM   24  C2  UNL     1      24.283 -11.828  16.583  1.00  0.00     0.174 C 
HETATM   25  C1  UNL     1      23.659 -10.930  15.548  1.00  0.00     0.034 C 
ENDBRANCH  23  24
ENDBRANCH  21  23
ENDBRANCH   1  21
TORSDOF 3
ENDMDL
MODEL 3
REMARK VINA RESULT: -8.587320033     10.840     13.667
REMARK  3 active torsions:
REMARK  status: ('A' for Active; 'I' for Inactive)
REMARK    1  A    between atoms: C2_2  and  O1_3 
REMARK    2  A    between atoms: O1_3  and  C3_4 
REMARK    3  A    between atoms: C3_4  and  C4_6 
ROOT
HETATM    1  C4  UNL     1      21.488 -12.108  18.522  1.00  0.00     0.085 C 
HETATM    2  C5  UNL     1      21.136 -13.539  18.218  1.00  0.00     0.018 C 
HETATM    3  C6  UNL     1      19.834 -13.937  18.877  1.00  0.00     0.044 C 
HETATM    4  C7  UNL     1      18.711 -12.985  18.517  1.00  0.00     0.118 C 
HETATM    5  C8  UNL     1      19.140 -11.597  18.942  1.00  0.00     0.044 C 
HETATM    6  C9  UNL     1      20.521 -11.597  19.557  1.00  0.00     0.018 C 
HETATM    7  C10 UNL     1      17.474 -13.441  19.217  1.00  0.00     0.212 C 
HETATM    8  O3  UNL     1      16.363 -13.574  18.460  1.00  0.00    -0.349 OA
HETATM    9  C11 UNL     1      16.518 -13.701  17.118  1.00  0.00     0.204 C 
HETATM   10  O4  UNL     1      17.834 -13.992  16.733  1.00  0.00    -0.199 OA
HETATM   11  O5  UNL     1      18.596 -12.999  17.131  1.00  0.00    -0.224 OA
HETATM   12  C12 UNL     1      15.647 -14.783  16.515  1.00  0.00     0.052 C 
HETATM   13  C13 UNL     1      15.991 -14.946  15.059  1.00  0.00     0.014 C 
HETATM   14  C14 UNL     1      15.753 -13.642  14.339  1.00  0.00    -0.013 C 
HETATM   15  C15 UNL     1      14.278 -13.313  14.422  1.00  0.00     0.009 C 
HETATM   16  C16 UNL     1      13.899 -13.147  15.865  1.00  0.00    -0.013 C 
HETATM   17  C17 UNL     1      14.177 -14.453  16.604  1.00  0.00     0.014 C 
HETATM   18  C18 UNL     1      14.693 -12.076  16.567  1.00  0.00     0.014 C 
HETATM   19  C19 UNL     1      16.150 -12.389  16.456  1.00  0.00     0.052 C 
HETATM   20  C20 UNL     1      16.523 -12.524  14.987  1.00  0.00     0.014 C 
ENDROOT
BRANCH   1  21
HETATM   21  C3  UNL     1      22.903 -11.955  18.971  1.00  0.00     0.263 C 
HETATM   22  O2  UNL     1      23.775 -11.658  18.098  1.00  0.00    -0.265 OA
BRANCH  21  23
HETATM   23  O1  UNL     1      23.297 -12.119  20.271  1.00  0.00    -0.322 OA
BRANCH  23  24
HETATM   24  C2  UNL     1      23.704 -13.380  20.794  1.00  0.00     0.174 C 
HETATM   25  C1  UNL     1      22.624 -14.008  21.633  1.00  0.00     0.034 C 
ENDBRANCH  23  24
ENDBRANCH  21  23
ENDBRANCH   1  21
TORSDOF 3
ENDMDL
MODEL 4
REMARK VINA RESULT: -8.491797465      1.972      2.848
REMARK  3 active torsions:
REMARK  status: ('A' for Active; 'I' for Inactive)
REMARK    1  A    between atoms: C2_2  and  O1_3 
REMARK    2  A    between atoms: O1_3  and  C3_4 
REMARK    3  A    between atoms: C3_4  and  C4_6 
ROOT
HETATM    1  C4  UNL     1       9.338  -8.612  21.762  1.00  0.00     0.085 C 
HETATM    2  C5  UNL     1       9.807  -9.415  22.944  1.00  0.00     0.018 C 
HETATM    3  C6  UNL     1      11.188  -8.986  23.386  1.00  0.00     0.044 C 
HETATM    4  C7  UNL     1      11.254  -7.496  23.648  1.00  0.00     0.118 C 
HETATM    5  C8  UNL     1      10.843  -6.792  22.373  1.00  0.00     0.044 C 
HETATM    6  C9  UNL     1      10.490  -7.772  21.278  1.00  0.00     0.018 C 
HETATM    7  C10 UNL     1      12.647  -7.158  24.065  1.00  0.00     0.212 C 
HETATM    8  O3  UNL     1      12.784  -6.428  25.193  1.00  0.00    -0.349 OA
HETATM    9  C11 UNL     1      11.747  -6.410  26.069  1.00  0.00     0.204 C 
HETATM   10  O4  UNL     1      10.795  -7.410  25.828  1.00  0.00    -0.199 OA
HETATM   11  O5  UNL     1      10.304  -7.213  24.625  1.00  0.00    -0.224 OA
HETATM   12  C12 UNL     1      12.181  -6.573  27.511  1.00  0.00     0.052 C 
HETATM   13  C13 UNL     1      10.962  -6.685  28.388  1.00  0.00     0.014 C 
HETATM   14  C14 UNL     1      10.126  -5.437  28.246  1.00  0.00    -0.013 C 
HETATM   15  C15 UNL     1      10.936  -4.260  28.744  1.00  0.00     0.009 C 
HETATM   16  C16 UNL     1      12.164  -4.121  27.891  1.00  0.00    -0.013 C 
HETATM   17  C17 UNL     1      12.992  -5.398  28.003  1.00  0.00     0.014 C 
HETATM   18  C18 UNL     1      11.853  -3.934  26.430  1.00  0.00     0.014 C 
HETATM   19  C19 UNL     1      11.027  -5.083  25.950  1.00  0.00     0.052 C 
HETATM   20  C20 UNL     1       9.773  -5.191  26.804  1.00  0.00     0.014 C 
ENDROOT
BRANCH   1  21
HETATM   21  C3  UNL     1       8.790  -9.472  20.672  1.00  0.00     0.263 C 
HETATM   22  O2  UNL     1       9.590 -10.251  20.070  1.00  0.00    -0.265 OA
BRANCH  21  23
HETATM   23  O1  UNL     1       7.474  -9.457  20.297  1.00  0.00    -0.322 OA
BRANCH  23  24
HETATM   24  C2  UNL     1       6.528 -10.402  20.788  1.00  0.00     0.174 C 
HETATM   25  C1  UNL     1       6.524 -11.663  19.964  1.00  0.00     0.034 C 
ENDBRANCH  23  24
ENDBRANCH  21  23
ENDBRANCH   1  21
TORSDOF 3
ENDMDL
MODEL 5
REMARK VINA RESULT: -8.367044045     10.006     12.877
REMARK  3 active torsions:
REMARK  status: ('A' for Active; 'I' for Inactive)
REMARK    1  A    between atoms: C2_2  and  O1_3 
REMARK    2  A    between atoms: O1_3  and  C3_4 
REMARK    3  A    between atoms: C3_4  and  C4_6 
ROOT
HETATM    1  C4  UNL     1      20.354 -11.505  19.704  1.00  0.00     0.085 C 
HETATM    2  C5  UNL     1      19.994 -12.963  19.626  1.00  0.00     0.018 C 
HETATM    3  C6  UNL     1      18.535 -13.188  19.952  1.00  0.00     0.044 C 
HETATM    4  C7  UNL     1      17.631 -12.331  19.090  1.00  0.00     0.118 C 
HETATM    5  C8  UNL     1      18.027 -10.887  19.312  1.00  0.00     0.044 C 
HETATM    6  C9  UNL     1      19.179 -10.762  20.283  1.00  0.00     0.018 C 
HETATM    7  C10 UNL     1      16.217 -12.604  19.486  1.00  0.00     0.212 C 
HETATM    8  O3  UNL     1      15.353 -12.892  18.489  1.00  0.00    -0.349 OA
HETATM    9  C11 UNL     1      15.864 -13.322  17.307  1.00  0.00     0.204 C 
HETATM   10  O4  UNL     1      17.209 -13.706  17.388  1.00  0.00    -0.199 OA
HETATM   11  O5  UNL     1      17.903 -12.657  17.765  1.00  0.00    -0.224 OA
HETATM   12  C12 UNL     1      15.116 -14.503  16.726  1.00  0.00     0.052 C 
HETATM   13  C13 UNL     1      15.837 -14.995  15.500  1.00  0.00     0.014 C 
HETATM   14  C14 UNL     1      15.906 -13.885  14.480  1.00  0.00    -0.013 C 
HETATM   15  C15 UNL     1      14.495 -13.531  14.064  1.00  0.00     0.009 C 
HETATM   16  C16 UNL     1      13.745 -13.038  15.267  1.00  0.00    -0.013 C 
HETATM   17  C17 UNL     1      13.708 -14.146  16.316  1.00  0.00     0.014 C 
HETATM   18  C18 UNL     1      14.390 -11.845  15.922  1.00  0.00     0.014 C 
HETATM   19  C19 UNL     1      15.793 -12.190  16.303  1.00  0.00     0.052 C 
HETATM   20  C20 UNL     1      16.548 -12.658  15.067  1.00  0.00     0.014 C 
ENDROOT
BRANCH   1  21
HETATM   21  C3  UNL     1      21.597 -11.268  20.497  1.00  0.00     0.263 C 
HETATM   22  O2  UNL     1      22.688 -11.732  20.044  1.00  0.00    -0.265 OA
BRANCH  21  23
HETATM   23  O1  UNL     1      21.610 -10.579  21.678  1.00  0.00    -0.322 OA
BRANCH  23  24
HETATM   24  C2  UNL     1      21.901 -11.204  22.925  1.00  0.00     0.174 C 
HETATM   25  C1  UNL     1      20.995 -10.706  24.020  1.00  0.00     0.034 C 
ENDBRANCH  23  24
ENDBRANCH  21  23
ENDBRANCH   1  21
TORSDOF 3
ENDMDL
