MODEL 1
REMARK VINA RESULT: -7.242558356      0.000      0.000
REMARK  7 active torsions:
REMARK  status: ('A' for Active; 'I' for Inactive)
REMARK    1  A    between atoms: O1_2  and  C2_3 
REMARK    2  A    between atoms: C2_3  and  O2_4 
REMARK    3  A    between atoms: O2_4  and  C3_5 
REMARK    4  A    between atoms: C5_8  and  S1_9 
REMARK    5  A    between atoms: C7_11  and  O4_12 
REMARK    6  A    between atoms: O4_12  and  C8_13 
REMARK    7  A    between atoms: C8_13  and  C9_14 
ROOT
HETATM    1  C3  UNL     1      17.395 -13.731  16.478  1.00  0.00     0.289 C 
HETATM    2  C4  UNL     1      18.651 -13.948  17.281  1.00  0.00     0.230 C 
HETATM    3  O3  UNL     1      18.419 -14.084  18.632  1.00  0.00    -0.366 OA
HETATM    4  C5  UNL     1      17.796 -12.948  19.094  1.00  0.00     0.237 C 
HETATM    5  C7  UNL     1      16.483 -12.792  18.390  1.00  0.00     0.302 C 
HETATM    6  O5  UNL     1      16.577 -12.779  17.020  1.00  0.00    -0.326 OA
ENDROOT
BRANCH   5   7
HETATM    7  O4  UNL     1      15.939 -11.565  18.787  1.00  0.00    -0.353 OA
BRANCH   7   8
HETATM    8  C8  UNL     1      14.701 -11.719  19.414  1.00  0.00     0.209 C 
BRANCH   8   9
HETATM    9  C9  UNL     1      14.631 -10.693  20.487  1.00  0.00    -0.035 A 
HETATM   10  C10 UNL     1      15.751  -9.946  20.801  1.00  0.00     0.009 A 
HETATM   11  C11 UNL     1      15.617  -9.012  21.807  1.00  0.00     0.001 A 
HETATM   12  C12 UNL     1      14.428  -8.837  22.460  1.00  0.00     0.000 A 
HETATM   13  C13 UNL     1      13.311  -9.584  22.144  1.00  0.00     0.001 A 
HETATM   14  C14 UNL     1      13.431 -10.521  21.142  1.00  0.00     0.009 A 
ENDBRANCH   8   9
ENDBRANCH   7   8
ENDBRANCH   5   7
BRANCH   4  15
HETATM   15  S1  UNL     1      18.816 -11.461  18.907  1.00  0.00    -0.137 SA
HETATM   16  C6  UNL     1      19.288 -10.769  20.497  1.00  0.00     0.092 C 
ENDBRANCH   4  15
BRANCH   1  17
HETATM   17  O2  UNL     1      16.702 -14.851  16.170  1.00  0.00    -0.335 OA
BRANCH  17  18
HETATM   18  C2  UNL     1      15.395 -14.774  15.862  1.00  0.00     0.340 C 
BRANCH  18  19
HETATM   19  O1  UNL     1      15.054 -14.713  14.523  1.00  0.00    -0.372 OA
HETATM   20  C1  UNL     1      14.732 -13.473  14.046  1.00  0.00     0.204 C 
ENDBRANCH  18  19
ENDBRANCH  17  18
ENDBRANCH   1  17
TORSDOF 7
ENDMDL
MODEL 2
REMARK VINA RESULT: -7.239813818      0.955      1.599
REMARK  7 active torsions:
REMARK  status: ('A' for Active; 'I' for Inactive)
REMARK    1  A    between atoms: O1_2  and  C2_3 
REMARK    2  A    between atoms: C2_3  and  O2_4 
REMARK    3  A    between atoms: O2_4  and  C3_5 
REMARK    4  A    between atoms: C5_8  and  S1_9 
REMARK    5  A    between atoms: C7_11  and  O4_12 
REMARK    6  A    between atoms: O4_12  and  C8_13 
REMARK    7  A    between atoms: C8_13  and  C9_14 
ROOT
HETATM    1  C3  UNL     1      17.320 -13.350  16.710  1.00  0.00     0.289 C 
HETATM    2  C4  UNL     1      18.531 -13.969  17.355  1.00  0.00     0.230 C 
HETATM    3  O3  UNL     1      18.412 -14.109  18.720  1.00  0.00    -0.366 OA
HETATM    4  C5  UNL     1      18.206 -12.870  19.279  1.00  0.00     0.237 C 
HETATM    5  C7  UNL     1      16.932 -12.296  18.737  1.00  0.00     0.302 C 
HETATM    6  O5  UNL     1      16.882 -12.232  17.366  1.00  0.00    -0.326 OA
ENDROOT
BRANCH   5   7
HETATM    7  O4  UNL     1      16.821 -10.989  19.225  1.00  0.00    -0.353 OA
BRANCH   7   8
HETATM    8  C8  UNL     1      15.582 -10.757  19.824  1.00  0.00     0.209 C 
BRANCH   8   9
HETATM    9  C9  UNL     1      15.830  -9.891  21.006  1.00  0.00    -0.035 A 
HETATM   10  C10 UNL     1      14.766  -9.425  21.755  1.00  0.00     0.009 A 
HETATM   11  C11 UNL     1      15.067  -8.625  22.838  1.00  0.00     0.001 A 
HETATM   12  C12 UNL     1      16.361  -8.312  23.152  1.00  0.00     0.000 A 
HETATM   13  C13 UNL     1      17.422  -8.780  22.402  1.00  0.00     0.001 A 
HETATM   14  C14 UNL     1      17.136  -9.578  21.317  1.00  0.00     0.009 A 
ENDBRANCH   8   9
ENDBRANCH   7   8
ENDBRANCH   5   7
BRANCH   4  15
HETATM   15  S1  UNL     1      19.596 -11.736  19.010  1.00  0.00    -0.137 SA
HETATM   16  C6  UNL     1      20.340 -11.211  20.559  1.00  0.00     0.092 C 
ENDBRANCH   4  15
BRANCH   1  17
HETATM   17  O2  UNL     1      16.297 -14.199  16.458  1.00  0.00    -0.335 OA
BRANCH  17  18
HETATM   18  C2  UNL     1      16.221 -14.834  15.275  1.00  0.00     0.340 C 
BRANCH  18  19
HETATM   19  O1  UNL     1      15.045 -14.715  14.557  1.00  0.00    -0.372 OA
HETATM   20  C1  UNL     1      14.721 -13.451  14.150  1.00  0.00     0.204 C 
ENDBRANCH  18  19
ENDBRANCH  17  18
ENDBRANCH   1  17
TORSDOF 7
ENDMDL
MODEL 3
REMARK VINA RESULT: -7.239005132      0.070      1.079
REMARK  7 active torsions:
REMARK  status: ('A' for Active; 'I' for Inactive)
REMARK    1  A    between atoms: O1_2  and  C2_3 
REMARK    2  A    between atoms: C2_3  and  O2_4 
REMARK    3  A    between atoms: O2_4  and  C3_5 
REMARK    4  A    between atoms: C5_8  and  S1_9 
REMARK    5  A    between atoms: C7_11  and  O4_12 
REMARK    6  A    between atoms: O4_12  and  C8_13 
REMARK    7  A    between atoms: C8_13  and  C9_14 
ROOT
HETATM    1  C3  UNL     1      17.430 -13.732  16.516  1.00  0.00     0.289 C 
HETATM    2  C4  UNL     1      18.686 -13.968  17.312  1.00  0.00     0.230 C 
HETATM    3  O3  UNL     1      18.459 -14.102  18.664  1.00  0.00    -0.366 OA
HETATM    4  C5  UNL     1      17.858 -12.956  19.130  1.00  0.00     0.237 C 
HETATM    5  C7  UNL     1      16.543 -12.778  18.434  1.00  0.00     0.302 C 
HETATM    6  O5  UNL     1      16.630 -12.766  17.063  1.00  0.00    -0.326 OA
ENDROOT
BRANCH   5   7
HETATM    7  O4  UNL     1      16.021 -11.543  18.834  1.00  0.00    -0.353 OA
BRANCH   7   8
HETATM    8  C8  UNL     1      14.740 -11.666  19.374  1.00  0.00     0.209 C 
BRANCH   8   9
HETATM    9  C9  UNL     1      14.642 -10.678  20.480  1.00  0.00    -0.035 A 
HETATM   10  C10 UNL     1      13.445 -10.510  21.150  1.00  0.00     0.009 A 
HETATM   11  C11 UNL     1      13.423  -9.576  22.165  1.00  0.00     0.001 A 
HETATM   12  C12 UNL     1      14.538  -8.853  22.490  1.00  0.00     0.000 A 
HETATM   13  C13 UNL     1      15.733  -9.024  21.819  1.00  0.00     0.001 A 
HETATM   14  C14 UNL     1      15.769  -9.953  20.803  1.00  0.00     0.009 A 
ENDBRANCH   8   9
ENDBRANCH   7   8
ENDBRANCH   5   7
BRANCH   4  15
HETATM   15  S1  UNL     1      18.900 -11.485  18.938  1.00  0.00    -0.137 SA
HETATM   16  C6  UNL     1      19.312 -10.745  20.523  1.00  0.00     0.092 C 
ENDBRANCH   4  15
BRANCH   1  17
HETATM   17  O2  UNL     1      16.717 -14.840  16.212  1.00  0.00    -0.335 OA
BRANCH  17  18
HETATM   18  C2  UNL     1      15.412 -14.741  15.902  1.00  0.00     0.340 C 
BRANCH  18  19
HETATM   19  O1  UNL     1      15.072 -14.699  14.561  1.00  0.00    -0.372 OA
HETATM   20  C1  UNL     1      14.728 -13.470  14.073  1.00  0.00     0.204 C 
ENDBRANCH  18  19
ENDBRANCH  17  18
ENDBRANCH   1  17
TORSDOF 7
ENDMDL
MODEL 4
REMARK VINA RESULT: -7.237836089      0.962      1.231
REMARK  7 active torsions:
REMARK  status: ('A' for Active; 'I' for Inactive)
REMARK    1  A    between atoms: O1_2  and  C2_3 
REMARK    2  A    between atoms: C2_3  and  O2_4 
REMARK    3  A    between atoms: O2_4  and  C3_5 
REMARK    4  A    between atoms: C5_8  and  S1_9 
REMARK    5  A    between atoms: C7_11  and  O4_12 
REMARK    6  A    between atoms: O4_12  and  C8_13 
REMARK    7  A    between atoms: C8_13  and  C9_14 
ROOT
HETATM    1  C3  UNL     1      17.277 -13.382  16.699  1.00  0.00     0.289 C 
HETATM    2  C4  UNL     1      18.488 -13.992  17.353  1.00  0.00     0.230 C 
HETATM    3  O3  UNL     1      18.372 -14.103  18.721  1.00  0.00    -0.366 OA
HETATM    4  C5  UNL     1      18.174 -12.850  19.254  1.00  0.00     0.237 C 
HETATM    5  C7  UNL     1      16.901 -12.283  18.704  1.00  0.00     0.302 C 
HETATM    6  O5  UNL     1      16.846 -12.249  17.332  1.00  0.00    -0.326 OA
ENDROOT
BRANCH   5   7
HETATM    7  O4  UNL     1      16.797 -10.965  19.163  1.00  0.00    -0.353 OA
BRANCH   7   8
HETATM    8  C8  UNL     1      15.594 -10.737  19.834  1.00  0.00     0.209 C 
BRANCH   8   9
HETATM    9  C9  UNL     1      15.910  -9.875  21.003  1.00  0.00    -0.035 A 
HETATM   10  C10 UNL     1      17.225  -9.573  21.302  1.00  0.00     0.009 A 
HETATM   11  C11 UNL     1      17.447  -8.769  22.401  1.00  0.00     0.001 A 
HETATM   12  C12 UNL     1      16.410  -8.296  23.156  1.00  0.00     0.000 A 
HETATM   13  C13 UNL     1      15.097  -8.599  22.854  1.00  0.00     0.001 A 
HETATM   14  C14 UNL     1      14.861  -9.401  21.760  1.00  0.00     0.009 A 
ENDBRANCH   8   9
ENDBRANCH   7   8
ENDBRANCH   5   7
BRANCH   4  15
HETATM   15  S1  UNL     1      19.567 -11.729  18.956  1.00  0.00    -0.137 SA
HETATM   16  C6  UNL     1      20.414 -11.293  20.480  1.00  0.00     0.092 C 
ENDBRANCH   4  15
BRANCH   1  17
HETATM   17  O2  UNL     1      16.250 -14.232  16.469  1.00  0.00    -0.335 OA
BRANCH  17  18
HETATM   18  C2  UNL     1      16.150 -14.869  15.289  1.00  0.00     0.340 C 
BRANCH  18  19
HETATM   19  O1  UNL     1      14.983 -14.701  14.565  1.00  0.00    -0.372 OA
HETATM   20  C1  UNL     1      14.710 -13.424  14.164  1.00  0.00     0.204 C 
ENDBRANCH  18  19
ENDBRANCH  17  18
ENDBRANCH   1  17
TORSDOF 7
ENDMDL
MODEL 5
REMARK VINA RESULT: -7.108566384      1.542      2.165
REMARK  7 active torsions:
REMARK  status: ('A' for Active; 'I' for Inactive)
REMARK    1  A    between atoms: O1_2  and  C2_3 
REMARK    2  A    between atoms: C2_3  and  O2_4 
REMARK    3  A    between atoms: O2_4  and  C3_5 
REMARK    4  A    between atoms: C5_8  and  S1_9 
REMARK    5  A    between atoms: C7_11  and  O4_12 
REMARK    6  A    between atoms: O4_12  and  C8_13 
REMARK    7  A    between atoms: C8_13  and  C9_14 
ROOT
HETATM    1  C3  UNL     1      16.037 -12.808  16.967  1.00  0.00     0.289 C 
HETATM    2  C4  UNL     1      17.018 -13.929  16.745  1.00  0.00     0.230 C 
HETATM    3  O3  UNL     1      17.415 -14.546  17.911  1.00  0.00    -0.366 OA
HETATM    4  C5  UNL     1      18.000 -13.612  18.733  1.00  0.00     0.237 C 
HETATM    5  C7  UNL     1      16.991 -12.554  19.064  1.00  0.00     0.302 C 
HETATM    6  O5  UNL     1      16.422 -11.957  17.967  1.00  0.00    -0.326 OA
ENDROOT
BRANCH   5   7
HETATM    7  O4  UNL     1      17.652 -11.558  19.791  1.00  0.00    -0.353 OA
BRANCH   7   8
HETATM    8  C8  UNL     1      17.138 -10.288  19.527  1.00  0.00     0.209 C 
BRANCH   8   9
HETATM    9  C9  UNL     1      16.845  -9.660  20.841  1.00  0.00    -0.035 A 
HETATM   10  C10 UNL     1      17.883  -9.281  21.671  1.00  0.00     0.009 A 
HETATM   11  C11 UNL     1      17.541  -8.705  22.877  1.00  0.00     0.001 A 
HETATM   12  C12 UNL     1      16.233  -8.519  23.230  1.00  0.00     0.000 A 
HETATM   13  C13 UNL     1      15.198  -8.898  22.399  1.00  0.00     0.001 A 
HETATM   14  C14 UNL     1      15.525  -9.475  21.192  1.00  0.00     0.009 A 
ENDBRANCH   8   9
ENDBRANCH   7   8
ENDBRANCH   5   7
BRANCH   4  15
HETATM   15  S1  UNL     1      19.497 -12.881  18.016  1.00  0.00    -0.137 SA
HETATM   16  C6  UNL     1      20.650 -14.138  17.450  1.00  0.00     0.092 C 
ENDBRANCH   4  15
BRANCH   1  17
HETATM   17  O2  UNL     1      14.747 -13.186  17.119  1.00  0.00    -0.335 OA
BRANCH  17  18
HETATM   18  C2  UNL     1      13.872 -13.024  16.112  1.00  0.00     0.340 C 
BRANCH  18  19
HETATM   19  O1  UNL     1      13.955 -13.897  15.042  1.00  0.00    -0.372 OA
HETATM   20  C1  UNL     1      14.613 -13.427  13.940  1.00  0.00     0.204 C 
ENDBRANCH  18  19
ENDBRANCH  17  18
ENDBRANCH   1  17
TORSDOF 7
ENDMDL
