MODEL 1
REMARK VINA RESULT: -7.527156323      0.000      0.000
REMARK  11 active torsions:
REMARK  status: ('A' for Active; 'I' for Inactive)
REMARK    1  A    between atoms: O1_2  and  C2_3 
REMARK    2  A    between atoms: C2_3  and  C3_5 
REMARK    3  A    between atoms: C3_5  and  C4_6 
REMARK    4  A    between atoms: C3_5  and  C11_19 
REMARK    5  A    between atoms: C4_6  and  N1_7 
REMARK    6  A    between atoms: N1_7  and  O3_9 
REMARK    7  A    between atoms: O3_9  and  C5_10 
REMARK    8  A    between atoms: C5_10  and  C6_11 
REMARK    9  A    between atoms: C6_11  and  O4_14 
REMARK   10  A    between atoms: O4_14  and  C8_15 
REMARK   11  A    between atoms: C8_15  and  C9_16 
ROOT
HETATM    1  C6  UNL     1      15.351 -13.000  16.525  1.00  0.00     0.253 C 
HETATM    2  C7  UNL     1      14.883 -13.606  15.245  1.00  0.00     0.093 C 
HETATM    3  N2  UNL     1      14.577 -14.075  14.265  1.00  0.00    -0.194 NA
ENDROOT
BRANCH   1   4
HETATM    4  C5  UNL     1      14.278 -12.214  17.141  1.00  0.00     0.248 C 
BRANCH   4   5
HETATM    5  O3  UNL     1      14.667 -12.153  18.548  1.00  0.00    -0.269 OA
BRANCH   5   6
HETATM    6  N1  UNL     1      15.718 -11.527  18.828  1.00  0.00    -0.230 N 
ATOM      7  H1  UNL     1      16.356 -11.766  18.070  1.00  0.00     0.204 HD
BRANCH   6   8
HETATM    8  C4  UNL     1      16.346 -10.810  19.510  1.00  0.00    -0.001 C 
BRANCH   8   9
HETATM    9  C3  UNL     1      16.693  -9.990  20.560  1.00  0.00     0.114 C 
BRANCH   9  10
HETATM   10  C2  UNL     1      15.598  -9.345  21.132  1.00  0.00     0.303 C 
HETATM   11  O2  UNL     1      15.539  -8.122  21.470  1.00  0.00    -0.258 OA
BRANCH  10  12
HETATM   12  O1  UNL     1      14.393 -10.031  21.402  1.00  0.00    -0.322 OA
HETATM   13  C1  UNL     1      13.338  -9.395  22.114  1.00  0.00     0.213 C 
ENDBRANCH  10  12
ENDBRANCH   9  10
BRANCH   9  14
HETATM   14  C11 UNL     1      18.084 -10.119  20.844  1.00  0.00    -0.011 A 
HETATM   15  C12 UNL     1      18.662  -9.495  21.908  1.00  0.00     0.013 A 
HETATM   16  C13 UNL     1      19.974  -9.731  22.276  1.00  0.00     0.001 A 
HETATM   17  C14 UNL     1      20.745 -10.636  21.552  1.00  0.00     0.000 A 
HETATM   18  C15 UNL     1      20.188 -11.272  20.475  1.00  0.00     0.001 A 
HETATM   19  C16 UNL     1      18.891 -11.013  20.135  1.00  0.00     0.013 A 
ENDBRANCH   9  14
ENDBRANCH   8   9
ENDBRANCH   6   8
ENDBRANCH   5   6
ENDBRANCH   4   5
ENDBRANCH   1   4
BRANCH   1  20
HETATM   20  O4  UNL     1      16.173 -13.843  17.162  1.00  0.00    -0.367 OA
BRANCH  20  21
HETATM   21  C8  UNL     1      17.442 -13.763  16.565  1.00  0.00     0.203 C 
BRANCH  21  22
HETATM   22  C9  UNL     1      18.578 -13.837  17.514  1.00  0.00     0.169 A 
HETATM   23  C10 UNL     1      19.881 -13.211  17.232  1.00  0.00     0.202 A 
HETATM   24  O5  UNL     1      19.685 -14.623  17.144  1.00  0.00    -0.379 OA
ENDBRANCH  21  22
ENDBRANCH  20  21
ENDBRANCH   1  20
TORSDOF 11
ENDMDL
MODEL 2
REMARK VINA RESULT: -7.354232245      1.847      2.793
REMARK  11 active torsions:
REMARK  status: ('A' for Active; 'I' for Inactive)
REMARK    1  A    between atoms: O1_2  and  C2_3 
REMARK    2  A    between atoms: C2_3  and  C3_5 
REMARK    3  A    between atoms: C3_5  and  C4_6 
REMARK    4  A    between atoms: C3_5  and  C11_19 
REMARK    5  A    between atoms: C4_6  and  N1_7 
REMARK    6  A    between atoms: N1_7  and  O3_9 
REMARK    7  A    between atoms: O3_9  and  C5_10 
REMARK    8  A    between atoms: C5_10  and  C6_11 
REMARK    9  A    between atoms: C6_11  and  O4_14 
REMARK   10  A    between atoms: O4_14  and  C8_15 
REMARK   11  A    between atoms: C8_15  and  C9_16 
ROOT
HETATM    1  C6  UNL     1      16.842 -13.506  18.017  1.00  0.00     0.253 C 
HETATM    2  C7  UNL     1      18.074 -13.429  18.853  1.00  0.00     0.093 C 
HETATM    3  N2  UNL     1      19.004 -13.421  19.494  1.00  0.00    -0.194 NA
ENDROOT
BRANCH   1   4
HETATM    4  C5  UNL     1      16.306 -12.163  17.770  1.00  0.00     0.248 C 
BRANCH   4   5
HETATM    5  O3  UNL     1      15.221 -12.047  18.742  1.00  0.00    -0.269 OA
BRANCH   5   6
HETATM    6  N1  UNL     1      15.246 -11.060  19.517  1.00  0.00    -0.230 N 
ATOM      7  H1  UNL     1      14.284 -10.720  19.512  1.00  0.00     0.204 HD
BRANCH   6   8
HETATM    8  C4  UNL     1      15.801 -10.328  20.244  1.00  0.00    -0.001 C 
BRANCH   8   9
HETATM    9  C3  UNL     1      16.030  -9.461  21.289  1.00  0.00     0.114 C 
BRANCH   9  10
HETATM   10  C2  UNL     1      14.857  -8.929  21.823  1.00  0.00     0.303 C 
HETATM   11  O2  UNL     1      14.673  -7.725  22.181  1.00  0.00    -0.258 OA
BRANCH  10  12
HETATM   12  O1  UNL     1      13.707  -9.726  22.023  1.00  0.00    -0.322 OA
HETATM   13  C1  UNL     1      12.431  -9.126  22.211  1.00  0.00     0.213 C 
ENDBRANCH  10  12
ENDBRANCH   9  10
BRANCH   9  14
HETATM   14  C11 UNL     1      17.418  -9.438  21.611  1.00  0.00    -0.011 A 
HETATM   15  C12 UNL     1      17.890  -8.788  22.712  1.00  0.00     0.013 A 
HETATM   16  C13 UNL     1      19.210  -8.883  23.112  1.00  0.00     0.001 A 
HETATM   17  C14 UNL     1      20.101  -9.667  22.384  1.00  0.00     0.000 A 
HETATM   18  C15 UNL     1      19.652 -10.325  21.271  1.00  0.00     0.001 A 
HETATM   19  C16 UNL     1      18.343 -10.207  20.900  1.00  0.00     0.013 A 
ENDBRANCH   9  14
ENDBRANCH   8   9
ENDBRANCH   6   8
ENDBRANCH   5   6
ENDBRANCH   4   5
ENDBRANCH   1   4
BRANCH   1  20
HETATM   20  O4  UNL     1      16.958 -14.483  17.110  1.00  0.00    -0.367 OA
BRANCH  20  21
HETATM   21  C8  UNL     1      15.738 -14.603  16.425  1.00  0.00     0.203 C 
BRANCH  21  22
HETATM   22  C9  UNL     1      15.845 -14.517  14.949  1.00  0.00     0.169 A 
HETATM   23  C10 UNL     1      15.565 -13.273  14.212  1.00  0.00     0.202 A 
HETATM   24  O5  UNL     1      14.652 -14.371  14.217  1.00  0.00    -0.379 OA
ENDBRANCH  21  22
ENDBRANCH  20  21
ENDBRANCH   1  20
TORSDOF 11
ENDMDL
MODEL 3
REMARK VINA RESULT: -7.265746909      4.134      7.236
REMARK  11 active torsions:
REMARK  status: ('A' for Active; 'I' for Inactive)
REMARK    1  A    between atoms: O1_2  and  C2_3 
REMARK    2  A    between atoms: C2_3  and  C3_5 
REMARK    3  A    between atoms: C3_5  and  C4_6 
REMARK    4  A    between atoms: C3_5  and  C11_19 
REMARK    5  A    between atoms: C4_6  and  N1_7 
REMARK    6  A    between atoms: N1_7  and  O3_9 
REMARK    7  A    between atoms: O3_9  and  C5_10 
REMARK    8  A    between atoms: C5_10  and  C6_11 
REMARK    9  A    between atoms: C6_11  and  O4_14 
REMARK   10  A    between atoms: O4_14  and  C8_15 
REMARK   11  A    between atoms: C8_15  and  C9_16 
ROOT
HETATM    1  C6  UNL     1      11.657  -7.573  22.275  1.00  0.00     0.253 C 
HETATM    2  C7  UNL     1      10.347  -8.100  21.794  1.00  0.00     0.093 C 
HETATM    3  N2  UNL     1       9.344  -8.451  21.414  1.00  0.00    -0.194 NA
ENDROOT
BRANCH   1   4
HETATM    4  C5  UNL     1      12.302  -8.543  23.166  1.00  0.00     0.248 C 
BRANCH   4   5
HETATM    5  O3  UNL     1      12.692  -9.625  22.266  1.00  0.00    -0.269 OA
BRANCH   5   6
HETATM    6  N1  UNL     1      13.782  -9.503  21.656  1.00  0.00    -0.230 N 
ATOM      7  H1  UNL     1      13.514  -9.493  20.672  1.00  0.00     0.204 HD
BRANCH   6   8
HETATM    8  C4  UNL     1      14.949  -9.395  21.632  1.00  0.00    -0.001 C 
BRANCH   8   9
HETATM    9  C3  UNL     1      16.214  -8.916  21.888  1.00  0.00     0.114 C 
BRANCH   9  10
HETATM   10  C2  UNL     1      16.244  -7.982  22.922  1.00  0.00     0.303 C 
HETATM   11  O2  UNL     1      15.787  -8.146  24.096  1.00  0.00    -0.258 OA
BRANCH  10  12
HETATM   12  O1  UNL     1      16.815  -6.702  22.747  1.00  0.00    -0.322 OA
HETATM   13  C1  UNL     1      18.022  -6.346  23.413  1.00  0.00     0.213 C 
ENDBRANCH  10  12
ENDBRANCH   9  10
BRANCH   9  14
HETATM   14  C11 UNL     1      17.171  -9.605  21.086  1.00  0.00    -0.011 A 
HETATM   15  C12 UNL     1      18.469  -9.742  21.474  1.00  0.00     0.013 A 
HETATM   16  C13 UNL     1      19.366 -10.531  20.778  1.00  0.00     0.001 A 
HETATM   17  C14 UNL     1      18.947 -11.222  19.644  1.00  0.00     0.000 A 
HETATM   18  C15 UNL     1      17.647 -11.096  19.231  1.00  0.00     0.001 A 
HETATM   19  C16 UNL     1      16.789 -10.305  19.938  1.00  0.00     0.013 A 
ENDBRANCH   9  14
ENDBRANCH   8   9
ENDBRANCH   6   8
ENDBRANCH   5   6
ENDBRANCH   4   5
ENDBRANCH   1   4
BRANCH   1  20
HETATM   20  O4  UNL     1      12.260  -6.877  21.304  1.00  0.00    -0.367 OA
BRANCH  20  21
HETATM   21  C8  UNL     1      11.466  -5.759  20.998  1.00  0.00     0.203 C 
BRANCH  21  22
HETATM   22  C9  UNL     1      11.725  -4.567  21.839  1.00  0.00     0.169 A 
HETATM   23  C10 UNL     1      11.333  -3.210  21.422  1.00  0.00     0.202 A 
HETATM   24  O5  UNL     1      12.691  -3.649  21.388  1.00  0.00    -0.379 OA
ENDBRANCH  21  22
ENDBRANCH  20  21
ENDBRANCH   1  20
TORSDOF 11
ENDMDL
MODEL 4
REMARK VINA RESULT: -7.215432536      4.119      6.634
REMARK  11 active torsions:
REMARK  status: ('A' for Active; 'I' for Inactive)
REMARK    1  A    between atoms: O1_2  and  C2_3 
REMARK    2  A    between atoms: C2_3  and  C3_5 
REMARK    3  A    between atoms: C3_5  and  C4_6 
REMARK    4  A    between atoms: C3_5  and  C11_19 
REMARK    5  A    between atoms: C4_6  and  N1_7 
REMARK    6  A    between atoms: N1_7  and  O3_9 
REMARK    7  A    between atoms: O3_9  and  C5_10 
REMARK    8  A    between atoms: C5_10  and  C6_11 
REMARK    9  A    between atoms: C6_11  and  O4_14 
REMARK   10  A    between atoms: O4_14  and  C8_15 
REMARK   11  A    between atoms: C8_15  and  C9_16 
ROOT
HETATM    1  C6  UNL     1      10.519  -9.896  21.782  1.00  0.00     0.253 C 
HETATM    2  C7  UNL     1       9.339 -10.001  20.876  1.00  0.00     0.093 C 
HETATM    3  N2  UNL     1       8.417 -10.085  20.231  1.00  0.00    -0.194 NA
ENDROOT
BRANCH   1   4
HETATM    4  C5  UNL     1      11.763 -10.066  21.025  1.00  0.00     0.248 C 
BRANCH   4   5
HETATM    5  O3  UNL     1      12.798 -10.017  22.055  1.00  0.00    -0.269 OA
BRANCH   5   6
HETATM    6  N1  UNL     1      13.830  -9.350  21.803  1.00  0.00    -0.230 N 
ATOM      7  H1  UNL     1      13.470  -8.461  21.454  1.00  0.00     0.204 HD
BRANCH   6   8
HETATM    8  C4  UNL     1      14.994  -9.218  21.761  1.00  0.00    -0.001 C 
BRANCH   8   9
HETATM    9  C3  UNL     1      16.264  -8.788  22.074  1.00  0.00     0.114 C 
BRANCH   9  10
HETATM   10  C2  UNL     1      16.288  -7.888  23.137  1.00  0.00     0.303 C 
HETATM   11  O2  UNL     1      16.494  -8.172  24.358  1.00  0.00    -0.258 OA
BRANCH  10  12
HETATM   12  O1  UNL     1      16.074  -6.505  22.941  1.00  0.00    -0.322 OA
HETATM   13  C1  UNL     1      15.788  -5.650  24.042  1.00  0.00     0.213 C 
ENDBRANCH  10  12
ENDBRANCH   9  10
BRANCH   9  14
HETATM   14  C11 UNL     1      17.225  -9.482  21.282  1.00  0.00    -0.011 A 
HETATM   15  C12 UNL     1      18.518  -9.628  21.684  1.00  0.00     0.013 A 
HETATM   16  C13 UNL     1      19.417 -10.422  20.996  1.00  0.00     0.001 A 
HETATM   17  C14 UNL     1      19.007 -11.109  19.858  1.00  0.00     0.000 A 
HETATM   18  C15 UNL     1      17.713 -10.975  19.430  1.00  0.00     0.001 A 
HETATM   19  C16 UNL     1      16.851 -10.179  20.129  1.00  0.00     0.013 A 
ENDBRANCH   9  14
ENDBRANCH   8   9
ENDBRANCH   6   8
ENDBRANCH   5   6
ENDBRANCH   4   5
ENDBRANCH   1   4
BRANCH   1  20
HETATM   20  O4  UNL     1      10.295  -8.976  22.727  1.00  0.00    -0.367 OA
BRANCH  20  21
HETATM   21  C8  UNL     1      10.293  -7.708  22.122  1.00  0.00     0.203 C 
BRANCH  21  22
HETATM   22  C9  UNL     1      11.237  -6.734  22.722  1.00  0.00     0.169 A 
HETATM   23  C10 UNL     1      11.631  -5.494  22.033  1.00  0.00     0.202 A 
HETATM   24  O5  UNL     1      12.510  -6.615  22.134  1.00  0.00    -0.379 OA
ENDBRANCH  21  22
ENDBRANCH  20  21
ENDBRANCH   1  20
TORSDOF 11
ENDMDL
MODEL 5
REMARK VINA RESULT: -7.203747638      1.728      4.638
REMARK  11 active torsions:
REMARK  status: ('A' for Active; 'I' for Inactive)
REMARK    1  A    between atoms: O1_2  and  C2_3 
REMARK    2  A    between atoms: C2_3  and  C3_5 
REMARK    3  A    between atoms: C3_5  and  C4_6 
REMARK    4  A    between atoms: C3_5  and  C11_19 
REMARK    5  A    between atoms: C4_6  and  N1_7 
REMARK    6  A    between atoms: N1_7  and  O3_9 
REMARK    7  A    between atoms: O3_9  and  C5_10 
REMARK    8  A    between atoms: C5_10  and  C6_11 
REMARK    9  A    between atoms: C6_11  and  O4_14 
REMARK   10  A    between atoms: O4_14  and  C8_15 
REMARK   11  A    between atoms: C8_15  and  C9_16 
ROOT
HETATM    1  C6  UNL     1      15.816 -13.437  16.427  1.00  0.00     0.253 C 
HETATM    2  C7  UNL     1      15.128 -13.817  15.159  1.00  0.00     0.093 C 
HETATM    3  N2  UNL     1      14.565 -14.086  14.219  1.00  0.00    -0.194 NA
ENDROOT
BRANCH   1   4
HETATM    4  C5  UNL     1      17.119 -14.102  16.522  1.00  0.00     0.248 C 
BRANCH   4   5
HETATM    5  O3  UNL     1      17.239 -14.414  17.944  1.00  0.00    -0.269 OA
BRANCH   5   6
HETATM    6  N1  UNL     1      17.722 -13.529  18.690  1.00  0.00    -0.230 N 
ATOM      7  H1  UNL     1      16.993 -13.368  19.385  1.00  0.00     0.204 HD
BRANCH   6   8
HETATM    8  C4  UNL     1      18.577 -12.790  19.002  1.00  0.00    -0.001 C 
BRANCH   8   9
HETATM    9  C3  UNL     1      19.781 -12.123  19.001  1.00  0.00     0.114 C 
BRANCH   9  10
HETATM   10  C2  UNL     1      20.564 -12.413  17.885  1.00  0.00     0.303 C 
HETATM   11  O2  UNL     1      20.548 -13.494  17.217  1.00  0.00    -0.258 OA
BRANCH  10  12
HETATM   12  O1  UNL     1      21.494 -11.482  17.370  1.00  0.00    -0.322 OA
HETATM   13  C1  UNL     1      21.805 -11.456  15.982  1.00  0.00     0.213 C 
ENDBRANCH  10  12
ENDBRANCH   9  10
BRANCH   9  14
HETATM   14  C11 UNL     1      19.842 -11.221  20.103  1.00  0.00    -0.011 A 
HETATM   15  C12 UNL     1      18.773 -10.464  20.474  1.00  0.00     0.013 A 
HETATM   16  C13 UNL     1      18.776  -9.699  21.626  1.00  0.00     0.001 A 
HETATM   17  C14 UNL     1      19.897  -9.693  22.451  1.00  0.00     0.000 A 
HETATM   18  C15 UNL     1      20.988 -10.442  22.097  1.00  0.00     0.001 A 
HETATM   19  C16 UNL     1      20.953 -11.182  20.950  1.00  0.00     0.013 A 
ENDBRANCH   9  14
ENDBRANCH   8   9
ENDBRANCH   6   8
ENDBRANCH   5   6
ENDBRANCH   4   5
ENDBRANCH   1   4
BRANCH   1  20
HETATM   20  O4  UNL     1      15.564 -12.157  16.723  1.00  0.00    -0.367 OA
BRANCH  20  21
HETATM   21  C8  UNL     1      14.396 -12.101  17.502  1.00  0.00     0.203 C 
BRANCH  21  22
HETATM   22  C9  UNL     1      14.613 -12.270  18.958  1.00  0.00     0.169 A 
HETATM   23  C10 UNL     1      14.055 -11.336  19.950  1.00  0.00     0.202 A 
HETATM   24  O5  UNL     1      15.440 -11.333  19.605  1.00  0.00    -0.379 OA
ENDBRANCH  21  22
ENDBRANCH  20  21
ENDBRANCH   1  20
TORSDOF 11
ENDMDL
