MODEL 1
REMARK VINA RESULT: -7.106062627      0.000      0.000
REMARK  7 active torsions:
REMARK  status: ('A' for Active; 'I' for Inactive)
REMARK    1  A    between atoms: N1_2  and  C2_3 
REMARK    2  A    between atoms: N1_2  and  C11_17 
REMARK    3  A    between atoms: C2_3  and  C3_4 
REMARK    4  A    between atoms: C5_6  and  C6_7 
REMARK    5  A    between atoms: C6_7  and  O1_8 
REMARK    6  A    between atoms: O1_8  and  C7_9 
REMARK    7  A    between atoms: C11_17  and  C12_18 
ROOT
HETATM    1  C3  UNL     1      15.438 -11.321  19.479  1.00  0.00     0.106 A 
HETATM    2  C4  UNL     1      15.611 -10.296  20.371  1.00  0.00     0.066 A 
HETATM    3  C5  UNL     1      14.389 -10.147  21.058  1.00  0.00     0.058 A 
HETATM    4  N2  UNL     1      13.584 -11.064  20.547  1.00  0.00    -0.263 N 
ATOM      5  H2  UNL     1      12.617 -11.220  20.829  1.00  0.00     0.194 HD
HETATM    6  O3  UNL     1      14.218 -11.742  19.622  1.00  0.00    -0.240 OA
ENDROOT
BRANCH   1   7
HETATM    7  C2  UNL     1      16.441 -11.851  18.537  1.00  0.00     0.339 C 
BRANCH   7   8
HETATM    8  N1  UNL     1      16.886 -13.205  18.921  1.00  0.00     0.092 N 
HETATM    9  C1  UNL     1      18.306 -13.071  19.354  1.00  0.00     0.310 C 
BRANCH   8  10
HETATM   10  C11 UNL     1      17.032 -13.945  17.661  1.00  0.00     0.306 C 
BRANCH  10  11
HETATM   11  C12 UNL     1      16.019 -13.585  16.654  1.00  0.00     0.173 C 
HETATM   12  C13 UNL     1      16.620 -13.396  15.258  1.00  0.00     0.201 C 
HETATM   13  O4  UNL     1      15.750 -12.522  14.580  1.00  0.00    -0.386 OA
HETATM   14  C14 UNL     1      14.518 -13.160  14.459  1.00  0.00     0.193 C 
HETATM   15  C15 UNL     1      13.984 -13.700  15.742  1.00  0.00     0.194 C 
HETATM   16  O5  UNL     1      14.900 -14.345  16.548  1.00  0.00    -0.380 OA
ENDBRANCH  10  11
ENDBRANCH   8  10
ENDBRANCH   7   8
ENDBRANCH   1   7
BRANCH   3  17
HETATM   17  C6  UNL     1      14.103  -9.215  22.149  1.00  0.00     0.227 C 
BRANCH  17  18
HETATM   18  O1  UNL     1      14.952  -8.152  22.239  1.00  0.00    -0.378 OA
BRANCH  18  19
HETATM   19  C7  UNL     1      15.648  -8.163  23.424  1.00  0.00     0.147 C 
HETATM   20  C8  UNL     1      17.133  -8.385  23.191  1.00  0.00     0.060 C 
HETATM   21  C9  UNL     1      17.662  -6.958  23.095  1.00  0.00     0.170 C 
HETATM   22  O2  UNL     1      16.519  -6.142  22.974  1.00  0.00    -0.389 OA
HETATM   23  C10 UNL     1      15.673  -6.707  23.913  1.00  0.00     0.199 C 
ENDBRANCH  18  19
ENDBRANCH  17  18
ENDBRANCH   3  17
TORSDOF 7
ENDMDL
MODEL 2
REMARK VINA RESULT: -7.065484857      1.888      2.781
REMARK  7 active torsions:
REMARK  status: ('A' for Active; 'I' for Inactive)
REMARK    1  A    between atoms: N1_2  and  C2_3 
REMARK    2  A    between atoms: N1_2  and  C11_17 
REMARK    3  A    between atoms: C2_3  and  C3_4 
REMARK    4  A    between atoms: C5_6  and  C6_7 
REMARK    5  A    between atoms: C6_7  and  O1_8 
REMARK    6  A    between atoms: O1_8  and  C7_9 
REMARK    7  A    between atoms: C11_17  and  C12_18 
ROOT
HETATM    1  C3  UNL     1      17.681 -10.854  19.564  1.00  0.00     0.106 A 
HETATM    2  C4  UNL     1      16.782 -10.065  20.231  1.00  0.00     0.066 A 
HETATM    3  C5  UNL     1      17.480  -9.481  21.308  1.00  0.00     0.058 A 
HETATM    4  N2  UNL     1      18.715  -9.948  21.222  1.00  0.00    -0.263 N 
ATOM      5  H2  UNL     1      19.475  -9.717  21.860  1.00  0.00     0.194 HD
HETATM    6  O3  UNL     1      18.812 -10.751  20.192  1.00  0.00    -0.240 OA
ENDROOT
BRANCH   1   7
HETATM    7  C2  UNL     1      17.420 -11.666  18.360  1.00  0.00     0.339 C 
BRANCH   7   8
HETATM    8  N1  UNL     1      16.548 -12.819  18.660  1.00  0.00     0.092 N 
HETATM    9  C1  UNL     1      17.158 -13.994  17.974  1.00  0.00     0.310 C 
BRANCH   8  10
HETATM   10  C11 UNL     1      15.332 -12.613  17.863  1.00  0.00     0.306 C 
BRANCH  10  11
HETATM   11  C12 UNL     1      15.483 -13.025  16.456  1.00  0.00     0.173 C 
HETATM   12  C13 UNL     1      14.257 -13.776  15.930  1.00  0.00     0.201 C 
HETATM   13  O4  UNL     1      14.727 -14.591  14.883  1.00  0.00    -0.386 OA
HETATM   14  C14 UNL     1      15.209 -13.755  13.879  1.00  0.00     0.193 C 
HETATM   15  C15 UNL     1      16.182 -12.731  14.357  1.00  0.00     0.194 C 
HETATM   16  O5  UNL     1      15.854 -12.098  15.538  1.00  0.00    -0.380 OA
ENDBRANCH  10  11
ENDBRANCH   8  10
ENDBRANCH   7   8
ENDBRANCH   1   7
BRANCH   3  17
HETATM   17  C6  UNL     1      16.955  -8.515  22.274  1.00  0.00     0.227 C 
BRANCH  17  18
HETATM   18  O1  UNL     1      15.679  -8.096  22.038  1.00  0.00    -0.378 OA
BRANCH  18  19
HETATM   19  C7  UNL     1      14.793  -8.654  22.928  1.00  0.00     0.147 C 
HETATM   20  C8  UNL     1      14.439  -7.680  24.040  1.00  0.00     0.060 C 
HETATM   21  C9  UNL     1      13.189  -7.002  23.489  1.00  0.00     0.170 C 
HETATM   22  O2  UNL     1      13.128  -7.375  22.131  1.00  0.00    -0.389 OA
HETATM   23  C10 UNL     1      13.444  -8.720  22.197  1.00  0.00     0.199 C 
ENDBRANCH  18  19
ENDBRANCH  17  18
ENDBRANCH   3  17
TORSDOF 7
ENDMDL
MODEL 3
REMARK VINA RESULT: -6.989361505      1.507      2.172
REMARK  7 active torsions:
REMARK  status: ('A' for Active; 'I' for Inactive)
REMARK    1  A    between atoms: N1_2  and  C2_3 
REMARK    2  A    between atoms: N1_2  and  C11_17 
REMARK    3  A    between atoms: C2_3  and  C3_4 
REMARK    4  A    between atoms: C5_6  and  C6_7 
REMARK    5  A    between atoms: C6_7  and  O1_8 
REMARK    6  A    between atoms: O1_8  and  C7_9 
REMARK    7  A    between atoms: C11_17  and  C12_18 
ROOT
HETATM    1  C3  UNL     1      16.701 -11.145  19.249  1.00  0.00     0.106 A 
HETATM    2  C4  UNL     1      17.030 -10.210  20.195  1.00  0.00     0.066 A 
HETATM    3  C5  UNL     1      15.827  -9.838  20.830  1.00  0.00     0.058 A 
HETATM    4  N2  UNL     1      14.882 -10.550  20.238  1.00  0.00    -0.263 N 
ATOM      5  H2  UNL     1      13.889 -10.513  20.467  1.00  0.00     0.194 HD
HETATM    6  O3  UNL     1      15.415 -11.310  19.315  1.00  0.00    -0.240 OA
ENDROOT
BRANCH   1   7
HETATM    7  C2  UNL     1      17.626 -11.836  18.332  1.00  0.00     0.339 C 
BRANCH   7   8
HETATM    8  N1  UNL     1      17.308 -13.273  18.220  1.00  0.00     0.092 N 
HETATM    9  C1  UNL     1      18.221 -13.978  19.165  1.00  0.00     0.310 C 
BRANCH   8  10
HETATM   10  C11 UNL     1      17.846 -13.698  16.921  1.00  0.00     0.306 C 
BRANCH  10  11
HETATM   11  C12 UNL     1      16.830 -13.737  15.856  1.00  0.00     0.173 C 
HETATM   12  C13 UNL     1      15.558 -14.475  16.284  1.00  0.00     0.201 C 
HETATM   13  O4  UNL     1      14.973 -14.953  15.097  1.00  0.00    -0.386 OA
HETATM   14  C14 UNL     1      14.617 -13.849  14.326  1.00  0.00     0.193 C 
HETATM   15  C15 UNL     1      15.720 -12.866  14.125  1.00  0.00     0.194 C 
HETATM   16  O5  UNL     1      16.477 -12.580  15.242  1.00  0.00    -0.380 OA
ENDBRANCH  10  11
ENDBRANCH   8  10
ENDBRANCH   7   8
ENDBRANCH   1   7
BRANCH   3  17
HETATM   17  C6  UNL     1      15.677  -8.906  21.948  1.00  0.00     0.227 C 
BRANCH  17  18
HETATM   18  O1  UNL     1      14.624  -8.045  21.846  1.00  0.00    -0.378 OA
BRANCH  18  19
HETATM   19  C7  UNL     1      13.642  -8.342  22.759  1.00  0.00     0.147 C 
HETATM   20  C8  UNL     1      13.991  -7.814  24.141  1.00  0.00     0.060 C 
HETATM   21  C9  UNL     1      13.331  -6.439  24.137  1.00  0.00     0.170 C 
HETATM   22  O2  UNL     1      12.975  -6.197  22.795  1.00  0.00    -0.389 OA
HETATM   23  C10 UNL     1      12.457  -7.424  22.419  1.00  0.00     0.199 C 
ENDBRANCH  18  19
ENDBRANCH  17  18
ENDBRANCH   3  17
TORSDOF 7
ENDMDL
MODEL 4
REMARK VINA RESULT: -6.986785022      1.050      1.406
REMARK  7 active torsions:
REMARK  status: ('A' for Active; 'I' for Inactive)
REMARK    1  A    between atoms: N1_2  and  C2_3 
REMARK    2  A    between atoms: N1_2  and  C11_17 
REMARK    3  A    between atoms: C2_3  and  C3_4 
REMARK    4  A    between atoms: C5_6  and  C6_7 
REMARK    5  A    between atoms: C6_7  and  O1_8 
REMARK    6  A    between atoms: O1_8  and  C7_9 
REMARK    7  A    between atoms: C11_17  and  C12_18 
ROOT
HETATM    1  C3  UNL     1      16.281 -10.743  19.825  1.00  0.00     0.106 A 
HETATM    2  C4  UNL     1      16.426  -9.762  20.770  1.00  0.00     0.066 A 
HETATM    3  C5  UNL     1      15.155  -9.569  21.349  1.00  0.00     0.058 A 
HETATM    4  N2  UNL     1      14.353 -10.419  20.730  1.00  0.00    -0.263 N 
ATOM      5  H2  UNL     1      13.357 -10.528  20.917  1.00  0.00     0.194 HD
HETATM    6  O3  UNL     1      15.032 -11.098  19.840  1.00  0.00    -0.240 OA
ENDROOT
BRANCH   1   7
HETATM    7  C2  UNL     1      17.337 -11.295  18.956  1.00  0.00     0.339 C 
BRANCH   7   8
HETATM    8  N1  UNL     1      16.946 -12.601  18.388  1.00  0.00     0.092 N 
HETATM    9  C1  UNL     1      17.790 -13.623  19.071  1.00  0.00     0.310 C 
BRANCH   8  10
HETATM   10  C11 UNL     1      17.501 -12.623  17.029  1.00  0.00     0.306 C 
BRANCH  10  11
HETATM   11  C12 UNL     1      16.527 -13.052  16.010  1.00  0.00     0.173 C 
HETATM   12  C13 UNL     1      15.087 -12.687  16.383  1.00  0.00     0.201 C 
HETATM   13  O4  UNL     1      14.270 -13.615  15.712  1.00  0.00    -0.386 OA
HETATM   14  C14 UNL     1      14.444 -13.422  14.344  1.00  0.00     0.193 C 
HETATM   15  C15 UNL     1      15.870 -13.418  13.908  1.00  0.00     0.194 C 
HETATM   16  O5  UNL     1      16.741 -12.714  14.714  1.00  0.00    -0.380 OA
ENDBRANCH  10  11
ENDBRANCH   8  10
ENDBRANCH   7   8
ENDBRANCH   1   7
BRANCH   3  17
HETATM   17  C6  UNL     1      14.820  -8.661  22.448  1.00  0.00     0.227 C 
BRANCH  17  18
HETATM   18  O1  UNL     1      15.606  -7.551  22.541  1.00  0.00    -0.378 OA
BRANCH  18  19
HETATM   19  C7  UNL     1      16.155  -7.426  23.794  1.00  0.00     0.147 C 
HETATM   20  C8  UNL     1      17.526  -8.077  23.866  1.00  0.00     0.060 C 
HETATM   21  C9  UNL     1      18.453  -6.914  23.534  1.00  0.00     0.170 C 
HETATM   22  O2  UNL     1      17.614  -5.893  23.044  1.00  0.00    -0.389 OA
HETATM   23  C10 UNL     1      16.557  -5.950  23.935  1.00  0.00     0.199 C 
ENDBRANCH  18  19
ENDBRANCH  17  18
ENDBRANCH   3  17
TORSDOF 7
ENDMDL
MODEL 5
REMARK VINA RESULT: -6.946053824      2.561      3.717
REMARK  7 active torsions:
REMARK  status: ('A' for Active; 'I' for Inactive)
REMARK    1  A    between atoms: N1_2  and  C2_3 
REMARK    2  A    between atoms: N1_2  and  C11_17 
REMARK    3  A    between atoms: C2_3  and  C3_4 
REMARK    4  A    between atoms: C5_6  and  C6_7 
REMARK    5  A    between atoms: C6_7  and  O1_8 
REMARK    6  A    between atoms: O1_8  and  C7_9 
REMARK    7  A    between atoms: C11_17  and  C12_18 
ROOT
HETATM    1  C3  UNL     1      15.476 -10.787  20.072  1.00  0.00     0.106 A 
HETATM    2  C4  UNL     1      15.123  -9.860  21.016  1.00  0.00     0.066 A 
HETATM    3  C5  UNL     1      13.761 -10.078  21.308  1.00  0.00     0.058 A 
HETATM    4  N2  UNL     1      13.395 -11.090  20.539  1.00  0.00    -0.263 N 
ATOM      5  H2  UNL     1      12.460 -11.496  20.510  1.00  0.00     0.194 HD
HETATM    6  O3  UNL     1      14.414 -11.492  19.822  1.00  0.00    -0.240 OA
ENDROOT
BRANCH   1   7
HETATM    7  C2  UNL     1      16.804 -10.959  19.455  1.00  0.00     0.339 C 
BRANCH   7   8
HETATM    8  N1  UNL     1      17.008 -12.341  18.980  1.00  0.00     0.092 N 
HETATM    9  C1  UNL     1      18.343 -12.766  19.492  1.00  0.00     0.310 C 
BRANCH   8  10
HETATM   10  C11 UNL     1      17.270 -12.230  17.539  1.00  0.00     0.306 C 
BRANCH  10  11
HETATM   11  C12 UNL     1      16.092 -12.536  16.709  1.00  0.00     0.173 C 
HETATM   12  C13 UNL     1      16.470 -12.975  15.291  1.00  0.00     0.201 C 
HETATM   13  O4  UNL     1      15.362 -12.658  14.483  1.00  0.00    -0.386 OA
HETATM   14  C14 UNL     1      14.285 -13.424  14.920  1.00  0.00     0.193 C 
HETATM   15  C15 UNL     1      14.032 -13.335  16.387  1.00  0.00     0.194 C 
HETATM   16  O5  UNL     1      15.151 -13.386  17.192  1.00  0.00    -0.380 OA
ENDBRANCH  10  11
ENDBRANCH   8  10
ENDBRANCH   7   8
ENDBRANCH   1   7
BRANCH   3  17
HETATM   17  C6  UNL     1      12.952  -9.370  22.300  1.00  0.00     0.227 C 
BRANCH  17  18
HETATM   18  O1  UNL     1      11.689  -9.856  22.470  1.00  0.00    -0.378 OA
BRANCH  18  19
HETATM   19  C7  UNL     1      10.800  -8.853  22.772  1.00  0.00     0.147 C 
HETATM   20  C8  UNL     1       9.534  -8.967  21.940  1.00  0.00     0.060 C 
HETATM   21  C9  UNL     1       8.630  -9.802  22.839  1.00  0.00     0.170 C 
HETATM   22  O2  UNL     1       9.471 -10.306  23.852  1.00  0.00    -0.389 OA
HETATM   23  C10 UNL     1      10.234  -9.193  24.159  1.00  0.00     0.199 C 
ENDBRANCH  18  19
ENDBRANCH  17  18
ENDBRANCH   3  17
TORSDOF 7
ENDMDL
