MODEL 1
REMARK VINA RESULT: -6.788533973      0.000      0.000
REMARK  8 active torsions:
REMARK  status: ('A' for Active; 'I' for Inactive)
REMARK    1  A    between atoms: C2_2  and  C3_3 
REMARK    2  A    between atoms: C3_3  and  C4_4 
REMARK    3  A    between atoms: C4_4  and  S1_5 
REMARK    4  A    between atoms: S1_5  and  C5_6 
REMARK    5  A    between atoms: C10_12  and  O1_13 
REMARK    6  A    between atoms: N3_18  and  O2_20 
REMARK    7  A    between atoms: O2_20  and  C13_21 
REMARK    8  A    between atoms: C13_21  and  O3_22 
ROOT
HETATM    1  C5  UNL     1      16.836 -12.620  16.227  1.00  0.00     0.087 C 
HETATM    2  C6  UNL     1      16.642 -13.057  14.807  1.00  0.00     0.290 C 
HETATM    3  N1  UNL     1      15.519 -13.900  14.576  1.00  0.00     0.106 N 
HETATM    4  C7  UNL     1      15.457 -15.004  15.469  1.00  0.00     0.275 C 
HETATM    5  C8  UNL     1      15.724 -14.690  16.902  1.00  0.00     0.044 C 
HETATM    6  C9  UNL     1      15.774 -13.198  17.158  1.00  0.00     0.077 C 
HETATM    7  C10 UNL     1      14.488 -12.581  16.793  1.00  0.00     0.119 C 
HETATM    8  N2  UNL     1      13.892 -12.600  15.665  1.00  0.00    -0.349 N 
ATOM      9  H2  UNL     1      13.003 -12.101  15.647  1.00  0.00     0.163 HD
HETATM   10  C12 UNL     1      14.268 -13.218  14.394  1.00  0.00     0.396 C 
ENDROOT
BRANCH   1  11
HETATM   11  S1  UNL     1      18.441 -13.115  16.894  1.00  0.00    -0.156 SA
BRANCH  11  12
HETATM   12  C4  UNL     1      18.739 -12.341  18.510  1.00  0.00     0.133 C 
BRANCH  12  13
HETATM   13  C3  UNL     1      20.149 -11.914  18.654  1.00  0.00     0.040 C 
HETATM   14  N3  UNL     1      20.864 -11.919  17.561  1.00  0.00    -0.268 N 
ATOM     15  H3  UNL     1      20.412 -12.221  16.698  1.00  0.00     0.194 HD
BRANCH  13  16
HETATM   16  C2  UNL     1      20.728 -11.497  19.924  1.00  0.00     0.017 C 
HETATM   17  C1  UNL     1      19.965 -10.887  20.808  1.00  0.00     0.013 C 
ENDBRANCH  13  16
BRANCH  14  18
HETATM   18  O2  UNL     1      22.162 -11.552  17.497  1.00  0.00    -0.254 OA
BRANCH  18  19
HETATM   19  C13 UNL     1      22.985 -11.686  16.354  1.00  0.00     0.369 C 
BRANCH  19  20
HETATM   20  O3  UNL     1      23.638 -10.486  16.181  1.00  0.00    -0.369 OA
HETATM   21  C14 UNL     1      23.319  -9.842  15.004  1.00  0.00     0.204 C 
ENDBRANCH  19  20
ENDBRANCH  18  19
ENDBRANCH  14  18
ENDBRANCH  12  13
ENDBRANCH  11  12
ENDBRANCH   1  11
BRANCH   7  22
HETATM   22  O1  UNL     1      13.851 -11.899  17.804  1.00  0.00    -0.344 OA
HETATM   23  C11 UNL     1      14.399 -11.757  19.107  1.00  0.00     0.211 C 
ENDBRANCH   7  22
TORSDOF 8
ENDMDL
MODEL 2
REMARK VINA RESULT: -6.714025910      2.884      4.064
REMARK  8 active torsions:
REMARK  status: ('A' for Active; 'I' for Inactive)
REMARK    1  A    between atoms: C2_2  and  C3_3 
REMARK    2  A    between atoms: C3_3  and  C4_4 
REMARK    3  A    between atoms: C4_4  and  S1_5 
REMARK    4  A    between atoms: S1_5  and  C5_6 
REMARK    5  A    between atoms: C10_12  and  O1_13 
REMARK    6  A    between atoms: N3_18  and  O2_20 
REMARK    7  A    between atoms: O2_20  and  C13_21 
REMARK    8  A    between atoms: C13_21  and  O3_22 
ROOT
HETATM    1  C5  UNL     1      16.872 -12.630  16.415  1.00  0.00     0.087 C 
HETATM    2  C6  UNL     1      16.824 -12.988  14.960  1.00  0.00     0.290 C 
HETATM    3  N1  UNL     1      15.726 -13.806  14.570  1.00  0.00     0.106 N 
HETATM    4  C7  UNL     1      15.568 -14.956  15.390  1.00  0.00     0.275 C 
HETATM    5  C8  UNL     1      15.687 -14.721  16.859  1.00  0.00     0.044 C 
HETATM    6  C9  UNL     1      15.717 -13.246  17.199  1.00  0.00     0.077 C 
HETATM    7  C10 UNL     1      14.479 -12.597  16.738  1.00  0.00     0.119 C 
HETATM    8  N2  UNL     1      14.002 -12.550  15.555  1.00  0.00    -0.349 N 
ATOM      9  H2  UNL     1      13.122 -12.041  15.473  1.00  0.00     0.163 HD
HETATM   10  C12 UNL     1      14.504 -13.102  14.298  1.00  0.00     0.396 C 
ENDROOT
BRANCH   1  11
HETATM   11  S1  UNL     1      18.397 -13.177  17.215  1.00  0.00    -0.156 SA
BRANCH  11  12
HETATM   12  C4  UNL     1      18.245 -13.100  19.023  1.00  0.00     0.133 C 
BRANCH  12  13
HETATM   13  C3  UNL     1      18.417 -11.717  19.523  1.00  0.00     0.040 C 
HETATM   14  N3  UNL     1      17.319 -11.035  19.711  1.00  0.00    -0.268 N 
ATOM     15  H3  UNL     1      16.433 -11.491  19.497  1.00  0.00     0.194 HD
BRANCH  13  16
HETATM   16  C2  UNL     1      19.720 -11.129  19.806  1.00  0.00     0.017 C 
HETATM   17  C1  UNL     1      20.221 -11.233  21.019  1.00  0.00     0.013 C 
ENDBRANCH  13  16
BRANCH  14  18
HETATM   18  O2  UNL     1      17.279  -9.766  20.171  1.00  0.00    -0.254 OA
BRANCH  18  19
HETATM   19  C13 UNL     1      16.773  -9.379  21.434  1.00  0.00     0.369 C 
BRANCH  19  20
HETATM   20  O3  UNL     1      15.669  -8.590  21.204  1.00  0.00    -0.369 OA
HETATM   21  C14 UNL     1      14.570  -8.932  21.965  1.00  0.00     0.204 C 
ENDBRANCH  19  20
ENDBRANCH  18  19
ENDBRANCH  14  18
ENDBRANCH  12  13
ENDBRANCH  11  12
ENDBRANCH   1  11
BRANCH   7  22
HETATM   22  O1  UNL     1      13.745 -11.963  17.714  1.00  0.00    -0.344 OA
HETATM   23  C11 UNL     1      14.213 -11.786  19.042  1.00  0.00     0.211 C 
ENDBRANCH   7  22
TORSDOF 8
ENDMDL
MODEL 3
REMARK VINA RESULT: -6.584627590      2.106      2.641
REMARK  8 active torsions:
REMARK  status: ('A' for Active; 'I' for Inactive)
REMARK    1  A    between atoms: C2_2  and  C3_3 
REMARK    2  A    between atoms: C3_3  and  C4_4 
REMARK    3  A    between atoms: C4_4  and  S1_5 
REMARK    4  A    between atoms: S1_5  and  C5_6 
REMARK    5  A    between atoms: C10_12  and  O1_13 
REMARK    6  A    between atoms: N3_18  and  O2_20 
REMARK    7  A    between atoms: O2_20  and  C13_21 
REMARK    8  A    between atoms: C13_21  and  O3_22 
ROOT
HETATM    1  C5  UNL     1      16.868 -12.616  16.378  1.00  0.00     0.087 C 
HETATM    2  C6  UNL     1      16.788 -12.986  14.928  1.00  0.00     0.290 C 
HETATM    3  N1  UNL     1      15.684 -13.809  14.569  1.00  0.00     0.106 N 
HETATM    4  C7  UNL     1      15.546 -14.953  15.402  1.00  0.00     0.275 C 
HETATM    5  C8  UNL     1      15.698 -14.706  16.865  1.00  0.00     0.044 C 
HETATM    6  C9  UNL     1      15.733 -13.228  17.193  1.00  0.00     0.077 C 
HETATM    7  C10 UNL     1      14.483 -12.585  16.754  1.00  0.00     0.119 C 
HETATM    8  N2  UNL     1      13.979 -12.548  15.582  1.00  0.00    -0.349 N 
ATOM      9  H2  UNL     1      13.097 -12.042  15.516  1.00  0.00     0.163 HD
HETATM   10  C12 UNL     1      14.454 -13.110  14.319  1.00  0.00     0.396 C 
ENDROOT
BRANCH   1  11
HETATM   11  S1  UNL     1      18.412 -13.153  17.148  1.00  0.00    -0.156 SA
BRANCH  11  12
HETATM   12  C4  UNL     1      18.311 -13.034  18.957  1.00  0.00     0.133 C 
BRANCH  12  13
HETATM   13  C3  UNL     1      19.262 -12.032  19.489  1.00  0.00     0.040 C 
HETATM   14  N3  UNL     1      20.530 -12.303  19.328  1.00  0.00    -0.268 N 
ATOM     15  H3  UNL     1      20.774 -13.177  18.862  1.00  0.00     0.194 HD
BRANCH  13  16
HETATM   16  C2  UNL     1      18.838 -10.804  20.147  1.00  0.00     0.017 C 
HETATM   17  C1  UNL     1      17.583 -10.418  20.041  1.00  0.00     0.013 C 
ENDBRANCH  13  16
BRANCH  14  18
HETATM   18  O2  UNL     1      21.539 -11.505  19.737  1.00  0.00    -0.254 OA
BRANCH  18  19
HETATM   19  C13 UNL     1      22.379 -11.767  20.845  1.00  0.00     0.369 C 
BRANCH  19  20
HETATM   20  O3  UNL     1      21.993 -10.917  21.857  1.00  0.00    -0.369 OA
HETATM   21  C14 UNL     1      21.292 -11.537  22.870  1.00  0.00     0.204 C 
ENDBRANCH  19  20
ENDBRANCH  18  19
ENDBRANCH  14  18
ENDBRANCH  12  13
ENDBRANCH  11  12
ENDBRANCH   1  11
BRANCH   7  22
HETATM   22  O1  UNL     1      13.769 -11.945  17.741  1.00  0.00    -0.344 OA
HETATM   23  C11 UNL     1      14.266 -11.758  19.058  1.00  0.00     0.211 C 
ENDBRANCH   7  22
TORSDOF 8
ENDMDL
MODEL 4
REMARK VINA RESULT: -6.576181490      3.003      4.235
REMARK  8 active torsions:
REMARK  status: ('A' for Active; 'I' for Inactive)
REMARK    1  A    between atoms: C2_2  and  C3_3 
REMARK    2  A    between atoms: C3_3  and  C4_4 
REMARK    3  A    between atoms: C4_4  and  S1_5 
REMARK    4  A    between atoms: S1_5  and  C5_6 
REMARK    5  A    between atoms: C10_12  and  O1_13 
REMARK    6  A    between atoms: N3_18  and  O2_20 
REMARK    7  A    between atoms: O2_20  and  C13_21 
REMARK    8  A    between atoms: C13_21  and  O3_22 
ROOT
HETATM    1  C5  UNL     1      17.488 -12.290  17.573  1.00  0.00     0.087 C 
HETATM    2  C6  UNL     1      17.853 -12.433  16.126  1.00  0.00     0.290 C 
HETATM    3  N1  UNL     1      16.934 -13.182  15.338  1.00  0.00     0.106 N 
HETATM    4  C7  UNL     1      16.600 -14.438  15.913  1.00  0.00     0.275 C 
HETATM    5  C8  UNL     1      16.304 -14.419  17.375  1.00  0.00     0.044 C 
HETATM    6  C9  UNL     1      16.186 -13.009  17.914  1.00  0.00     0.077 C 
HETATM    7  C10 UNL     1      15.098 -12.296  17.225  1.00  0.00     0.119 C 
HETATM    8  N2  UNL     1      14.961 -12.076  15.975  1.00  0.00    -0.349 N 
ATOM      9  H2  UNL     1      14.119 -11.557  15.726  1.00  0.00     0.163 HD
HETATM   10  C12 UNL     1      15.808 -12.442  14.841  1.00  0.00     0.396 C 
ENDROOT
BRANCH   1  11
HETATM   11  S1  UNL     1      18.756 -12.952  18.678  1.00  0.00    -0.156 SA
BRANCH  11  12
HETATM   12  C4  UNL     1      19.911 -11.650  19.195  1.00  0.00     0.133 C 
BRANCH  12  13
HETATM   13  C3  UNL     1      19.360 -10.848  20.311  1.00  0.00     0.040 C 
HETATM   14  N3  UNL     1      18.136 -10.417  20.157  1.00  0.00    -0.268 N 
ATOM     15  H3  UNL     1      17.654 -10.652  19.289  1.00  0.00     0.194 HD
BRANCH  13  16
HETATM   16  C2  UNL     1      20.110 -10.551  21.523  1.00  0.00     0.017 C 
HETATM   17  C1  UNL     1      21.339 -11.010  21.646  1.00  0.00     0.013 C 
ENDBRANCH  13  16
BRANCH  14  18
HETATM   18  O2  UNL     1      17.467  -9.682  21.070  1.00  0.00    -0.254 OA
BRANCH  18  19
HETATM   19  C13 UNL     1      16.287  -8.945  20.808  1.00  0.00     0.369 C 
BRANCH  19  20
HETATM   20  O3  UNL     1      16.189  -7.977  21.781  1.00  0.00    -0.369 OA
HETATM   21  C14 UNL     1      15.847  -8.467  23.024  1.00  0.00     0.204 C 
ENDBRANCH  19  20
ENDBRANCH  18  19
ENDBRANCH  14  18
ENDBRANCH  12  13
ENDBRANCH  11  12
ENDBRANCH   1  11
BRANCH   7  22
HETATM   22  O1  UNL     1      14.103 -11.808  18.039  1.00  0.00    -0.344 OA
HETATM   23  C11 UNL     1      14.230 -11.721  19.451  1.00  0.00     0.211 C 
ENDBRANCH   7  22
TORSDOF 8
ENDMDL
MODEL 5
REMARK VINA RESULT: -6.513781484     10.000     12.897
REMARK  8 active torsions:
REMARK  status: ('A' for Active; 'I' for Inactive)
REMARK    1  A    between atoms: C2_2  and  C3_3 
REMARK    2  A    between atoms: C3_3  and  C4_4 
REMARK    3  A    between atoms: C4_4  and  S1_5 
REMARK    4  A    between atoms: S1_5  and  C5_6 
REMARK    5  A    between atoms: C10_12  and  O1_13 
REMARK    6  A    between atoms: N3_18  and  O2_20 
REMARK    7  A    between atoms: O2_20  and  C13_21 
REMARK    8  A    between atoms: C13_21  and  O3_22 
ROOT
HETATM    1  C5  UNL     1      12.332  -6.587  22.832  1.00  0.00     0.087 C 
HETATM    2  C6  UNL     1      11.358  -5.899  23.740  1.00  0.00     0.290 C 
HETATM    3  N1  UNL     1      11.820  -5.668  25.066  1.00  0.00     0.106 N 
HETATM    4  C7  UNL     1      12.365  -6.829  25.678  1.00  0.00     0.275 C 
HETATM    5  C8  UNL     1      13.283  -7.637  24.824  1.00  0.00     0.044 C 
HETATM    6  C9  UNL     1      13.643  -6.921  23.538  1.00  0.00     0.077 C 
HETATM    7  C10 UNL     1      14.314  -5.646  23.843  1.00  0.00     0.119 C 
HETATM    8  N2  UNL     1      13.879  -4.668  24.536  1.00  0.00    -0.349 N 
ATOM      9  H2  UNL     1      14.526  -3.882  24.612  1.00  0.00     0.163 HD
HETATM   10  C12 UNL     1      12.612  -4.482  25.241  1.00  0.00     0.396 C 
ENDROOT
BRANCH   1  11
HETATM   11  S1  UNL     1      11.687  -8.139  22.167  1.00  0.00    -0.156 SA
BRANCH  11  12
HETATM   12  C4  UNL     1       9.872  -8.167  22.232  1.00  0.00     0.133 C 
BRANCH  12  13
HETATM   13  C3  UNL     1       9.381  -9.166  23.208  1.00  0.00     0.040 C 
HETATM   14  N3  UNL     1       9.844  -9.057  24.424  1.00  0.00    -0.268 N 
ATOM     15  H3  UNL     1      10.510  -8.307  24.614  1.00  0.00     0.194 HD
BRANCH  13  16
HETATM   16  C2  UNL     1       8.429 -10.214  22.863  1.00  0.00     0.017 C 
HETATM   17  C1  UNL     1       7.947 -10.265  21.638  1.00  0.00     0.013 C 
ENDBRANCH  13  16
BRANCH  14  18
HETATM   18  O2  UNL     1       9.503  -9.868  25.447  1.00  0.00    -0.254 OA
BRANCH  18  19
HETATM   19  C13 UNL     1       9.458  -9.481  26.807  1.00  0.00     0.369 C 
BRANCH  19  20
HETATM   20  O3  UNL     1       9.597 -10.625  27.560  1.00  0.00    -0.369 OA
HETATM   21  C14 UNL     1       8.517 -10.891  28.375  1.00  0.00     0.204 C 
ENDBRANCH  19  20
ENDBRANCH  18  19
ENDBRANCH  14  18
ENDBRANCH  12  13
ENDBRANCH  11  12
ENDBRANCH   1  11
BRANCH   7  22
HETATM   22  O1  UNL     1      15.573  -5.499  23.308  1.00  0.00    -0.344 OA
HETATM   23  C11 UNL     1      16.751  -5.937  23.969  1.00  0.00     0.211 C 
ENDBRANCH   7  22
TORSDOF 8
ENDMDL
