MODEL 1
REMARK VINA RESULT: -6.642335249      0.000      0.000
REMARK  7 active torsions:
REMARK  status: ('A' for Active; 'I' for Inactive)
REMARK    1  A    between atoms: C8_10  and  C9_11 
REMARK    2  A    between atoms: C9_11  and  N2_12 
REMARK    3  A    between atoms: N2_12  and  C10_13 
REMARK    4  A    between atoms: N2_12  and  C12_16 
REMARK    5  A    between atoms: C12_16  and  C13_17 
REMARK    6  A    between atoms: C13_17  and  O2_18 
REMARK    7  A    between atoms: O2_18  and  N4_19 
ROOT
HETATM    1  C10 UNL     1      13.135  -6.808  24.636  1.00  0.00     0.395 C 
HETATM    2  C11 UNL     1      14.195  -7.167  23.611  1.00  0.00     0.089 C 
HETATM    3  N3  UNL     1      15.041  -7.369  22.883  1.00  0.00    -0.195 NA
ENDROOT
BRANCH   1   4
HETATM    4  N2  UNL     1      12.168  -5.961  23.940  1.00  0.00     0.103 N 
BRANCH   4   5
HETATM    5  C9  UNL     1      10.823  -6.410  24.063  1.00  0.00     0.280 C 
BRANCH   5   6
HETATM    6  C8  UNL     1      10.594  -7.894  24.003  1.00  0.00     0.041 C 
HETATM    7  C7  UNL     1       9.739  -8.343  25.138  1.00  0.00     0.035 C 
HETATM    8  C6  UNL     1       9.339  -9.804  25.022  1.00  0.00     0.168 C 
HETATM    9  O1  UNL     1       9.144 -10.242  23.734  1.00  0.00    -0.384 OA
HETATM   10  C5  UNL     1       8.894  -9.199  22.883  1.00  0.00     0.144 C 
HETATM   11  C4  UNL     1       8.313  -9.566  21.560  1.00  0.00     0.035 C 
HETATM   12  C14 UNL     1      10.111  -8.323  22.658  1.00  0.00     0.113 C 
HETATM   13  C3  UNL     1       9.385 -10.250  20.751  1.00  0.00     0.022 C 
HETATM   14  C2  UNL     1      10.485  -9.220  20.525  1.00  0.00     0.117 C 
HETATM   15  N1  UNL     1      11.084  -8.865  21.779  1.00  0.00    -0.409 N 
HETATM   16  C1  UNL     1      12.037  -9.760  22.277  1.00  0.00     0.143 C 
ENDBRANCH   5   6
ENDBRANCH   4   5
BRANCH   4  17
HETATM   17  C12 UNL     1      12.294  -4.640  24.245  1.00  0.00     0.302 C 
BRANCH  17  18
HETATM   18  C13 UNL     1      13.000  -3.713  23.204  1.00  0.00     0.238 C 
BRANCH  18  19
HETATM   19  O2  UNL     1      12.713  -4.454  22.047  1.00  0.00    -0.220 OA
BRANCH  19  20
HETATM   20  N4  UNL     1      11.635  -4.351  21.216  1.00  0.00     0.004 N 
HETATM   21  O3  UNL     1      11.205  -5.356  20.617  1.00  0.00    -0.511 OA
HETATM   22  O4  UNL     1      10.934  -3.185  21.227  1.00  0.00    -0.511 OA
ENDBRANCH  19  20
ENDBRANCH  18  19
ENDBRANCH  17  18
ENDBRANCH   4  17
ENDBRANCH   1   4
TORSDOF 7
ENDMDL
MODEL 2
REMARK VINA RESULT: -6.564640001      9.261     11.754
REMARK  7 active torsions:
REMARK  status: ('A' for Active; 'I' for Inactive)
REMARK    1  A    between atoms: C8_10  and  C9_11 
REMARK    2  A    between atoms: C9_11  and  N2_12 
REMARK    3  A    between atoms: N2_12  and  C10_13 
REMARK    4  A    between atoms: N2_12  and  C12_16 
REMARK    5  A    between atoms: C12_16  and  C13_17 
REMARK    6  A    between atoms: C13_17  and  O2_18 
REMARK    7  A    between atoms: O2_18  and  N4_19 
ROOT
HETATM    1  C10 UNL     1      15.578 -12.898  17.704  1.00  0.00     0.395 C 
HETATM    2  C11 UNL     1      16.002 -11.832  18.697  1.00  0.00     0.089 C 
HETATM    3  N3  UNL     1      16.306 -10.973  19.371  1.00  0.00    -0.195 NA
ENDROOT
BRANCH   1   4
HETATM    4  N2  UNL     1      16.812 -13.507  17.210  1.00  0.00     0.103 N 
BRANCH   4   5
HETATM    5  C9  UNL     1      17.693 -13.932  18.244  1.00  0.00     0.280 C 
BRANCH   5   6
HETATM    6  C8  UNL     1      19.109 -13.436  18.176  1.00  0.00     0.041 C 
HETATM    7  C7  UNL     1      19.261 -12.419  17.097  1.00  0.00     0.035 C 
HETATM    8  C6  UNL     1      20.632 -11.764  17.104  1.00  0.00     0.168 C 
HETATM    9  O1  UNL     1      21.180 -11.600  18.354  1.00  0.00    -0.384 OA
HETATM   10  C5  UNL     1      20.219 -11.622  19.328  1.00  0.00     0.144 C 
HETATM   11  C4  UNL     1      20.634 -11.097  20.660  1.00  0.00     0.035 C 
HETATM   12  C14 UNL     1      19.604 -12.996  19.513  1.00  0.00     0.113 C 
HETATM   13  C3  UNL     1      21.588 -12.087  21.278  1.00  0.00     0.022 C 
HETATM   14  C2  UNL     1      20.803 -13.374  21.492  1.00  0.00     0.117 C 
HETATM   15  N1  UNL     1      20.411 -13.921  20.225  1.00  0.00    -0.409 N 
HETATM   16  C1  UNL     1      21.394 -14.645  19.541  1.00  0.00     0.143 C 
ENDBRANCH   5   6
ENDBRANCH   4   5
BRANCH   4  17
HETATM   17  C12 UNL     1      16.597 -14.486  16.290  1.00  0.00     0.302 C 
BRANCH  17  18
HETATM   18  C13 UNL     1      15.136 -15.011  16.106  1.00  0.00     0.238 C 
BRANCH  18  19
HETATM   19  O2  UNL     1      15.059 -14.907  14.708  1.00  0.00    -0.220 OA
BRANCH  19  20
HETATM   20  N4  UNL     1      15.133 -13.785  13.933  1.00  0.00     0.004 N 
HETATM   21  O3  UNL     1      14.508 -12.755  14.255  1.00  0.00    -0.511 OA
HETATM   22  O4  UNL     1      16.055 -13.765  12.933  1.00  0.00    -0.511 OA
ENDBRANCH  19  20
ENDBRANCH  18  19
ENDBRANCH  17  18
ENDBRANCH   4  17
ENDBRANCH   1   4
TORSDOF 7
ENDMDL
MODEL 3
REMARK VINA RESULT: -6.563162505      9.143     11.358
REMARK  7 active torsions:
REMARK  status: ('A' for Active; 'I' for Inactive)
REMARK    1  A    between atoms: C8_10  and  C9_11 
REMARK    2  A    between atoms: C9_11  and  N2_12 
REMARK    3  A    between atoms: N2_12  and  C10_13 
REMARK    4  A    between atoms: N2_12  and  C12_16 
REMARK    5  A    between atoms: C12_16  and  C13_17 
REMARK    6  A    between atoms: C13_17  and  O2_18 
REMARK    7  A    between atoms: O2_18  and  N4_19 
ROOT
HETATM    1  C10 UNL     1      14.735 -12.238  17.341  1.00  0.00     0.395 C 
HETATM    2  C11 UNL     1      14.422 -11.865  18.779  1.00  0.00     0.089 C 
HETATM    3  N3  UNL     1      14.172 -11.500  19.823  1.00  0.00    -0.195 NA
ENDROOT
BRANCH   1   4
HETATM    4  N2  UNL     1      16.192 -12.239  17.230  1.00  0.00     0.103 N 
BRANCH   4   5
HETATM    5  C9  UNL     1      16.855 -12.668  18.414  1.00  0.00     0.280 C 
BRANCH   5   6
HETATM    6  C8  UNL     1      18.180 -12.029  18.720  1.00  0.00     0.041 C 
HETATM    7  C7  UNL     1      18.091 -11.193  19.951  1.00  0.00     0.035 C 
HETATM    8  C6  UNL     1      19.445 -10.667  20.395  1.00  0.00     0.168 C 
HETATM    9  O1  UNL     1      20.495 -11.523  20.160  1.00  0.00    -0.384 OA
HETATM   10  C5  UNL     1      20.065 -12.815  20.016  1.00  0.00     0.144 C 
HETATM   11  C4  UNL     1      21.118 -13.864  20.123  1.00  0.00     0.035 C 
HETATM   12  C14 UNL     1      19.285 -13.031  18.734  1.00  0.00     0.113 C 
HETATM   13  C3  UNL     1      21.983 -13.787  18.891  1.00  0.00     0.022 C 
HETATM   14  C2  UNL     1      21.087 -14.124  17.707  1.00  0.00     0.117 C 
HETATM   15  N1  UNL     1      20.077 -13.116  17.559  1.00  0.00    -0.409 N 
HETATM   16  C1  UNL     1      20.475 -11.942  16.912  1.00  0.00     0.143 C 
ENDBRANCH   5   6
ENDBRANCH   4   5
BRANCH   4  17
HETATM   17  C12 UNL     1      16.646 -12.894  16.126  1.00  0.00     0.302 C 
BRANCH  17  18
HETATM   18  C13 UNL     1      16.597 -14.456  16.130  1.00  0.00     0.238 C 
BRANCH  18  19
HETATM   19  O2  UNL     1      16.503 -14.658  14.744  1.00  0.00    -0.220 OA
BRANCH  19  20
HETATM   20  N4  UNL     1      15.638 -14.085  13.857  1.00  0.00     0.004 N 
HETATM   21  O3  UNL     1      16.040 -13.709  12.738  1.00  0.00    -0.511 OA
HETATM   22  O4  UNL     1      14.310 -14.126  14.150  1.00  0.00    -0.511 OA
ENDBRANCH  19  20
ENDBRANCH  18  19
ENDBRANCH  17  18
ENDBRANCH   4  17
ENDBRANCH   1   4
TORSDOF 7
ENDMDL
MODEL 4
REMARK VINA RESULT: -6.563103738      2.470      6.172
REMARK  7 active torsions:
REMARK  status: ('A' for Active; 'I' for Inactive)
REMARK    1  A    between atoms: C8_10  and  C9_11 
REMARK    2  A    between atoms: C9_11  and  N2_12 
REMARK    3  A    between atoms: N2_12  and  C10_13 
REMARK    4  A    between atoms: N2_12  and  C12_16 
REMARK    5  A    between atoms: C12_16  and  C13_17 
REMARK    6  A    between atoms: C13_17  and  O2_18 
REMARK    7  A    between atoms: O2_18  and  N4_19 
ROOT
HETATM    1  C10 UNL     1      10.143  -7.859  21.517  1.00  0.00     0.395 C 
HETATM    2  C11 UNL     1       9.180  -8.774  20.784  1.00  0.00     0.089 C 
HETATM    3  N3  UNL     1       8.390  -9.408  20.273  1.00  0.00    -0.195 NA
ENDROOT
BRANCH   1   4
HETATM    4  N2  UNL     1      10.554  -8.581  22.719  1.00  0.00     0.103 N 
BRANCH   4   5
HETATM    5  C9  UNL     1      11.901  -8.327  23.104  1.00  0.00     0.280 C 
BRANCH   5   6
HETATM    6  C8  UNL     1      12.120  -7.282  24.161  1.00  0.00     0.041 C 
HETATM    7  C7  UNL     1      12.990  -7.806  25.251  1.00  0.00     0.035 C 
HETATM    8  C6  UNL     1      13.378  -6.732  26.252  1.00  0.00     0.168 C 
HETATM    9  O1  UNL     1      13.551  -5.481  25.710  1.00  0.00    -0.384 OA
HETATM   10  C5  UNL     1      13.793  -5.549  24.364  1.00  0.00     0.144 C 
HETATM   11  C4  UNL     1      14.351  -4.313  23.743  1.00  0.00     0.035 C 
HETATM   12  C14 UNL     1      12.579  -5.991  23.571  1.00  0.00     0.113 C 
HETATM   13  C3  UNL     1      13.262  -3.272  23.712  1.00  0.00     0.022 C 
HETATM   14  C2  UNL     1      12.166  -3.814  22.804  1.00  0.00     0.117 C 
HETATM   15  N1  UNL     1      11.589  -4.990  23.387  1.00  0.00    -0.409 N 
HETATM   16  C1  UNL     1      10.638  -4.772  24.390  1.00  0.00     0.143 C 
ENDBRANCH   5   6
ENDBRANCH   4   5
BRANCH   4  17
HETATM   17  C12 UNL     1       9.690  -8.429  23.759  1.00  0.00     0.302 C 
BRANCH  17  18
HETATM   18  C13 UNL     1       8.990  -9.709  24.322  1.00  0.00     0.238 C 
BRANCH  18  19
HETATM   19  O2  UNL     1       9.792  -9.893  25.459  1.00  0.00    -0.220 OA
BRANCH  19  20
HETATM   20  N4  UNL     1       9.486  -9.644  26.766  1.00  0.00     0.004 N 
HETATM   21  O3  UNL     1       8.805  -8.647  27.074  1.00  0.00    -0.511 OA
HETATM   22  O4  UNL     1       9.769 -10.612  27.679  1.00  0.00    -0.511 OA
ENDBRANCH  19  20
ENDBRANCH  18  19
ENDBRANCH  17  18
ENDBRANCH   4  17
ENDBRANCH   1   4
TORSDOF 7
ENDMDL
MODEL 5
REMARK VINA RESULT: -6.547356892      1.922      4.762
REMARK  7 active torsions:
REMARK  status: ('A' for Active; 'I' for Inactive)
REMARK    1  A    between atoms: C8_10  and  C9_11 
REMARK    2  A    between atoms: C9_11  and  N2_12 
REMARK    3  A    between atoms: N2_12  and  C10_13 
REMARK    4  A    between atoms: N2_12  and  C12_16 
REMARK    5  A    between atoms: C12_16  and  C13_17 
REMARK    6  A    between atoms: C13_17  and  O2_18 
REMARK    7  A    between atoms: O2_18  and  N4_19 
ROOT
HETATM    1  C10 UNL     1      10.284  -9.735  21.171  1.00  0.00     0.395 C 
HETATM    2  C11 UNL     1       8.886 -10.029  20.660  1.00  0.00     0.089 C 
HETATM    3  N3  UNL     1       7.870 -10.220  20.194  1.00  0.00    -0.195 NA
ENDROOT
BRANCH   1   4
HETATM    4  N2  UNL     1      10.210  -8.432  21.828  1.00  0.00     0.103 N 
BRANCH   4   5
HETATM    5  C9  UNL     1      11.017  -8.336  22.998  1.00  0.00     0.280 C 
BRANCH   5   6
HETATM    6  C8  UNL     1      10.421  -7.620  24.177  1.00  0.00     0.041 C 
HETATM    7  C7  UNL     1       9.534  -8.531  24.954  1.00  0.00     0.035 C 
HETATM    8  C6  UNL     1       9.047  -7.903  26.249  1.00  0.00     0.168 C 
HETATM    9  O1  UNL     1       9.953  -7.064  26.853  1.00  0.00    -0.384 OA
HETATM   10  C5  UNL     1      11.231  -7.325  26.436  1.00  0.00     0.144 C 
HETATM   11  C4  UNL     1      12.318  -6.746  27.275  1.00  0.00     0.035 C 
HETATM   12  C14 UNL     1      11.466  -6.934  24.990  1.00  0.00     0.113 C 
HETATM   13  C3  UNL     1      12.325  -5.253  27.067  1.00  0.00     0.022 C 
HETATM   14  C2  UNL     1      12.672  -5.019  25.602  1.00  0.00     0.117 C 
HETATM   15  N1  UNL     1      11.630  -5.542  24.767  1.00  0.00    -0.409 N 
HETATM   16  C1  UNL     1      10.499  -4.732  24.620  1.00  0.00     0.143 C 
ENDBRANCH   5   6
ENDBRANCH   4   5
BRANCH   4  17
HETATM   17  C12 UNL     1      10.419  -7.389  20.979  1.00  0.00     0.302 C 
BRANCH  17  18
HETATM   18  C13 UNL     1      11.716  -6.538  21.168  1.00  0.00     0.238 C 
BRANCH  18  19
HETATM   19  O2  UNL     1      11.170  -5.274  20.896  1.00  0.00    -0.220 OA
BRANCH  19  20
HETATM   20  N4  UNL     1      11.617  -4.049  21.298  1.00  0.00     0.004 N 
HETATM   21  O3  UNL     1      10.842  -3.073  21.325  1.00  0.00    -0.511 OA
HETATM   22  O4  UNL     1      12.857  -3.977  21.855  1.00  0.00    -0.511 OA
ENDBRANCH  19  20
ENDBRANCH  18  19
ENDBRANCH  17  18
ENDBRANCH   4  17
ENDBRANCH   1   4
TORSDOF 7
ENDMDL
