MODEL 1
REMARK VINA RESULT: -6.994356826      0.000      0.000
REMARK  10 active torsions:
REMARK  status: ('A' for Active; 'I' for Inactive)
REMARK    1  A    between atoms: N1_1  and  C1_4 
REMARK    2  A    between atoms: N3_8  and  C3_10 
REMARK    3  A    between atoms: C3_10  and  C4_11 
REMARK    4  A    between atoms: C4_11  and  N4_12 
REMARK    5  A    between atoms: N4_12  and  C5_14 
REMARK    6  A    between atoms: C5_14  and  C6_15 
REMARK    7  A    between atoms: C6_15  and  C7_16 
REMARK    8  A    between atoms: C7_16  and  N5_17 
REMARK    9  A    between atoms: N7_25  and  C10_26 
REMARK   10  A    between atoms: C10_26  and  O1_27 
ROOT
HETATM    1  C1  UNL     1      -0.563   3.391  52.678  1.00  0.00     0.679 A 
HETATM    2  N2  UNL     1       0.107   2.343  52.116  1.00  0.00    -0.175 N 
ATOM      3  H2  UNL     1       1.119   2.401  51.996  1.00  0.00     0.186 HD
HETATM    4  C2  UNL     1      -0.536   1.248  51.722  1.00  0.00     0.147 A 
HETATM    5  N3  UNL     1       0.046   0.272  51.189  1.00  0.00    -0.372 N 
ATOM      6  H3  UNL     1      -0.559  -0.509  50.933  1.00  0.00     0.161 HD
HETATM    7  C8  UNL     1      -1.924   1.226  51.914  1.00  0.00     0.123 A 
HETATM    8  N6  UNL     1      -2.875   0.306  51.639  1.00  0.00    -0.346 N 
ATOM      9  H6  UNL     1      -2.711  -0.605  51.209  1.00  0.00     0.167 HD
HETATM   10  C9  UNL     1      -4.077   0.784  52.023  1.00  0.00     0.187 A 
HETATM   11  N7  UNL     1      -3.919   2.013  52.549  1.00  0.00    -0.305 N 
HETATM   12  C11 UNL     1      -2.601   2.283  52.482  1.00  0.00     0.156 A 
HETATM   13  N8  UNL     1      -1.887   3.350  52.853  1.00  0.00    -0.174 N 
ATOM     14  H8  UNL     1      -2.362   4.147  53.277  1.00  0.00     0.186 HD
ENDROOT
BRANCH   5  15
HETATM   15  C3  UNL     1       1.410   0.099  50.893  1.00  0.00     0.141 C 
BRANCH  15  16
HETATM   16  C4  UNL     1       1.453  -0.393  49.403  1.00  0.00     0.138 C 
BRANCH  16  17
HETATM   17  N4  UNL     1       2.736  -0.157  48.942  1.00  0.00    -0.401 N 
ATOM     18  H4  UNL     1       2.895  -0.275  47.941  1.00  0.00     0.158 HD
BRANCH  17  19
HETATM   19  C5  UNL     1       3.821   0.221  49.706  1.00  0.00     0.057 C 
BRANCH  19  20
HETATM   20  C6  UNL     1       4.444   1.536  49.461  1.00  0.00     0.071 C 
BRANCH  20  21
HETATM   21  C7  UNL     1       4.107   2.177  48.153  1.00  0.00     0.234 C 
BRANCH  21  22
HETATM   22  N5  UNL     1       4.501   3.613  48.348  1.00  0.00    -0.079 N 
ATOM     23  H53 UNL     1       5.500   3.792  48.250  1.00  0.00     0.274 HD
ATOM     24  H52 UNL     1       4.205   4.237  47.598  1.00  0.00     0.274 HD
ATOM     25  H51 UNL     1       4.119   3.844  49.265  1.00  0.00     0.274 HD
ENDBRANCH  21  22
ENDBRANCH  20  21
ENDBRANCH  19  20
ENDBRANCH  17  19
ENDBRANCH  16  17
ENDBRANCH  15  16
ENDBRANCH   5  15
BRANCH   1  26
HETATM   26  N1  UNL     1       0.118   4.447  53.049  1.00  0.00    -0.234 N 
ATOM     27  H12 UNL     1      -0.318   5.158  53.637  1.00  0.00     0.174 HD
ATOM     28  H11 UNL     1       1.086   4.539  52.742  1.00  0.00     0.174 HD
ENDBRANCH   1  26
BRANCH  11  29
HETATM   29  C10 UNL     1      -5.002   2.840  53.071  1.00  0.00     0.298 C 
BRANCH  29  30
HETATM   30  O1  UNL     1      -4.557   4.081  53.455  1.00  0.00    -0.382 OA
ATOM     31  H1  UNL     1      -3.994   4.472  52.797  1.00  0.00     0.211 HD
ENDBRANCH  29  30
ENDBRANCH  11  29
TORSDOF 10
ENDMDL
MODEL 2
REMARK VINA RESULT: -6.632688196      1.030      2.476
REMARK  10 active torsions:
REMARK  status: ('A' for Active; 'I' for Inactive)
REMARK    1  A    between atoms: N1_1  and  C1_4 
REMARK    2  A    between atoms: N3_8  and  C3_10 
REMARK    3  A    between atoms: C3_10  and  C4_11 
REMARK    4  A    between atoms: C4_11  and  N4_12 
REMARK    5  A    between atoms: N4_12  and  C5_14 
REMARK    6  A    between atoms: C5_14  and  C6_15 
REMARK    7  A    between atoms: C6_15  and  C7_16 
REMARK    8  A    between atoms: C7_16  and  N5_17 
REMARK    9  A    between atoms: N7_25  and  C10_26 
REMARK   10  A    between atoms: C10_26  and  O1_27 
ROOT
HETATM    1  C1  UNL     1      -2.631   0.256  51.801  1.00  0.00     0.679 A 
HETATM    2  N2  UNL     1      -1.297   0.113  51.549  1.00  0.00    -0.175 N 
ATOM      3  H2  UNL     1      -0.934  -0.800  51.275  1.00  0.00     0.186 HD
HETATM    4  C2  UNL     1      -0.463   1.143  51.655  1.00  0.00     0.147 A 
HETATM    5  N3  UNL     1       0.769   1.045  51.445  1.00  0.00    -0.372 N 
ATOM      6  H3  UNL     1       1.301   1.908  51.558  1.00  0.00     0.161 HD
HETATM    7  C8  UNL     1      -1.021   2.372  52.035  1.00  0.00     0.123 A 
HETATM    8  N6  UNL     1      -0.490   3.598  52.240  1.00  0.00    -0.346 N 
ATOM      9  H6  UNL     1       0.495   3.841  52.136  1.00  0.00     0.167 HD
HETATM   10  C9  UNL     1      -1.472   4.450  52.603  1.00  0.00     0.187 A 
HETATM   11  N7  UNL     1      -2.644   3.789  52.636  1.00  0.00    -0.305 N 
HETATM   12  C11 UNL     1      -2.368   2.518  52.288  1.00  0.00     0.156 A 
HETATM   13  N8  UNL     1      -3.143   1.437  52.161  1.00  0.00    -0.174 N 
ATOM     14  H8  UNL     1      -4.144   1.515  52.343  1.00  0.00     0.186 HD
ENDROOT
BRANCH   5  15
HETATM   15  C3  UNL     1       1.525  -0.083  51.076  1.00  0.00     0.141 C 
BRANCH  15  16
HETATM   16  C4  UNL     1       1.429  -0.153  49.511  1.00  0.00     0.138 C 
BRANCH  16  17
HETATM   17  N4  UNL     1       2.727  -0.169  49.032  1.00  0.00    -0.401 N 
ATOM     18  H4  UNL     1       2.861  -0.488  48.073  1.00  0.00     0.158 HD
BRANCH  17  19
HETATM   19  C5  UNL     1       3.858   0.206  49.728  1.00  0.00     0.057 C 
BRANCH  19  20
HETATM   20  C6  UNL     1       4.415   1.557  49.514  1.00  0.00     0.071 C 
BRANCH  20  21
HETATM   21  C7  UNL     1       4.140   2.163  48.175  1.00  0.00     0.234 C 
BRANCH  21  22
HETATM   22  N5  UNL     1       4.521   3.605  48.353  1.00  0.00    -0.079 N 
ATOM     23  H53 UNL     1       3.739   4.257  48.297  1.00  0.00     0.274 HD
ATOM     24  H52 UNL     1       4.799   3.853  49.303  1.00  0.00     0.274 HD
ATOM     25  H51 UNL     1       5.244   3.751  47.650  1.00  0.00     0.274 HD
ENDBRANCH  21  22
ENDBRANCH  20  21
ENDBRANCH  19  20
ENDBRANCH  17  19
ENDBRANCH  16  17
ENDBRANCH  15  16
ENDBRANCH   5  15
BRANCH   1  26
HETATM   26  N1  UNL     1      -3.410  -0.791  51.682  1.00  0.00    -0.234 N 
ATOM     27  H12 UNL     1      -3.540  -1.233  50.772  1.00  0.00     0.174 HD
ATOM     28  H11 UNL     1      -3.878  -1.151  52.514  1.00  0.00     0.174 HD
ENDBRANCH   1  26
BRANCH  11  29
HETATM   29  C10 UNL     1      -3.927   4.389  52.989  1.00  0.00     0.298 C 
BRANCH  29  30
HETATM   30  O1  UNL     1      -3.872   5.761  52.965  1.00  0.00    -0.382 OA
ATOM     31  H1  UNL     1      -4.542   6.130  52.402  1.00  0.00     0.211 HD
ENDBRANCH  29  30
ENDBRANCH  11  29
TORSDOF 10
ENDMDL
MODEL 3
REMARK VINA RESULT: -6.417147782      1.763      2.336
REMARK  10 active torsions:
REMARK  status: ('A' for Active; 'I' for Inactive)
REMARK    1  A    between atoms: N1_1  and  C1_4 
REMARK    2  A    between atoms: N3_8  and  C3_10 
REMARK    3  A    between atoms: C3_10  and  C4_11 
REMARK    4  A    between atoms: C4_11  and  N4_12 
REMARK    5  A    between atoms: N4_12  and  C5_14 
REMARK    6  A    between atoms: C5_14  and  C6_15 
REMARK    7  A    between atoms: C6_15  and  C7_16 
REMARK    8  A    between atoms: C7_16  and  N5_17 
REMARK    9  A    between atoms: N7_25  and  C10_26 
REMARK   10  A    between atoms: C10_26  and  O1_27 
ROOT
HETATM    1  C1  UNL     1      -3.431   2.733  52.692  1.00  0.00     0.679 A 
HETATM    2  N2  UNL     1      -2.199   2.200  52.441  1.00  0.00    -0.175 N 
ATOM      3  H2  UNL     1      -1.365   2.753  52.638  1.00  0.00     0.186 HD
HETATM    4  C2  UNL     1      -2.069   0.974  51.944  1.00  0.00     0.147 A 
HETATM    5  N3  UNL     1      -0.954   0.459  51.688  1.00  0.00    -0.372 N 
ATOM      6  H3  UNL     1      -0.988  -0.489  51.311  1.00  0.00     0.161 HD
HETATM    7  C8  UNL     1      -3.252   0.263  51.695  1.00  0.00     0.123 A 
HETATM    8  N6  UNL     1      -3.495  -0.972  51.203  1.00  0.00    -0.346 N 
ATOM      9  H6  UNL     1      -2.785  -1.643  50.910  1.00  0.00     0.167 HD
HETATM   10  C9  UNL     1      -4.829  -1.175  51.159  1.00  0.00     0.187 A 
HETATM   11  N7  UNL     1      -5.460  -0.080  51.621  1.00  0.00    -0.305 N 
HETATM   12  C11 UNL     1      -4.495   0.799  51.949  1.00  0.00     0.156 A 
HETATM   13  N8  UNL     1      -4.546   2.038  52.448  1.00  0.00    -0.174 N 
ATOM     14  H8  UNL     1      -5.454   2.461  52.647  1.00  0.00     0.186 HD
ENDROOT
BRANCH   5  15
HETATM   15  C3  UNL     1       0.336   0.997  51.845  1.00  0.00     0.141 C 
BRANCH  15  16
HETATM   16  C4  UNL     1       1.258   0.149  50.899  1.00  0.00     0.138 C 
BRANCH  16  17
HETATM   17  N4  UNL     1       2.400   0.898  50.680  1.00  0.00    -0.401 N 
ATOM     18  H4  UNL     1       2.483   1.774  51.196  1.00  0.00     0.158 HD
BRANCH  17  19
HETATM   19  C5  UNL     1       3.438   0.576  49.830  1.00  0.00     0.057 C 
BRANCH  19  20
HETATM   20  C6  UNL     1       4.402   1.626  49.447  1.00  0.00     0.071 C 
BRANCH  20  21
HETATM   21  C7  UNL     1       4.182   2.243  48.102  1.00  0.00     0.234 C 
BRANCH  21  22
HETATM   22  N5  UNL     1       4.536   3.687  48.313  1.00  0.00    -0.079 N 
ATOM     23  H53 UNL     1       3.819   4.230  48.795  1.00  0.00     0.274 HD
ATOM     24  H52 UNL     1       5.271   3.845  49.002  1.00  0.00     0.274 HD
ATOM     25  H51 UNL     1       4.757   4.020  47.375  1.00  0.00     0.274 HD
ENDBRANCH  21  22
ENDBRANCH  20  21
ENDBRANCH  19  20
ENDBRANCH  17  19
ENDBRANCH  16  17
ENDBRANCH  15  16
ENDBRANCH   5  15
BRANCH   1  26
HETATM   26  N1  UNL     1      -3.504   3.946  53.182  1.00  0.00    -0.234 N 
ATOM     27  H12 UNL     1      -2.823   4.653  52.905  1.00  0.00     0.174 HD
ATOM     28  H11 UNL     1      -4.253   4.164  53.840  1.00  0.00     0.174 HD
ENDBRANCH   1  26
BRANCH  11  29
HETATM   29  C10 UNL     1      -6.909   0.063  51.721  1.00  0.00     0.298 C 
BRANCH  29  30
HETATM   30  O1  UNL     1      -7.309   0.312  53.011  1.00  0.00    -0.382 OA
ATOM     31  H1  UNL     1      -7.874  -0.375  53.344  1.00  0.00     0.211 HD
ENDBRANCH  29  30
ENDBRANCH  11  29
TORSDOF 10
ENDMDL
MODEL 4
REMARK VINA RESULT: -6.404230527      3.526      6.264
REMARK  10 active torsions:
REMARK  status: ('A' for Active; 'I' for Inactive)
REMARK    1  A    between atoms: N1_1  and  C1_4 
REMARK    2  A    between atoms: N3_8  and  C3_10 
REMARK    3  A    between atoms: C3_10  and  C4_11 
REMARK    4  A    between atoms: C4_11  and  N4_12 
REMARK    5  A    between atoms: N4_12  and  C5_14 
REMARK    6  A    between atoms: C5_14  and  C6_15 
REMARK    7  A    between atoms: C6_15  and  C7_16 
REMARK    8  A    between atoms: C7_16  and  N5_17 
REMARK    9  A    between atoms: N7_25  and  C10_26 
REMARK   10  A    between atoms: C10_26  and  O1_27 
ROOT
HETATM    1  C1  UNL     1      -7.956   1.681  52.767  1.00  0.00     0.679 A 
HETATM    2  N2  UNL     1      -6.854   2.464  52.957  1.00  0.00    -0.175 N 
ATOM      3  H2  UNL     1      -6.927   3.298  53.540  1.00  0.00     0.186 HD
HETATM    4  C2  UNL     1      -5.689   2.158  52.395  1.00  0.00     0.147 A 
HETATM    5  N3  UNL     1      -4.660   2.862  52.537  1.00  0.00    -0.372 N 
ATOM      6  H3  UNL     1      -3.828   2.520  52.057  1.00  0.00     0.161 HD
HETATM    7  C8  UNL     1      -5.651   1.000  51.606  1.00  0.00     0.123 A 
HETATM    8  N6  UNL     1      -4.667   0.402  50.899  1.00  0.00    -0.346 N 
ATOM      9  H6  UNL     1      -3.705   0.733  50.827  1.00  0.00     0.167 HD
HETATM   10  C9  UNL     1      -5.160  -0.704  50.303  1.00  0.00     0.187 A 
HETATM   11  N7  UNL     1      -6.462  -0.834  50.617  1.00  0.00    -0.305 N 
HETATM   12  C11 UNL     1      -6.762   0.209  51.415  1.00  0.00     0.156 A 
HETATM   13  N8  UNL     1      -7.899   0.580  52.011  1.00  0.00    -0.174 N 
ATOM     14  H8  UNL     1      -8.738   0.013  51.887  1.00  0.00     0.186 HD
ENDROOT
BRANCH   5  15
HETATM   15  C3  UNL     1      -4.488   4.055  53.262  1.00  0.00     0.141 C 
BRANCH  15  16
HETATM   16  C4  UNL     1      -3.255   4.769  52.601  1.00  0.00     0.138 C 
BRANCH  16  17
HETATM   17  N4  UNL     1      -2.124   4.129  53.073  1.00  0.00    -0.401 N 
ATOM     18  H4  UNL     1      -2.059   3.992  54.083  1.00  0.00     0.158 HD
BRANCH  17  19
HETATM   19  C5  UNL     1      -1.074   3.658  52.312  1.00  0.00     0.057 C 
BRANCH  19  20
HETATM   20  C6  UNL     1      -1.147   2.290  51.761  1.00  0.00     0.071 C 
BRANCH  20  21
HETATM   21  C7  UNL     1      -0.301   1.270  52.454  1.00  0.00     0.234 C 
BRANCH  21  22
HETATM   22  N5  UNL     1       1.094   1.608  52.014  1.00  0.00    -0.079 N 
ATOM     23  H53 UNL     1       1.204   1.710  51.005  1.00  0.00     0.274 HD
ATOM     24  H52 UNL     1       1.394   2.553  52.251  1.00  0.00     0.274 HD
ATOM     25  H51 UNL     1       1.662   0.868  52.427  1.00  0.00     0.274 HD
ENDBRANCH  21  22
ENDBRANCH  20  21
ENDBRANCH  19  20
ENDBRANCH  17  19
ENDBRANCH  16  17
ENDBRANCH  15  16
ENDBRANCH   5  15
BRANCH   1  26
HETATM   26  N1  UNL     1      -9.081   2.027  53.343  1.00  0.00    -0.234 N 
ATOM     27  H12 UNL     1      -9.484   2.948  53.170  1.00  0.00     0.174 HD
ATOM     28  H11 UNL     1      -9.541   1.357  53.960  1.00  0.00     0.174 HD
ENDBRANCH   1  26
BRANCH  11  29
HETATM   29  C10 UNL     1      -7.325  -1.915  50.153  1.00  0.00     0.298 C 
BRANCH  29  30
HETATM   30  O1  UNL     1      -8.448  -1.437  49.522  1.00  0.00    -0.382 OA
ATOM     31  H1  UNL     1      -8.548  -1.806  48.653  1.00  0.00     0.211 HD
ENDBRANCH  29  30
ENDBRANCH  11  29
TORSDOF 10
ENDMDL
MODEL 5
REMARK VINA RESULT: -6.376784858      2.267      2.898
REMARK  10 active torsions:
REMARK  status: ('A' for Active; 'I' for Inactive)
REMARK    1  A    between atoms: N1_1  and  C1_4 
REMARK    2  A    between atoms: N3_8  and  C3_10 
REMARK    3  A    between atoms: C3_10  and  C4_11 
REMARK    4  A    between atoms: C4_11  and  N4_12 
REMARK    5  A    between atoms: N4_12  and  C5_14 
REMARK    6  A    between atoms: C5_14  and  C6_15 
REMARK    7  A    between atoms: C6_15  and  C7_16 
REMARK    8  A    between atoms: C7_16  and  N5_17 
REMARK    9  A    between atoms: N7_25  and  C10_26 
REMARK   10  A    between atoms: C10_26  and  O1_27 
ROOT
HETATM    1  C1  UNL     1      -0.434  -1.349  54.263  1.00  0.00     0.679 A 
HETATM    2  N2  UNL     1       0.224  -0.872  53.167  1.00  0.00    -0.175 N 
ATOM      3  H2  UNL     1       1.233  -1.006  53.090  1.00  0.00     0.186 HD
HETATM    4  C2  UNL     1      -0.427  -0.237  52.197  1.00  0.00     0.147 A 
HETATM    5  N3  UNL     1       0.148   0.227  51.183  1.00  0.00    -0.372 N 
ATOM      6  H3  UNL     1      -0.463   0.691  50.510  1.00  0.00     0.161 HD
HETATM    7  C8  UNL     1      -1.811  -0.085  52.358  1.00  0.00     0.123 A 
HETATM    8  N6  UNL     1      -2.767   0.493  51.598  1.00  0.00    -0.346 N 
ATOM      9  H6  UNL     1      -2.612   0.952  50.699  1.00  0.00     0.167 HD
HETATM   10  C9  UNL     1      -3.960   0.369  52.216  1.00  0.00     0.187 A 
HETATM   11  N7  UNL     1      -3.791  -0.290  53.378  1.00  0.00    -0.305 N 
HETATM   12  C11 UNL     1      -2.476  -0.568  53.464  1.00  0.00     0.156 A 
HETATM   13  N8  UNL     1      -1.754  -1.195  54.397  1.00  0.00    -0.174 N 
ATOM     14  H8  UNL     1      -2.221  -1.563  55.227  1.00  0.00     0.186 HD
ENDROOT
BRANCH   5  15
HETATM   15  C3  UNL     1       1.511   0.199  50.838  1.00  0.00     0.141 C 
BRANCH  15  16
HETATM   16  C4  UNL     1       1.560  -0.389  49.383  1.00  0.00     0.138 C 
BRANCH  16  17
HETATM   17  N4  UNL     1       2.872  -0.286  48.955  1.00  0.00    -0.401 N 
ATOM     18  H4  UNL     1       3.065  -0.561  47.992  1.00  0.00     0.158 HD
BRANCH  17  19
HETATM   19  C5  UNL     1       3.943   0.151  49.706  1.00  0.00     0.057 C 
BRANCH  19  20
HETATM   20  C6  UNL     1       4.450   1.522  49.498  1.00  0.00     0.071 C 
BRANCH  20  21
HETATM   21  C7  UNL     1       4.090   2.151  48.190  1.00  0.00     0.234 C 
BRANCH  21  22
HETATM   22  N5  UNL     1       4.503   3.585  48.360  1.00  0.00    -0.079 N 
ATOM     23  H53 UNL     1       3.731   4.251  48.344  1.00  0.00     0.274 HD
ATOM     24  H52 UNL     1       4.829   3.821  49.297  1.00  0.00     0.274 HD
ATOM     25  H51 UNL     1       5.196   3.724  47.624  1.00  0.00     0.274 HD
ENDBRANCH  21  22
ENDBRANCH  20  21
ENDBRANCH  19  20
ENDBRANCH  17  19
ENDBRANCH  16  17
ENDBRANCH  15  16
ENDBRANCH   5  15
BRANCH   1  26
HETATM   26  N1  UNL     1       0.255  -1.969  55.190  1.00  0.00    -0.234 N 
ATOM     27  H12 UNL     1       0.718  -2.853  54.981  1.00  0.00     0.174 HD
ATOM     28  H11 UNL     1       0.317  -1.548  56.117  1.00  0.00     0.174 HD
ENDBRANCH   1  26
BRANCH  11  29
HETATM   29  C10 UNL     1      -4.862  -0.609  54.316  1.00  0.00     0.298 C 
BRANCH  29  30
HETATM   30  O1  UNL     1      -5.953  -1.151  53.680  1.00  0.00    -0.382 OA
ATOM     31  H1  UNL     1      -6.613  -0.494  53.491  1.00  0.00     0.211 HD
ENDBRANCH  29  30
ENDBRANCH  11  29
TORSDOF 10
ENDMDL
