MODEL 1
REMARK VINA RESULT: -7.112267396      0.000      0.000
REMARK  9 active torsions:
REMARK  status: ('A' for Active; 'I' for Inactive)
REMARK    1  A    between atoms: N1_1  and  C1_4 
REMARK    2  A    between atoms: C3_8  and  N3_9 
REMARK    3  A    between atoms: N3_9  and  C4_11 
REMARK    4  A    between atoms: C4_11  and  C5_12 
REMARK    5  A    between atoms: C5_12  and  N4_13 
REMARK    6  A    between atoms: N4_13  and  O1_14 
REMARK    7  A    between atoms: N5_17  and  C7_19 
REMARK    8  A    between atoms: C7_19  and  C8_20 
REMARK    9  A    between atoms: C8_20  and  N6_21 
ROOT
HETATM    1  C1  UNL     1      -0.975   3.846  53.023  1.00  0.00     0.677 A 
HETATM    2  N2  UNL     1      -2.282   3.536  53.117  1.00  0.00    -0.200 N 
ATOM      3  H2  UNL     1      -2.946   4.198  53.519  1.00  0.00     0.183 HD
HETATM    4  C2  UNL     1      -2.688   2.352  52.676  1.00  0.00     0.139 A 
HETATM    5  C3  UNL     1      -1.780   1.439  52.123  1.00  0.00     0.089 A 
HETATM    6  C6  UNL     1      -0.441   1.745  52.022  1.00  0.00     0.145 A 
HETATM    7  N5  UNL     1       0.433   1.018  51.555  1.00  0.00    -0.372 N 
ATOM      8  H5  UNL     1       1.296   1.555  51.636  1.00  0.00     0.161 HD
HETATM    9  N9  UNL     1      -0.097   3.003  52.505  1.00  0.00    -0.175 N 
ATOM     10  H9  UNL     1       0.881   3.289  52.457  1.00  0.00     0.186 HD
ENDROOT
BRANCH   5  11
HETATM   11  N3  UNL     1      -2.271   0.198  51.671  1.00  0.00    -0.385 N 
ATOM     12  H3  UNL     1      -1.798  -0.312  50.926  1.00  0.00     0.159 HD
BRANCH  11  13
HETATM   13  C4  UNL     1      -3.477  -0.338  52.301  1.00  0.00     0.138 C 
BRANCH  13  14
HETATM   14  C5  UNL     1      -4.550  -0.639  51.279  1.00  0.00     0.162 C 
BRANCH  14  15
HETATM   15  N4  UNL     1      -3.986  -0.749  49.947  1.00  0.00    -0.102 NA
BRANCH  15  16
HETATM   16  O1  UNL     1      -3.375  -1.949  49.875  1.00  0.00    -0.296 OA
ATOM     17  H1  UNL     1      -3.566  -2.408  50.685  1.00  0.00     0.238 HD
ENDBRANCH  15  16
ENDBRANCH  14  15
ENDBRANCH  13  14
ENDBRANCH  11  13
ENDBRANCH   5  11
BRANCH   7  18
HETATM   18  C7  UNL     1       0.802  -0.166  50.979  1.00  0.00     0.141 C 
BRANCH  18  19
HETATM   19  C8  UNL     1       1.752  -0.007  49.781  1.00  0.00     0.141 C 
BRANCH  19  20
HETATM   20  N6  UNL     1       2.795   0.888  50.208  1.00  0.00    -0.365 N 
HETATM   21  C9  UNL     1       4.044   0.626  50.138  1.00  0.00     0.197 C 
HETATM   22  N7  UNL     1       4.989   1.574  50.585  1.00  0.00    -0.067 NA
HETATM   23  N8  UNL     1       4.476  -0.611  49.613  1.00  0.00    -0.067 NA
ATOM     24  H6  UNL     1       2.519   1.791  50.593  1.00  0.00     0.161 HD
ENDBRANCH  19  20
ENDBRANCH  18  19
ENDBRANCH   7  18
BRANCH   1  25
HETATM   25  N1  UNL     1      -0.601   5.022  53.467  1.00  0.00    -0.234 N 
ATOM     26  H12 UNL     1      -0.158   5.122  54.381  1.00  0.00     0.174 HD
ATOM     27  H11 UNL     1      -0.771   5.826  52.863  1.00  0.00     0.174 HD
ENDBRANCH   1  25
TORSDOF 9
ENDMDL
MODEL 2
REMARK VINA RESULT: -6.880577808      1.237      1.552
REMARK  9 active torsions:
REMARK  status: ('A' for Active; 'I' for Inactive)
REMARK    1  A    between atoms: N1_1  and  C1_4 
REMARK    2  A    between atoms: C3_8  and  N3_9 
REMARK    3  A    between atoms: N3_9  and  C4_11 
REMARK    4  A    between atoms: C4_11  and  C5_12 
REMARK    5  A    between atoms: C5_12  and  N4_13 
REMARK    6  A    between atoms: N4_13  and  O1_14 
REMARK    7  A    between atoms: N5_17  and  C7_19 
REMARK    8  A    between atoms: C7_19  and  C8_20 
REMARK    9  A    between atoms: C8_20  and  N6_21 
ROOT
HETATM    1  C1  UNL     1      -1.127   3.995  53.092  1.00  0.00     0.677 A 
HETATM    2  N2  UNL     1      -2.430   3.664  53.154  1.00  0.00    -0.200 N 
ATOM      3  H2  UNL     1      -3.109   4.299  53.574  1.00  0.00     0.183 HD
HETATM    4  C2  UNL     1      -2.814   2.494  52.659  1.00  0.00     0.139 A 
HETATM    5  C3  UNL     1      -1.886   1.617  52.082  1.00  0.00     0.089 A 
HETATM    6  C6  UNL     1      -0.551   1.944  52.013  1.00  0.00     0.145 A 
HETATM    7  N5  UNL     1       0.339   1.249  51.528  1.00  0.00    -0.372 N 
ATOM      8  H5  UNL     1       1.194   1.793  51.643  1.00  0.00     0.161 HD
HETATM    9  N9  UNL     1      -0.230   3.186  52.552  1.00  0.00    -0.175 N 
ATOM     10  H9  UNL     1       0.744   3.487  52.530  1.00  0.00     0.186 HD
ENDROOT
BRANCH   5  11
HETATM   11  N3  UNL     1      -2.354   0.390  51.572  1.00  0.00    -0.385 N 
ATOM     12  H3  UNL     1      -2.310   0.186  50.574  1.00  0.00     0.159 HD
BRANCH  11  13
HETATM   13  C4  UNL     1      -2.903  -0.585  52.515  1.00  0.00     0.138 C 
BRANCH  13  14
HETATM   14  C5  UNL     1      -1.826  -1.163  53.406  1.00  0.00     0.162 C 
BRANCH  14  15
HETATM   15  N4  UNL     1      -1.394  -2.462  52.927  1.00  0.00    -0.102 NA
BRANCH  15  16
HETATM   16  O1  UNL     1      -1.447  -2.424  51.580  1.00  0.00    -0.296 OA
ATOM     17  H1  UNL     1      -1.930  -3.193  51.299  1.00  0.00     0.238 HD
ENDBRANCH  15  16
ENDBRANCH  14  15
ENDBRANCH  13  14
ENDBRANCH  11  13
ENDBRANCH   5  11
BRANCH   7  18
HETATM   18  C7  UNL     1       0.733   0.095  50.909  1.00  0.00     0.141 C 
BRANCH  18  19
HETATM   19  C8  UNL     1       2.258  -0.056  50.783  1.00  0.00     0.141 C 
BRANCH  19  20
HETATM   20  N6  UNL     1       2.714   1.070  50.012  1.00  0.00    -0.365 N 
HETATM   21  C9  UNL     1       3.880   1.168  49.499  1.00  0.00     0.197 C 
HETATM   22  N7  UNL     1       4.228   2.317  48.757  1.00  0.00    -0.067 NA
HETATM   23  N8  UNL     1       4.817   0.128  49.674  1.00  0.00    -0.067 NA
ATOM     24  H6  UNL     1       2.062   1.841  49.865  1.00  0.00     0.161 HD
ENDBRANCH  19  20
ENDBRANCH  18  19
ENDBRANCH   7  18
BRANCH   1  25
HETATM   25  N1  UNL     1      -0.775   5.156  53.589  1.00  0.00    -0.234 N 
ATOM     26  H12 UNL     1       0.161   5.304  53.967  1.00  0.00     0.174 HD
ATOM     27  H11 UNL     1      -1.474   5.899  53.583  1.00  0.00     0.174 HD
ENDBRANCH   1  25
TORSDOF 9
ENDMDL
MODEL 3
REMARK VINA RESULT: -6.870056362      3.622      4.649
REMARK  9 active torsions:
REMARK  status: ('A' for Active; 'I' for Inactive)
REMARK    1  A    between atoms: N1_1  and  C1_4 
REMARK    2  A    between atoms: C3_8  and  N3_9 
REMARK    3  A    between atoms: N3_9  and  C4_11 
REMARK    4  A    between atoms: C4_11  and  C5_12 
REMARK    5  A    between atoms: C5_12  and  N4_13 
REMARK    6  A    between atoms: N4_13  and  O1_14 
REMARK    7  A    between atoms: N5_17  and  C7_19 
REMARK    8  A    between atoms: C7_19  and  C8_20 
REMARK    9  A    between atoms: C8_20  and  N6_21 
ROOT
HETATM    1  C1  UNL     1       0.703   1.169  52.216  1.00  0.00     0.677 A 
HETATM    2  N2  UNL     1      -0.430   1.676  51.693  1.00  0.00    -0.200 N 
ATOM      3  H2  UNL     1      -0.421   2.569  51.200  1.00  0.00     0.183 HD
HETATM    4  C2  UNL     1      -1.557   0.990  51.834  1.00  0.00     0.139 A 
HETATM    5  C3  UNL     1      -1.574  -0.236  52.510  1.00  0.00     0.089 A 
HETATM    6  C6  UNL     1      -0.422  -0.764  53.050  1.00  0.00     0.145 A 
HETATM    7  N5  UNL     1      -0.331  -1.827  53.658  1.00  0.00    -0.372 N 
ATOM      8  H5  UNL     1       0.655  -1.906  53.911  1.00  0.00     0.161 HD
HETATM    9  N9  UNL     1       0.715   0.014  52.859  1.00  0.00    -0.175 N 
ATOM     10  H9  UNL     1       1.601  -0.323  53.234  1.00  0.00     0.186 HD
ENDROOT
BRANCH   5  11
HETATM   11  N3  UNL     1      -2.801  -0.919  52.627  1.00  0.00    -0.385 N 
ATOM     12  H3  UNL     1      -2.833  -1.892  52.930  1.00  0.00     0.159 HD
BRANCH  11  13
HETATM   13  C4  UNL     1      -4.029  -0.193  52.300  1.00  0.00     0.138 C 
BRANCH  13  14
HETATM   14  C5  UNL     1      -4.806  -0.883  51.202  1.00  0.00     0.162 C 
BRANCH  14  15
HETATM   15  N4  UNL     1      -4.082  -0.840  49.945  1.00  0.00    -0.102 NA
BRANCH  15  16
HETATM   16  O1  UNL     1      -3.373  -1.984  49.860  1.00  0.00    -0.296 OA
ATOM     17  H1  UNL     1      -3.989  -2.702  49.954  1.00  0.00     0.238 HD
ENDBRANCH  15  16
ENDBRANCH  14  15
ENDBRANCH  13  14
ENDBRANCH  11  13
ENDBRANCH   5  11
BRANCH   7  18
HETATM   18  C7  UNL     1      -0.917  -2.956  54.160  1.00  0.00     0.141 C 
BRANCH  18  19
HETATM   19  C8  UNL     1       0.006  -3.787  55.067  1.00  0.00     0.141 C 
BRANCH  19  20
HETATM   20  N6  UNL     1       0.964  -2.867  55.620  1.00  0.00    -0.365 N 
HETATM   21  C9  UNL     1       1.040  -2.562  56.859  1.00  0.00     0.197 C 
HETATM   22  N7  UNL     1       2.019  -1.647  57.300  1.00  0.00    -0.067 NA
HETATM   23  N8  UNL     1       0.144  -3.141  57.783  1.00  0.00    -0.067 NA
ATOM     24  H6  UNL     1       1.628  -2.430  54.981  1.00  0.00     0.161 HD
ENDBRANCH  19  20
ENDBRANCH  18  19
ENDBRANCH   7  18
BRANCH   1  25
HETATM   25  N1  UNL     1       1.803   1.869  52.063  1.00  0.00    -0.234 N 
ATOM     26  H12 UNL     1       2.502   1.603  51.369  1.00  0.00     0.174 HD
ATOM     27  H11 UNL     1       1.927   2.683  52.665  1.00  0.00     0.174 HD
ENDBRANCH   1  25
TORSDOF 9
ENDMDL
MODEL 4
REMARK VINA RESULT: -6.832342139      4.567      8.249
REMARK  9 active torsions:
REMARK  status: ('A' for Active; 'I' for Inactive)
REMARK    1  A    between atoms: N1_1  and  C1_4 
REMARK    2  A    between atoms: C3_8  and  N3_9 
REMARK    3  A    between atoms: N3_9  and  C4_11 
REMARK    4  A    between atoms: C4_11  and  C5_12 
REMARK    5  A    between atoms: C5_12  and  N4_13 
REMARK    6  A    between atoms: N4_13  and  O1_14 
REMARK    7  A    between atoms: N5_17  and  C7_19 
REMARK    8  A    between atoms: C7_19  and  C8_20 
REMARK    9  A    between atoms: C8_20  and  N6_21 
ROOT
HETATM    1  C1  UNL     1      -7.442  -1.300  50.227  1.00  0.00     0.677 A 
HETATM    2  N2  UNL     1      -6.665  -0.515  49.458  1.00  0.00    -0.200 N 
ATOM      3  H2  UNL     1      -6.814  -0.463  48.450  1.00  0.00     0.183 HD
HETATM    4  C2  UNL     1      -5.702   0.191  50.038  1.00  0.00     0.139 A 
HETATM    5  C3  UNL     1      -5.494   0.123  51.421  1.00  0.00     0.089 A 
HETATM    6  C6  UNL     1      -6.281  -0.677  52.218  1.00  0.00     0.145 A 
HETATM    7  N5  UNL     1      -6.181  -0.806  53.436  1.00  0.00    -0.372 N 
ATOM      8  H5  UNL     1      -6.915  -1.465  53.695  1.00  0.00     0.161 HD
HETATM    9  N9  UNL     1      -7.267  -1.382  51.535  1.00  0.00    -0.175 N 
ATOM     10  H9  UNL     1      -7.885  -1.992  52.070  1.00  0.00     0.186 HD
ENDROOT
BRANCH   5  11
HETATM   11  N3  UNL     1      -4.457   0.896  51.980  1.00  0.00    -0.385 N 
ATOM     12  H3  UNL     1      -4.662   1.677  52.602  1.00  0.00     0.159 HD
BRANCH  11  13
HETATM   13  C4  UNL     1      -3.076   0.546  51.642  1.00  0.00     0.138 C 
BRANCH  13  14
HETATM   14  C5  UNL     1      -2.588  -0.633  52.453  1.00  0.00     0.162 C 
BRANCH  14  15
HETATM   15  N4  UNL     1      -2.573  -1.844  51.655  1.00  0.00    -0.102 NA
BRANCH  15  16
HETATM   16  O1  UNL     1      -1.301  -2.294  51.645  1.00  0.00    -0.296 OA
ATOM     17  H1  UNL     1      -1.213  -2.862  50.888  1.00  0.00     0.238 HD
ENDBRANCH  15  16
ENDBRANCH  14  15
ENDBRANCH  13  14
ENDBRANCH  11  13
ENDBRANCH   5  11
BRANCH   7  18
HETATM   18  C7  UNL     1      -5.558  -0.489  54.611  1.00  0.00     0.141 C 
BRANCH  18  19
HETATM   19  C8  UNL     1      -6.483   0.160  55.653  1.00  0.00     0.141 C 
BRANCH  19  20
HETATM   20  N6  UNL     1      -7.531   0.812  54.913  1.00  0.00    -0.365 N 
HETATM   21  C9  UNL     1      -7.655   2.079  54.801  1.00  0.00     0.197 C 
HETATM   22  N7  UNL     1      -8.721   2.618  54.050  1.00  0.00    -0.067 NA
HETATM   23  N8  UNL     1      -6.727   2.936  55.429  1.00  0.00    -0.067 NA
ATOM     24  H6  UNL     1      -8.221   0.223  54.446  1.00  0.00     0.161 HD
ENDBRANCH  19  20
ENDBRANCH  18  19
ENDBRANCH   7  18
BRANCH   1  25
HETATM   25  N1  UNL     1      -8.385  -1.987  49.628  1.00  0.00    -0.234 N 
ATOM     26  H12 UNL     1      -8.351  -2.161  48.623  1.00  0.00     0.174 HD
ATOM     27  H11 UNL     1      -9.150  -2.337  50.206  1.00  0.00     0.174 HD
ENDBRANCH   1  25
TORSDOF 9
ENDMDL
MODEL 5
REMARK VINA RESULT: -6.819811460      4.008      6.139
REMARK  9 active torsions:
REMARK  status: ('A' for Active; 'I' for Inactive)
REMARK    1  A    between atoms: N1_1  and  C1_4 
REMARK    2  A    between atoms: C3_8  and  N3_9 
REMARK    3  A    between atoms: N3_9  and  C4_11 
REMARK    4  A    between atoms: C4_11  and  C5_12 
REMARK    5  A    between atoms: C5_12  and  N4_13 
REMARK    6  A    between atoms: N4_13  and  O1_14 
REMARK    7  A    between atoms: N5_17  and  C7_19 
REMARK    8  A    between atoms: C7_19  and  C8_20 
REMARK    9  A    between atoms: C8_20  and  N6_21 
ROOT
HETATM    1  C1  UNL     1      -6.981  -0.842  51.634  1.00  0.00     0.677 A 
HETATM    2  N2  UNL     1      -7.660   0.320  51.662  1.00  0.00    -0.200 N 
ATOM      3  H2  UNL     1      -8.556   0.410  51.183  1.00  0.00     0.183 HD
HETATM    4  C2  UNL     1      -7.140   1.345  52.325  1.00  0.00     0.139 A 
HETATM    5  C3  UNL     1      -5.910   1.226  52.985  1.00  0.00     0.089 A 
HETATM    6  C6  UNL     1      -5.206   0.042  52.963  1.00  0.00     0.145 A 
HETATM    7  N5  UNL     1      -4.124  -0.165  53.507  1.00  0.00    -0.372 N 
ATOM      8  H5  UNL     1      -3.898  -1.135  53.290  1.00  0.00     0.161 HD
HETATM    9  N9  UNL     1      -5.818  -0.982  52.248  1.00  0.00    -0.175 N 
ATOM     10  H9  UNL     1      -5.347  -1.885  52.196  1.00  0.00     0.186 HD
ENDROOT
BRANCH   5  11
HETATM   11  N3  UNL     1      -5.409   2.348  53.673  1.00  0.00    -0.385 N 
ATOM     12  H3  UNL     1      -5.070   2.267  54.631  1.00  0.00     0.159 HD
BRANCH  11  13
HETATM   13  C4  UNL     1      -5.388   3.634  52.975  1.00  0.00     0.138 C 
BRANCH  13  14
HETATM   14  C5  UNL     1      -3.996   4.224  52.940  1.00  0.00     0.162 C 
BRANCH  14  15
HETATM   15  N4  UNL     1      -4.024   5.599  52.477  1.00  0.00    -0.102 NA
BRANCH  15  16
HETATM   16  O1  UNL     1      -3.277   6.320  53.338  1.00  0.00    -0.296 OA
ATOM     17  H1  UNL     1      -2.562   6.696  52.837  1.00  0.00     0.238 HD
ENDBRANCH  15  16
ENDBRANCH  14  15
ENDBRANCH  13  14
ENDBRANCH  11  13
ENDBRANCH   5  11
BRANCH   7  18
HETATM   18  C7  UNL     1      -3.077   0.283  54.265  1.00  0.00     0.141 C 
BRANCH  18  19
HETATM   19  C8  UNL     1      -1.857   0.729  53.441  1.00  0.00     0.141 C 
BRANCH  19  20
HETATM   20  N6  UNL     1      -0.746  -0.058  53.908  1.00  0.00    -0.365 N 
HETATM   21  C9  UNL     1      -0.206  -1.008  53.245  1.00  0.00     0.197 C 
HETATM   22  N7  UNL     1       0.883  -1.719  53.793  1.00  0.00    -0.067 NA
HETATM   23  N8  UNL     1      -0.698  -1.343  51.966  1.00  0.00    -0.067 NA
ATOM     24  H6  UNL     1      -0.364   0.157  54.828  1.00  0.00     0.161 HD
ENDBRANCH  19  20
ENDBRANCH  18  19
ENDBRANCH   7  18
BRANCH   1  25
HETATM   25  N1  UNL     1      -7.518  -1.838  50.970  1.00  0.00    -0.234 N 
ATOM     26  H12 UNL     1      -7.985  -1.683  50.077  1.00  0.00     0.174 HD
ATOM     27  H11 UNL     1      -7.448  -2.768  51.384  1.00  0.00     0.174 HD
ENDBRANCH   1  25
TORSDOF 9
ENDMDL
