MODEL 1
REMARK VINA RESULT: -8.732472234      0.000      0.000
REMARK  4 active torsions:
REMARK  status: ('A' for Active; 'I' for Inactive)
REMARK    1  A    between atoms: O1_2  and  N1_3 
REMARK    2  A    between atoms: C5_11  and  N3_12 
REMARK    3  A    between atoms: N3_12  and  N4_13 
REMARK    4  A    between atoms: C7_20  and  N7_21 
ROOT
HETATM    1  N3  UNL     1      48.109   4.094  16.572  1.00  0.00    -0.022 N 
HETATM    2  C6  UNL     1      49.442   4.195  16.983  1.00  0.00     0.220 C 
HETATM    3  N5  UNL     1      50.560   4.272  17.335  1.00  0.00    -0.169 NA
ENDROOT
BRANCH   1   4
HETATM    4  C5  UNL     1      47.695   4.623  15.296  1.00  0.00     0.716 A 
HETATM    5  N2  UNL     1      46.965   3.879  14.451  1.00  0.00    -0.165 N 
HETATM    6  C4  UNL     1      46.550   4.314  13.252  1.00  0.00     0.190 A 
ATOM      7  H2  UNL     1      46.713   2.933  14.735  1.00  0.00     0.186 HD
HETATM    8  O2  UNL     1      45.807   3.378  12.542  1.00  0.00    -0.325 OA
HETATM    9  C8  UNL     1      46.907   5.606  12.886  1.00  0.00     0.150 A 
HETATM   10  C3  UNL     1      44.794   3.620  11.554  1.00  0.00     0.266 C 
HETATM   11  C2  UNL     1      45.332   4.411  10.416  1.00  0.00     0.190 C 
HETATM   12  N1  UNL     1      45.227   3.914   9.213  1.00  0.00    -0.245 N 
HETATM   13  O3  UNL     1      45.947   5.650  10.532  1.00  0.00    -0.220 OA
ATOM     14  H1  UNL     1      45.596   4.453   8.430  1.00  0.00     0.196 HD
HETATM   15  N8  UNL     1      46.549   6.222  11.653  1.00  0.00    -0.252 N 
ATOM     16  H8  UNL     1      46.762   7.217  11.580  1.00  0.00     0.195 HD
HETATM   17  C7  UNL     1      47.645   6.381  13.722  1.00  0.00     0.148 A 
HETATM   18  N6  UNL     1      48.022   5.863  14.913  1.00  0.00    -0.172 N 
ATOM     19  H6  UNL     1      48.577   6.441  15.545  1.00  0.00     0.186 HD
BRANCH  12  20
HETATM   20  O1  UNL     1      44.650   2.718   8.958  1.00  0.00    -0.283 OA
HETATM   21  C1  UNL     1      45.310   1.522   8.662  1.00  0.00     0.237 C 
ENDBRANCH  12  20
BRANCH  17  22
HETATM   22  N7  UNL     1      47.954   7.576  13.345  1.00  0.00    -0.383 N 
ATOM     23  H72 UNL     1      48.482   8.169  13.985  1.00  0.00     0.157 HD
ATOM     24  H71 UNL     1      47.696   7.957  12.435  1.00  0.00     0.157 HD
ENDBRANCH  17  22
ENDBRANCH   1   4
BRANCH   1  25
HETATM   25  N4  UNL     1      47.211   3.474  17.429  1.00  0.00    -0.315 N 
ATOM     26  H42 UNL     1      46.806   2.586  17.133  1.00  0.00     0.178 HD
ATOM     27  H41 UNL     1      46.958   3.884  18.327  1.00  0.00     0.178 HD
ENDBRANCH   1  25
TORSDOF 4
ENDMDL
MODEL 2
REMARK VINA RESULT: -8.406159647      0.666      1.243
REMARK  4 active torsions:
REMARK  status: ('A' for Active; 'I' for Inactive)
REMARK    1  A    between atoms: O1_2  and  N1_3 
REMARK    2  A    between atoms: C5_11  and  N3_12 
REMARK    3  A    between atoms: N3_12  and  N4_13 
REMARK    4  A    between atoms: C7_20  and  N7_21 
ROOT
HETATM    1  N3  UNL     1      48.417   4.449  16.156  1.00  0.00    -0.022 N 
HETATM    2  C6  UNL     1      47.679   3.590  16.977  1.00  0.00     0.220 C 
HETATM    3  N5  UNL     1      47.065   2.871  17.674  1.00  0.00    -0.169 NA
ENDROOT
BRANCH   1   4
HETATM    4  C5  UNL     1      47.849   4.956  14.931  1.00  0.00     0.716 A 
HETATM    5  N2  UNL     1      47.144   4.153  14.119  1.00  0.00    -0.165 N 
HETATM    6  C4  UNL     1      46.591   4.565  12.968  1.00  0.00     0.190 A 
ATOM      7  H2  UNL     1      47.022   3.178  14.392  1.00  0.00     0.186 HD
HETATM    8  O2  UNL     1      45.905   3.568  12.287  1.00  0.00    -0.325 OA
HETATM    9  C8  UNL     1      46.772   5.898  12.618  1.00  0.00     0.150 A 
HETATM   10  C3  UNL     1      44.798   3.715  11.384  1.00  0.00     0.266 C 
HETATM   11  C2  UNL     1      45.155   4.587  10.235  1.00  0.00     0.190 C 
HETATM   12  N1  UNL     1      45.013   4.110   9.028  1.00  0.00    -0.245 N 
HETATM   13  O3  UNL     1      45.635   5.886  10.345  1.00  0.00    -0.220 OA
ATOM     14  H1  UNL     1      45.258   4.705   8.238  1.00  0.00     0.196 HD
HETATM   15  N8  UNL     1      46.254   6.497  11.435  1.00  0.00    -0.252 N 
ATOM     16  H8  UNL     1      46.349   7.511  11.378  1.00  0.00     0.195 HD
HETATM   17  C7  UNL     1      47.482   6.733  13.421  1.00  0.00     0.148 A 
HETATM   18  N6  UNL     1      48.004   6.233  14.564  1.00  0.00    -0.172 N 
ATOM     19  H6  UNL     1      48.539   6.856  15.171  1.00  0.00     0.186 HD
BRANCH  12  20
HETATM   20  O1  UNL     1      44.556   2.861   8.779  1.00  0.00    -0.283 OA
HETATM   21  C1  UNL     1      45.323   1.697   8.693  1.00  0.00     0.237 C 
ENDBRANCH  12  20
BRANCH  17  22
HETATM   22  N7  UNL     1      47.625   7.963  13.059  1.00  0.00    -0.383 N 
ATOM     23  H72 UNL     1      48.523   8.257  12.675  1.00  0.00     0.157 HD
ATOM     24  H71 UNL     1      46.883   8.658  13.139  1.00  0.00     0.157 HD
ENDBRANCH  17  22
ENDBRANCH   1   4
BRANCH   1  25
HETATM   25  N4  UNL     1      49.700   4.789  16.559  1.00  0.00    -0.315 N 
ATOM     26  H42 UNL     1      50.482   4.317  16.106  1.00  0.00     0.178 HD
ATOM     27  H41 UNL     1      49.866   5.486  17.284  1.00  0.00     0.178 HD
ENDBRANCH   1  25
TORSDOF 4
ENDMDL
MODEL 3
REMARK VINA RESULT: -7.774855909      2.994      4.240
REMARK  4 active torsions:
REMARK  status: ('A' for Active; 'I' for Inactive)
REMARK    1  A    between atoms: O1_2  and  N1_3 
REMARK    2  A    between atoms: C5_11  and  N3_12 
REMARK    3  A    between atoms: N3_12  and  N4_13 
REMARK    4  A    between atoms: C7_20  and  N7_21 
ROOT
HETATM    1  N3  UNL     1      48.015   4.675  15.333  1.00  0.00    -0.022 N 
HETATM    2  C6  UNL     1      47.829   3.739  16.355  1.00  0.00     0.220 C 
HETATM    3  N5  UNL     1      47.680   2.957  17.219  1.00  0.00    -0.169 NA
ENDROOT
BRANCH   1   4
HETATM    4  C5  UNL     1      47.030   4.826  14.291  1.00  0.00     0.716 A 
HETATM    5  N2  UNL     1      46.647   6.046  13.882  1.00  0.00    -0.165 N 
HETATM    6  C4  UNL     1      45.737   6.252  12.919  1.00  0.00     0.190 A 
ATOM      7  H2  UNL     1      47.071   6.859  14.328  1.00  0.00     0.186 HD
HETATM    8  O2  UNL     1      45.492   7.594  12.655  1.00  0.00    -0.325 OA
HETATM    9  C8  UNL     1      45.173   5.128  12.327  1.00  0.00     0.150 A 
HETATM   10  C3  UNL     1      45.049   8.186  11.424  1.00  0.00     0.266 C 
HETATM   11  C2  UNL     1      43.745   7.617  10.994  1.00  0.00     0.190 C 
HETATM   12  N1  UNL     1      42.750   8.436  10.792  1.00  0.00    -0.245 N 
HETATM   13  O3  UNL     1      43.500   6.266  10.789  1.00  0.00    -0.220 OA
ATOM     14  H1  UNL     1      41.853   8.049  10.497  1.00  0.00     0.196 HD
HETATM   15  N8  UNL     1      44.196   5.166  11.293  1.00  0.00    -0.252 N 
ATOM     16  H8  UNL     1      43.975   4.269  10.861  1.00  0.00     0.195 HD
HETATM   17  C7  UNL     1      45.542   3.881  12.722  1.00  0.00     0.148 A 
HETATM   18  N6  UNL     1      46.467   3.765  13.701  1.00  0.00    -0.172 N 
ATOM     19  H6  UNL     1      46.748   2.832  14.001  1.00  0.00     0.186 HD
BRANCH  12  20
HETATM   20  O1  UNL     1      42.852   9.775  10.955  1.00  0.00    -0.283 OA
HETATM   21  C1  UNL     1      42.355  10.758  10.096  1.00  0.00     0.237 C 
ENDBRANCH  12  20
BRANCH  17  22
HETATM   22  N7  UNL     1      44.994   2.864  12.146  1.00  0.00    -0.383 N 
ATOM     23  H72 UNL     1      45.039   2.797  11.129  1.00  0.00     0.157 HD
ATOM     24  H71 UNL     1      44.519   2.123  12.659  1.00  0.00     0.157 HD
ENDBRANCH  17  22
ENDBRANCH   1   4
BRANCH   1  25
HETATM   25  N4  UNL     1      49.170   5.443  15.359  1.00  0.00    -0.315 N 
ATOM     26  H42 UNL     1      49.817   5.359  14.575  1.00  0.00     0.178 HD
ATOM     27  H41 UNL     1      49.375   6.075  16.133  1.00  0.00     0.178 HD
ENDBRANCH   1  25
TORSDOF 4
ENDMDL
MODEL 4
REMARK VINA RESULT: -7.566232214      3.911      6.860
REMARK  4 active torsions:
REMARK  status: ('A' for Active; 'I' for Inactive)
REMARK    1  A    between atoms: O1_2  and  N1_3 
REMARK    2  A    between atoms: C5_11  and  N3_12 
REMARK    3  A    between atoms: N3_12  and  N4_13 
REMARK    4  A    between atoms: C7_20  and  N7_21 
ROOT
HETATM    1  N3  UNL     1      46.450   2.316   7.590  1.00  0.00    -0.022 N 
HETATM    2  C6  UNL     1      46.832   0.970   7.603  1.00  0.00     0.220 C 
HETATM    3  N5  UNL     1      47.159  -0.158   7.607  1.00  0.00    -0.169 NA
ENDROOT
BRANCH   1   4
HETATM    4  C5  UNL     1      45.850   2.918   8.755  1.00  0.00     0.716 A 
HETATM    5  N2  UNL     1      46.069   4.210   9.047  1.00  0.00    -0.165 N 
HETATM    6  C4  UNL     1      45.541   4.827  10.114  1.00  0.00     0.190 A 
ATOM      7  H2  UNL     1      46.670   4.750   8.424  1.00  0.00     0.186 HD
HETATM    8  O2  UNL     1      45.900   6.164  10.223  1.00  0.00    -0.325 OA
HETATM    9  C8  UNL     1      44.728   4.069  10.948  1.00  0.00     0.150 A 
HETATM   10  C3  UNL     1      45.164   7.228  10.847  1.00  0.00     0.266 C 
HETATM   11  C2  UNL     1      44.905   6.933  12.281  1.00  0.00     0.190 C 
HETATM   12  N1  UNL     1      45.311   7.795  13.173  1.00  0.00    -0.245 N 
HETATM   13  O3  UNL     1      44.259   5.798  12.752  1.00  0.00    -0.220 OA
ATOM     14  H1  UNL     1      45.136   7.595  14.157  1.00  0.00     0.196 HD
HETATM   15  N8  UNL     1      44.089   4.566  12.119  1.00  0.00    -0.252 N 
ATOM     16  H8  UNL     1      43.415   3.936  12.554  1.00  0.00     0.195 HD
HETATM   17  C7  UNL     1      44.489   2.759  10.676  1.00  0.00     0.148 A 
HETATM   18  N6  UNL     1      45.063   2.217   9.578  1.00  0.00    -0.172 N 
ATOM     19  H6  UNL     1      44.887   1.234   9.369  1.00  0.00     0.186 HD
BRANCH  12  20
HETATM   20  O1  UNL     1      45.952   8.941  12.851  1.00  0.00    -0.283 OA
HETATM   21  C1  UNL     1      47.334   9.144  12.831  1.00  0.00     0.237 C 
ENDBRANCH  12  20
BRANCH  17  22
HETATM   22  N7  UNL     1      43.727   2.092  11.476  1.00  0.00    -0.383 N 
ATOM     23  H72 UNL     1      44.072   1.210  11.855  1.00  0.00     0.157 HD
ATOM     24  H71 UNL     1      42.795   2.404  11.747  1.00  0.00     0.157 HD
ENDBRANCH  17  22
ENDBRANCH   1   4
BRANCH   1  25
HETATM   25  N4  UNL     1      46.666   3.039   6.426  1.00  0.00    -0.315 N 
ATOM     26  H42 UNL     1      46.153   3.913   6.305  1.00  0.00     0.178 HD
ATOM     27  H41 UNL     1      47.315   2.718   5.708  1.00  0.00     0.178 HD
ENDBRANCH   1  25
TORSDOF 4
ENDMDL
MODEL 5
REMARK VINA RESULT: -7.474571987      3.517      4.336
REMARK  4 active torsions:
REMARK  status: ('A' for Active; 'I' for Inactive)
REMARK    1  A    between atoms: O1_2  and  N1_3 
REMARK    2  A    between atoms: C5_11  and  N3_12 
REMARK    3  A    between atoms: N3_12  and  N4_13 
REMARK    4  A    between atoms: C7_20  and  N7_21 
ROOT
HETATM    1  N3  UNL     1      47.080   8.777  13.043  1.00  0.00    -0.022 N 
HETATM    2  C6  UNL     1      48.033   9.521  12.339  1.00  0.00     0.220 C 
HETATM    3  N5  UNL     1      48.838  10.147  11.757  1.00  0.00    -0.169 NA
ENDROOT
BRANCH   1   4
HETATM    4  C5  UNL     1      46.149   7.930  12.340  1.00  0.00     0.716 A 
HETATM    5  N2  UNL     1      46.480   6.671  12.012  1.00  0.00    -0.165 N 
HETATM    6  C4  UNL     1      45.659   5.835  11.360  1.00  0.00     0.190 A 
ATOM      7  H2  UNL     1      47.406   6.332  12.273  1.00  0.00     0.186 HD
HETATM    8  O2  UNL     1      46.207   4.580  11.124  1.00  0.00    -0.325 OA
HETATM    9  C8  UNL     1      44.403   6.320  11.014  1.00  0.00     0.150 A 
HETATM   10  C3  UNL     1      45.517   3.330  10.972  1.00  0.00     0.266 C 
HETATM   11  C2  UNL     1      44.551   3.384   9.843  1.00  0.00     0.190 C 
HETATM   12  N1  UNL     1      44.663   2.498   8.891  1.00  0.00    -0.245 N 
HETATM   13  O3  UNL     1      43.527   4.314   9.721  1.00  0.00    -0.220 OA
ATOM     14  H1  UNL     1      44.002   2.533   8.115  1.00  0.00     0.196 HD
HETATM   15  N8  UNL     1      43.412   5.567  10.323  1.00  0.00    -0.252 N 
ATOM     16  H8  UNL     1      42.493   6.004  10.258  1.00  0.00     0.195 HD
HETATM   17  C7  UNL     1      44.041   7.590  11.333  1.00  0.00     0.148 A 
HETATM   18  N6  UNL     1      44.932   8.365  11.992  1.00  0.00    -0.172 N 
ATOM     19  H6  UNL     1      44.666   9.319  12.234  1.00  0.00     0.186 HD
BRANCH  12  20
HETATM   20  O1  UNL     1      45.615   1.538   8.886  1.00  0.00    -0.283 OA
HETATM   21  C1  UNL     1      46.600   1.348   7.915  1.00  0.00     0.237 C 
ENDBRANCH  12  20
BRANCH  17  22
HETATM   22  N7  UNL     1      42.866   8.000  10.994  1.00  0.00    -0.383 N 
ATOM     23  H72 UNL     1      42.067   7.714  11.561  1.00  0.00     0.157 HD
ATOM     24  H71 UNL     1      42.695   8.597  10.185  1.00  0.00     0.157 HD
ENDBRANCH  17  22
ENDBRANCH   1   4
BRANCH   1  25
HETATM   25  N4  UNL     1      47.066   8.884  14.426  1.00  0.00    -0.315 N 
ATOM     26  H42 UNL     1      47.870   9.318  14.879  1.00  0.00     0.178 HD
ATOM     27  H41 UNL     1      46.281   8.543  14.981  1.00  0.00     0.178 HD
ENDBRANCH   1  25
TORSDOF 4
ENDMDL
