MODEL 1
REMARK VINA RESULT: -8.791722451      0.000      0.000
REMARK  5 active torsions:
REMARK  status: ('A' for Active; 'I' for Inactive)
REMARK    1  A    between atoms: C2_3  and  O1_4 
REMARK    2  A    between atoms: C3_6  and  N2_7 
REMARK    3  A    between atoms: N2_7  and  O2_9 
REMARK    4  A    between atoms: N3_11  and  C4_12 
REMARK    5  A    between atoms: C5_15  and  N5_16 
ROOT
HETATM    1  C4  UNL     1      44.734   7.234  11.649  1.00  0.00     0.712 C 
HETATM    2  N4  UNL     1      45.788   7.509  12.473  1.00  0.00    -0.021 N 
ATOM      3  H4  UNL     1      46.326   6.702  12.786  1.00  0.00     0.203 HD
HETATM    4  C5  UNL     1      46.214   8.711  12.930  1.00  0.00     0.693 C 
HETATM    5  N6  UNL     1      46.006   9.904  12.346  1.00  0.00    -0.151 N 
ATOM      6  H6  UNL     1      46.687  10.637  12.546  1.00  0.00     0.188 HD
HETATM    7  C6  UNL     1      44.987  10.233  11.520  1.00  0.00     0.328 C 
HETATM    8  O3  UNL     1      44.936  11.426  11.198  1.00  0.00    -0.261 OA
HETATM    9  C7  UNL     1      43.995   9.426  10.983  1.00  0.00     0.328 C 
HETATM   10  O4  UNL     1      43.120   9.963  10.264  1.00  0.00    -0.261 OA
HETATM   11  N7  UNL     1      43.842   8.099  11.136  1.00  0.00    -0.150 N 
ATOM     12  H7  UNL     1      42.953   7.706  10.830  1.00  0.00     0.188 HD
ENDROOT
BRANCH   1  13
HETATM   13  N3  UNL     1      44.533   5.876  11.274  1.00  0.00    -0.074 N 
HETATM   14  C3  UNL     1      43.556   5.084  11.764  1.00  0.00     0.204 A 
HETATM   15  C2  UNL     1      43.650   3.827  11.186  1.00  0.00     0.194 A 
HETATM   16  N1  UNL     1      44.697   3.874  10.343  1.00  0.00    -0.280 N 
HETATM   17  C1  UNL     1      45.190   2.795   9.508  1.00  0.00     0.163 C 
HETATM   18  C8  UNL     1      45.211   5.112  10.412  1.00  0.00     0.351 A 
HETATM   19  O5  UNL     1      46.204   5.481   9.740  1.00  0.00    -0.245 OA
BRANCH  14  20
HETATM   20  N2  UNL     1      42.559   5.418  12.717  1.00  0.00    -0.248 N 
ATOM     21  H2  UNL     1      41.952   6.228  12.590  1.00  0.00     0.196 HD
BRANCH  20  22
HETATM   22  O2  UNL     1      42.457   4.685  13.713  1.00  0.00    -0.288 OA
ATOM     23  H2  UNL     1      42.016   5.044  14.474  1.00  0.00     0.244 HD
ENDBRANCH  20  22
ENDBRANCH  14  20
BRANCH  15  24
HETATM   24  O1  UNL     1      42.847   2.721  11.408  1.00  0.00    -0.343 OA
ATOM     25  H1  UNL     1      43.150   1.871  11.703  1.00  0.00     0.219 HD
ENDBRANCH  15  24
ENDBRANCH   1  13
BRANCH   4  26
HETATM   26  N5  UNL     1      46.887   8.756  14.024  1.00  0.00    -0.234 N 
ATOM     27  H52 UNL     1      46.323   8.778  14.873  1.00  0.00     0.174 HD
ATOM     28  H51 UNL     1      47.906   8.767  13.975  1.00  0.00     0.174 HD
ENDBRANCH   4  26
TORSDOF 5
ENDMDL
MODEL 2
REMARK VINA RESULT: -8.515265374      1.086      2.428
REMARK  5 active torsions:
REMARK  status: ('A' for Active; 'I' for Inactive)
REMARK    1  A    between atoms: C2_3  and  O1_4 
REMARK    2  A    between atoms: C3_6  and  N2_7 
REMARK    3  A    between atoms: N2_7  and  O2_9 
REMARK    4  A    between atoms: N3_11  and  C4_12 
REMARK    5  A    between atoms: C5_15  and  N5_16 
ROOT
HETATM    1  C4  UNL     1      44.821   7.142  11.813  1.00  0.00     0.712 C 
HETATM    2  N4  UNL     1      45.864   7.479  12.628  1.00  0.00    -0.021 N 
ATOM      3  H4  UNL     1      46.420   6.700  12.978  1.00  0.00     0.203 HD
HETATM    4  C5  UNL     1      46.257   8.710  13.035  1.00  0.00     0.693 C 
HETATM    5  N6  UNL     1      46.022   9.871  12.399  1.00  0.00    -0.151 N 
ATOM      6  H6  UNL     1      46.684  10.629  12.570  1.00  0.00     0.188 HD
HETATM    7  C6  UNL     1      45.000  10.138  11.555  1.00  0.00     0.328 C 
HETATM    8  O3  UNL     1      44.921  11.315  11.181  1.00  0.00    -0.261 OA
HETATM    9  C7  UNL     1      44.031   9.284  11.049  1.00  0.00     0.328 C 
HETATM   10  O4  UNL     1      43.147   9.768  10.303  1.00  0.00    -0.261 OA
HETATM   11  N7  UNL     1      43.911   7.962  11.259  1.00  0.00    -0.150 N 
ATOM     12  H7  UNL     1      43.034   7.534  10.966  1.00  0.00     0.188 HD
ENDROOT
BRANCH   1  13
HETATM   13  N3  UNL     1      44.656   5.764  11.496  1.00  0.00    -0.074 N 
HETATM   14  C3  UNL     1      45.258   5.139  10.464  1.00  0.00     0.204 A 
HETATM   15  C2  UNL     1      44.876   3.806  10.448  1.00  0.00     0.194 A 
HETATM   16  N1  UNL     1      44.036   3.639  11.485  1.00  0.00    -0.280 N 
HETATM   17  C1  UNL     1      43.374   2.410  11.877  1.00  0.00     0.163 C 
HETATM   18  C8  UNL     1      43.919   4.827  12.100  1.00  0.00     0.351 A 
HETATM   19  O5  UNL     1      43.201   5.006  13.113  1.00  0.00    -0.245 OA
BRANCH  14  20
HETATM   20  N2  UNL     1      46.149   5.694   9.508  1.00  0.00    -0.248 N 
ATOM     21  H2  UNL     1      46.780   6.459   9.751  1.00  0.00     0.196 HD
BRANCH  20  22
HETATM   22  O2  UNL     1      46.131   5.211   8.366  1.00  0.00    -0.288 OA
ATOM     23  H2  UNL     1      46.931   5.267   7.857  1.00  0.00     0.244 HD
ENDBRANCH  20  22
ENDBRANCH  14  20
BRANCH  15  24
HETATM   24  O1  UNL     1      45.261   2.817   9.558  1.00  0.00    -0.343 OA
ATOM     25  H1  UNL     1      45.861   2.107   9.751  1.00  0.00     0.219 HD
ENDBRANCH  15  24
ENDBRANCH   1  13
BRANCH   4  26
HETATM   26  N5  UNL     1      46.922   8.819  14.128  1.00  0.00    -0.234 N 
ATOM     27  H52 UNL     1      47.742   8.215  14.193  1.00  0.00     0.174 HD
ATOM     28  H51 UNL     1      46.600   9.477  14.838  1.00  0.00     0.174 HD
ENDBRANCH   4  26
TORSDOF 5
ENDMDL
MODEL 3
REMARK VINA RESULT: -8.409476113      1.999      5.628
REMARK  5 active torsions:
REMARK  status: ('A' for Active; 'I' for Inactive)
REMARK    1  A    between atoms: C2_3  and  O1_4 
REMARK    2  A    between atoms: C3_6  and  N2_7 
REMARK    3  A    between atoms: N2_7  and  O2_9 
REMARK    4  A    between atoms: N3_11  and  C4_12 
REMARK    5  A    between atoms: C5_15  and  N5_16 
ROOT
HETATM    1  C4  UNL     1      45.511   5.503  10.911  1.00  0.00     0.712 C 
HETATM    2  N4  UNL     1      44.894   4.602  11.732  1.00  0.00    -0.021 N 
ATOM      3  H4  UNL     1      44.632   4.952  12.652  1.00  0.00     0.203 HD
HETATM    4  C5  UNL     1      44.585   3.306  11.486  1.00  0.00     0.693 C 
HETATM    5  N6  UNL     1      44.395   2.749  10.277  1.00  0.00    -0.151 N 
ATOM      6  H6  UNL     1      43.795   1.924  10.242  1.00  0.00     0.188 HD
HETATM    7  C6  UNL     1      44.916   3.169   9.102  1.00  0.00     0.328 C 
HETATM    8  O3  UNL     1      44.699   2.428   8.136  1.00  0.00    -0.261 OA
HETATM    9  C7  UNL     1      45.657   4.309   8.827  1.00  0.00     0.328 C 
HETATM   10  O4  UNL     1      46.074   4.474   7.655  1.00  0.00    -0.261 OA
HETATM   11  N7  UNL     1      45.998   5.293   9.676  1.00  0.00    -0.150 N 
ATOM     12  H7  UNL     1      46.702   5.952   9.348  1.00  0.00     0.188 HD
ENDROOT
BRANCH   1  13
HETATM   13  N3  UNL     1      45.671   6.831  11.398  1.00  0.00    -0.074 N 
HETATM   14  C3  UNL     1      44.666   7.720  11.538  1.00  0.00     0.204 A 
HETATM   15  C2  UNL     1      45.172   8.911  12.036  1.00  0.00     0.194 A 
HETATM   16  N1  UNL     1      46.496   8.726  12.194  1.00  0.00    -0.280 N 
HETATM   17  C1  UNL     1      47.456   9.692  12.690  1.00  0.00     0.163 C 
HETATM   18  C8  UNL     1      46.771   7.470  11.805  1.00  0.00     0.351 A 
HETATM   19  O5  UNL     1      47.928   6.983  11.831  1.00  0.00    -0.245 OA
BRANCH  14  20
HETATM   20  N2  UNL     1      43.290   7.535  11.243  1.00  0.00    -0.248 N 
ATOM     21  H2  UNL     1      42.831   6.637  11.394  1.00  0.00     0.196 HD
BRANCH  20  22
HETATM   22  O2  UNL     1      42.669   8.510  10.794  1.00  0.00    -0.288 OA
ATOM     23  H2  UNL     1      42.277   9.104  11.423  1.00  0.00     0.244 HD
ENDBRANCH  20  22
ENDBRANCH  14  20
BRANCH  15  24
HETATM   24  O1  UNL     1      44.486  10.079  12.325  1.00  0.00    -0.343 OA
ATOM     25  H1  UNL     1      44.846  10.831  12.779  1.00  0.00     0.219 HD
ENDBRANCH  15  24
ENDBRANCH   1  13
BRANCH   4  26
HETATM   26  N5  UNL     1      44.451   2.502  12.478  1.00  0.00    -0.234 N 
ATOM     27  H52 UNL     1      44.414   1.514  12.227  1.00  0.00     0.174 HD
ATOM     28  H51 UNL     1      44.391   2.888  13.421  1.00  0.00     0.174 HD
ENDBRANCH   4  26
TORSDOF 5
ENDMDL
MODEL 4
REMARK VINA RESULT: -8.190119597      1.302      5.810
REMARK  5 active torsions:
REMARK  status: ('A' for Active; 'I' for Inactive)
REMARK    1  A    between atoms: C2_3  and  O1_4 
REMARK    2  A    between atoms: C3_6  and  N2_7 
REMARK    3  A    between atoms: N2_7  and  O2_9 
REMARK    4  A    between atoms: N3_11  and  C4_12 
REMARK    5  A    between atoms: C5_15  and  N5_16 
ROOT
HETATM    1  C4  UNL     1      44.563   6.308  11.329  1.00  0.00     0.712 C 
HETATM    2  N4  UNL     1      44.850   5.676  10.152  1.00  0.00    -0.021 N 
ATOM      3  H4  UNL     1      45.455   6.190   9.512  1.00  0.00     0.203 HD
HETATM    4  C5  UNL     1      44.439   4.459   9.722  1.00  0.00     0.693 C 
HETATM    5  N6  UNL     1      44.052   3.430  10.497  1.00  0.00    -0.151 N 
ATOM      6  H6  UNL     1      44.161   2.495  10.104  1.00  0.00     0.188 HD
HETATM    7  C6  UNL     1      43.534   3.507  11.744  1.00  0.00     0.328 C 
HETATM    8  O3  UNL     1      43.140   2.435  12.216  1.00  0.00    -0.261 OA
HETATM    9  C7  UNL     1      43.383   4.614  12.566  1.00  0.00     0.328 C 
HETATM   10  O4  UNL     1      42.833   4.452  13.682  1.00  0.00    -0.261 OA
HETATM   11  N7  UNL     1      43.761   5.880  12.318  1.00  0.00    -0.150 N 
ATOM     12  H7  UNL     1      43.399   6.594  12.950  1.00  0.00     0.188 HD
ENDROOT
BRANCH   1  13
HETATM   13  N3  UNL     1      45.172   7.574  11.558  1.00  0.00    -0.074 N 
HETATM   14  C3  UNL     1      44.611   8.760  11.249  1.00  0.00     0.204 A 
HETATM   15  C2  UNL     1      45.474   9.785  11.606  1.00  0.00     0.194 A 
HETATM   16  N1  UNL     1      46.563   9.198  12.134  1.00  0.00    -0.280 N 
HETATM   17  C1  UNL     1      47.743   9.862  12.653  1.00  0.00     0.163 C 
HETATM   18  C8  UNL     1      46.360   7.871  12.095  1.00  0.00     0.351 A 
HETATM   19  O5  UNL     1      47.196   7.037  12.518  1.00  0.00    -0.245 OA
BRANCH  14  20
HETATM   20  N2  UNL     1      43.344   8.996  10.653  1.00  0.00    -0.248 N 
ATOM     21  H2  UNL     1      42.509   8.501  10.966  1.00  0.00     0.196 HD
BRANCH  20  22
HETATM   22  O2  UNL     1      43.294   9.830   9.736  1.00  0.00    -0.288 OA
ATOM     23  H2  UNL     1      43.131  10.734   9.978  1.00  0.00     0.244 HD
ENDBRANCH  20  22
ENDBRANCH  14  20
BRANCH  15  24
HETATM   24  O1  UNL     1      45.288  11.150  11.463  1.00  0.00    -0.343 OA
ATOM     25  H1  UNL     1      45.508  11.657  10.691  1.00  0.00     0.219 HD
ENDBRANCH  15  24
ENDBRANCH   1  13
BRANCH   4  26
HETATM   26  N5  UNL     1      44.403   4.227   8.460  1.00  0.00    -0.234 N 
ATOM     27  H52 UNL     1      44.050   4.997   7.892  1.00  0.00     0.174 HD
ATOM     28  H51 UNL     1      44.718   3.319   8.117  1.00  0.00     0.174 HD
ENDBRANCH   4  26
TORSDOF 5
ENDMDL
MODEL 5
REMARK VINA RESULT: -8.161046184      2.095      2.663
REMARK  5 active torsions:
REMARK  status: ('A' for Active; 'I' for Inactive)
REMARK    1  A    between atoms: C2_3  and  O1_4 
REMARK    2  A    between atoms: C3_6  and  N2_7 
REMARK    3  A    between atoms: N2_7  and  O2_9 
REMARK    4  A    between atoms: N3_11  and  C4_12 
REMARK    5  A    between atoms: C5_15  and  N5_16 
ROOT
HETATM    1  C4  UNL     1      45.993   5.530  11.831  1.00  0.00     0.712 C 
HETATM    2  N4  UNL     1      46.834   5.134  12.831  1.00  0.00    -0.021 N 
ATOM      3  H4  UNL     1      47.128   4.158  12.801  1.00  0.00     0.203 HD
HETATM    4  C5  UNL     1      47.331   5.865  13.858  1.00  0.00     0.693 C 
HETATM    5  N6  UNL     1      47.487   7.200  13.883  1.00  0.00    -0.151 N 
ATOM      6  H6  UNL     1      48.210   7.565  14.502  1.00  0.00     0.188 HD
HETATM    7  C6  UNL     1      46.784   8.109  13.170  1.00  0.00     0.328 C 
HETATM    8  O3  UNL     1      47.023   9.291  13.446  1.00  0.00    -0.261 OA
HETATM    9  C7  UNL     1      45.837   7.906  12.177  1.00  0.00     0.328 C 
HETATM   10  O4  UNL     1      45.280   8.912  11.677  1.00  0.00    -0.261 OA
HETATM   11  N7  UNL     1      45.424   6.736  11.662  1.00  0.00    -0.150 N 
ATOM     12  H7  UNL     1      44.588   6.765  11.079  1.00  0.00     0.188 HD
ENDROOT
BRANCH   1  13
HETATM   13  N3  UNL     1      45.662   4.568  10.834  1.00  0.00    -0.074 N 
HETATM   14  C3  UNL     1      45.100   3.368  11.086  1.00  0.00     0.204 A 
HETATM   15  C2  UNL     1      44.915   2.687   9.893  1.00  0.00     0.194 A 
HETATM   16  N1  UNL     1      45.374   3.495   8.919  1.00  0.00    -0.280 N 
HETATM   17  C1  UNL     1      45.391   3.216   7.496  1.00  0.00     0.163 C 
HETATM   18  C8  UNL     1      45.817   4.617   9.508  1.00  0.00     0.351 A 
HETATM   19  O5  UNL     1      46.310   5.577   8.868  1.00  0.00    -0.245 OA
BRANCH  14  20
HETATM   20  N2  UNL     1      44.732   2.825  12.345  1.00  0.00    -0.248 N 
ATOM     21  H2  UNL     1      45.306   2.971  13.176  1.00  0.00     0.196 HD
BRANCH  20  22
HETATM   22  O2  UNL     1      43.682   2.166  12.394  1.00  0.00    -0.288 OA
ATOM     23  H2  UNL     1      42.973   2.434  11.822  1.00  0.00     0.244 HD
ENDBRANCH  20  22
ENDBRANCH  14  20
BRANCH  15  24
HETATM   24  O1  UNL     1      44.371   1.428   9.702  1.00  0.00    -0.343 OA
ATOM     25  H1  UNL     1      44.860   0.646   9.478  1.00  0.00     0.219 HD
ENDBRANCH  15  24
ENDBRANCH   1  13
BRANCH   4  26
HETATM   26  N5  UNL     1      47.701   5.258  14.929  1.00  0.00    -0.234 N 
ATOM     27  H52 UNL     1      47.202   5.538  15.773  1.00  0.00     0.174 HD
ATOM     28  H51 UNL     1      48.444   4.562  14.869  1.00  0.00     0.174 HD
ENDBRANCH   4  26
TORSDOF 5
ENDMDL
