MODEL 1
REMARK VINA RESULT: -9.228292314      0.000      0.000
REMARK  7 active torsions:
REMARK  status: ('A' for Active; 'I' for Inactive)
REMARK    1  A    between atoms: C2_2  and  C4_4 
REMARK    2  A    between atoms: C2_2  and  C22_36 
REMARK    3  A    between atoms: C4_4  and  C5_6 
REMARK       I    between atoms: C5_6  and  N1_8 
REMARK    4  A    between atoms: C8_11  and  N2_12 
REMARK    5  A    between atoms: N2_12  and  C9_14 
REMARK    6  A    between atoms: C12_18  and  C13_19 
REMARK    7  A    between atoms: C16_24  and  N4_25 
ROOT
HETATM    1  N2  UNL     1      14.910  47.343  63.779  1.00  0.00    -0.379 N 
ATOM      2  H2  UNL     1      15.478  46.522  63.988  1.00  0.00     0.160 HD
ENDROOT
BRANCH   1   3
HETATM    3  C8  UNL     1      14.125  47.381  62.582  1.00  0.00     0.085 C 
HETATM    4  C7  UNL     1      14.988  47.326  61.368  1.00  0.00     0.045 C 
HETATM    5  C6  UNL     1      14.404  48.051  60.172  1.00  0.00     0.128 C 
HETATM    6  N1  UNL     1      12.942  48.009  60.182  1.00  0.00    -0.345 N 
HETATM    7  C5  UNL     1      12.264  47.714  58.983  1.00  0.00     0.290 C 
HETATM    8  C21 UNL     1      12.209  48.272  61.400  1.00  0.00     0.128 C 
HETATM    9  O2  UNL     1      12.981  47.504  57.968  1.00  0.00    -0.264 OA
HETATM   10  C20 UNL     1      13.209  48.596  62.537  1.00  0.00     0.045 C 
BRANCH   7  11
HETATM   11  C4  UNL     1      10.829  47.635  58.835  1.00  0.00     0.224 C 
HETATM   12  O1  UNL     1      10.230  48.758  58.738  1.00  0.00    -0.286 OA
BRANCH  11  13
HETATM   13  C2  UNL     1       9.998  46.429  58.780  1.00  0.00     0.026 C 
HETATM   14  C1  UNL     1      10.353  45.644  60.099  1.00  0.00     0.024 C 
HETATM   15  C3  UNL     1      10.374  45.538  57.638  1.00  0.00     0.024 C 
BRANCH  13  16
HETATM   16  C22 UNL     1       8.518  46.648  58.900  1.00  0.00     0.001 C 
HETATM   17  C23 UNL     1       7.894  47.049  57.575  1.00  0.00     0.006 C 
HETATM   18  C24 UNL     1       6.391  47.180  57.807  1.00  0.00     0.000 C 
HETATM   19  C25 UNL     1       5.750  45.838  58.031  1.00  0.00     0.000 C 
HETATM   20  C26 UNL     1       6.766  44.869  58.650  1.00  0.00     0.000 C 
HETATM   21  C27 UNL     1       7.691  45.653  59.588  1.00  0.00     0.006 C 
ENDBRANCH  13  16
ENDBRANCH  11  13
ENDBRANCH   7  11
ENDBRANCH   1   3
BRANCH   1  22
HETATM   22  C9  UNL     1      14.898  48.460  64.688  1.00  0.00     0.086 A 
HETATM   23  S1  UNL     1      14.065  48.657  66.156  1.00  0.00    -0.046 SA
HETATM   24  C10 UNL     1      14.593  50.224  66.577  1.00  0.00     0.118 A 
HETATM   25  C11 UNL     1      15.416  50.553  65.543  1.00  0.00    -0.002 A 
HETATM   26  O3  UNL     1      14.352  51.103  67.659  1.00  0.00    -0.343 OA
HETATM   27  C12 UNL     1      15.582  49.641  64.553  1.00  0.00     0.034 A 
HETATM   28  C17 UNL     1      16.060  51.936  65.627  1.00  0.00     0.045 C 
HETATM   29  C18 UNL     1      15.057  52.862  66.264  1.00  0.00     0.031 C 
HETATM   30  C19 UNL     1      14.814  52.431  67.695  1.00  0.00     0.176 C 
BRANCH  27  31
HETATM   31  C13 UNL     1      16.454  49.871  63.362  1.00  0.00     0.064 A 
HETATM   32  C14 UNL     1      16.056  50.720  62.358  1.00  0.00     0.048 A 
HETATM   33  C15 UNL     1      16.870  50.939  61.236  1.00  0.00     0.108 A 
HETATM   34  N3  UNL     1      18.059  50.312  61.139  1.00  0.00    -0.202 N 
HETATM   35  C16 UNL     1      18.417  49.491  62.134  1.00  0.00     0.676 A 
ATOM     36  H3  UNL     1      18.667  50.458  60.333  1.00  0.00     0.183 HD
HETATM   37  N5  UNL     1      17.640  49.262  63.235  1.00  0.00    -0.191 N 
ATOM     38  H5  UNL     1      17.965  48.625  63.962  1.00  0.00     0.184 HD
BRANCH  35  39
HETATM   39  N4  UNL     1      19.541  48.880  62.069  1.00  0.00    -0.234 N 
ATOM     40  H42 UNL     1      20.278  49.185  62.704  1.00  0.00     0.174 HD
ATOM     41  H41 UNL     1      19.660  48.124  61.394  1.00  0.00     0.174 HD
ENDBRANCH  35  39
ENDBRANCH  27  31
ENDBRANCH   1  22
TORSDOF 7
ENDMDL
MODEL 2
REMARK VINA RESULT: -9.207295314      3.632      9.559
REMARK  7 active torsions:
REMARK  status: ('A' for Active; 'I' for Inactive)
REMARK    1  A    between atoms: C2_2  and  C4_4 
REMARK    2  A    between atoms: C2_2  and  C22_36 
REMARK    3  A    between atoms: C4_4  and  C5_6 
REMARK       I    between atoms: C5_6  and  N1_8 
REMARK    4  A    between atoms: C8_11  and  N2_12 
REMARK    5  A    between atoms: N2_12  and  C9_14 
REMARK    6  A    between atoms: C12_18  and  C13_19 
REMARK    7  A    between atoms: C16_24  and  N4_25 
ROOT
HETATM    1  N2  UNL     1      10.952  47.501  57.701  1.00  0.00    -0.379 N 
ATOM      2  H2  UNL     1      10.898  46.555  57.324  1.00  0.00     0.160 HD
ENDROOT
BRANCH   1   3
HETATM    3  C8  UNL     1      12.012  47.853  58.598  1.00  0.00     0.085 C 
HETATM    4  C7  UNL     1      13.345  47.667  57.957  1.00  0.00     0.045 C 
HETATM    5  C6  UNL     1      14.446  47.310  58.935  1.00  0.00     0.128 C 
HETATM    6  N1  UNL     1      14.207  47.901  60.251  1.00  0.00    -0.345 N 
HETATM    7  C5  UNL     1      15.279  48.521  60.922  1.00  0.00     0.290 C 
HETATM    8  C21 UNL     1      12.893  47.846  60.853  1.00  0.00     0.128 C 
HETATM    9  O2  UNL     1      16.391  48.519  60.328  1.00  0.00    -0.264 OA
HETATM   10  C20 UNL     1      11.932  47.083  59.908  1.00  0.00     0.045 C 
BRANCH   7  11
HETATM   11  C4  UNL     1      15.199  49.148  62.221  1.00  0.00     0.224 C 
HETATM   12  O1  UNL     1      15.011  50.411  62.204  1.00  0.00    -0.286 OA
BRANCH  11  13
HETATM   13  C2  UNL     1      15.303  48.507  63.535  1.00  0.00     0.026 C 
HETATM   14  C1  UNL     1      16.513  49.233  64.235  1.00  0.00     0.024 C 
HETATM   15  C3  UNL     1      15.677  47.061  63.427  1.00  0.00     0.024 C 
BRANCH  13  16
HETATM   16  C22 UNL     1      14.162  48.756  64.477  1.00  0.00     0.001 C 
HETATM   17  C23 UNL     1      13.179  47.599  64.498  1.00  0.00     0.006 C 
HETATM   18  C24 UNL     1      12.107  47.938  65.530  1.00  0.00     0.000 C 
HETATM   19  C25 UNL     1      12.652  47.877  66.931  1.00  0.00     0.000 C 
HETATM   20  C26 UNL     1      14.153  48.194  66.923  1.00  0.00     0.000 C 
HETATM   21  C27 UNL     1      14.433  49.236  65.835  1.00  0.00     0.006 C 
ENDBRANCH  13  16
ENDBRANCH  11  13
ENDBRANCH   7  11
ENDBRANCH   1   3
BRANCH   1  22
HETATM   22  C9  UNL     1       9.964  48.481  57.330  1.00  0.00     0.086 A 
HETATM   23  S1  UNL     1      10.164  50.010  56.615  1.00  0.00    -0.046 SA
HETATM   24  C10 UNL     1       8.532  50.497  56.519  1.00  0.00     0.118 A 
HETATM   25  C11 UNL     1       7.868  49.436  57.056  1.00  0.00    -0.002 A 
HETATM   26  O3  UNL     1       7.859  51.648  56.043  1.00  0.00    -0.343 OA
HETATM   27  C12 UNL     1       8.604  48.380  57.482  1.00  0.00     0.034 A 
HETATM   28  C17 UNL     1       6.347  49.571  57.115  1.00  0.00     0.045 C 
HETATM   29  C18 UNL     1       6.034  51.019  57.391  1.00  0.00     0.031 C 
HETATM   30  C19 UNL     1       6.479  51.862  56.214  1.00  0.00     0.176 C 
BRANCH  27  31
HETATM   31  C13 UNL     1       8.006  47.154  58.090  1.00  0.00     0.064 A 
HETATM   32  C14 UNL     1       8.643  46.501  59.117  1.00  0.00     0.048 A 
HETATM   33  C15 UNL     1       8.087  45.348  59.691  1.00  0.00     0.108 A 
HETATM   34  N3  UNL     1       6.911  44.872  59.235  1.00  0.00    -0.202 N 
HETATM   35  C16 UNL     1       6.316  45.532  58.233  1.00  0.00     0.676 A 
ATOM     36  H3  UNL     1       6.489  44.037  59.639  1.00  0.00     0.183 HD
HETATM   37  N5  UNL     1       6.840  46.656  57.658  1.00  0.00    -0.191 N 
ATOM     38  H5  UNL     1       6.341  47.117  56.897  1.00  0.00     0.184 HD
BRANCH  35  39
HETATM   39  N4  UNL     1       5.198  45.103  57.778  1.00  0.00    -0.234 N 
ATOM     40  H42 UNL     1       4.393  45.724  57.851  1.00  0.00     0.174 HD
ATOM     41  H41 UNL     1       5.151  44.171  57.367  1.00  0.00     0.174 HD
ENDBRANCH  35  39
ENDBRANCH  27  31
ENDBRANCH   1  22
TORSDOF 7
ENDMDL
MODEL 3
REMARK VINA RESULT: -9.134470132      1.838      2.800
REMARK  7 active torsions:
REMARK  status: ('A' for Active; 'I' for Inactive)
REMARK    1  A    between atoms: C2_2  and  C4_4 
REMARK    2  A    between atoms: C2_2  and  C22_36 
REMARK    3  A    between atoms: C4_4  and  C5_6 
REMARK       I    between atoms: C5_6  and  N1_8 
REMARK    4  A    between atoms: C8_11  and  N2_12 
REMARK    5  A    between atoms: N2_12  and  C9_14 
REMARK    6  A    between atoms: C12_18  and  C13_19 
REMARK    7  A    between atoms: C16_24  and  N4_25 
ROOT
HETATM    1  N2  UNL     1      14.409  47.911  65.361  1.00  0.00    -0.379 N 
ATOM      2  H2  UNL     1      15.032  47.152  65.639  1.00  0.00     0.160 HD
ENDROOT
BRANCH   1   3
HETATM    3  C8  UNL     1      13.624  47.791  64.170  1.00  0.00     0.085 C 
HETATM    4  C7  UNL     1      12.458  46.887  64.381  1.00  0.00     0.045 C 
HETATM    5  C6  UNL     1      12.026  46.148  63.130  1.00  0.00     0.128 C 
HETATM    6  N1  UNL     1      12.289  46.934  61.925  1.00  0.00    -0.345 N 
HETATM    7  C5  UNL     1      11.292  47.010  60.933  1.00  0.00     0.290 C 
HETATM    8  C21 UNL     1      13.553  47.618  61.756  1.00  0.00     0.128 C 
HETATM    9  O2  UNL     1      10.225  46.380  61.159  1.00  0.00    -0.264 OA
HETATM   10  C20 UNL     1      14.455  47.330  62.981  1.00  0.00     0.045 C 
BRANCH   7  11
HETATM   11  C4  UNL     1      11.403  47.746  59.694  1.00  0.00     0.224 C 
HETATM   12  O1  UNL     1      11.637  48.994  59.823  1.00  0.00    -0.286 OA
BRANCH  11  13
HETATM   13  C2  UNL     1      11.284  47.226  58.329  1.00  0.00     0.026 C 
HETATM   14  C1  UNL     1      10.760  45.751  58.511  1.00  0.00     0.024 C 
HETATM   15  C3  UNL     1      12.611  47.127  57.646  1.00  0.00     0.024 C 
BRANCH  13  16
HETATM   16  C22 UNL     1      10.224  47.862  57.477  1.00  0.00     0.001 C 
HETATM   17  C23 UNL     1       8.894  47.959  58.203  1.00  0.00     0.006 C 
HETATM   18  C24 UNL     1       7.922  48.674  57.268  1.00  0.00     0.000 C 
HETATM   19  C25 UNL     1       8.273  50.130  57.119  1.00  0.00     0.000 C 
HETATM   20  C26 UNL     1       9.781  50.328  57.319  1.00  0.00     0.000 C 
HETATM   21  C27 UNL     1      10.519  49.106  56.761  1.00  0.00     0.006 C 
ENDBRANCH  13  16
ENDBRANCH  11  13
ENDBRANCH   7  11
ENDBRANCH   1   3
BRANCH   1  22
HETATM   22  C9  UNL     1      14.321  49.101  66.168  1.00  0.00     0.086 A 
HETATM   23  S1  UNL     1      13.463  49.374  67.610  1.00  0.00    -0.046 SA
HETATM   24  C10 UNL     1      13.890  51.001  67.894  1.00  0.00     0.118 A 
HETATM   25  C11 UNL     1      14.702  51.288  66.839  1.00  0.00    -0.002 A 
HETATM   26  O3  UNL     1      13.586  51.954  68.894  1.00  0.00    -0.343 OA
HETATM   27  C12 UNL     1      14.933  50.305  65.934  1.00  0.00     0.034 A 
HETATM   28  C17 UNL     1      15.261  52.710  66.804  1.00  0.00     0.045 C 
HETATM   29  C18 UNL     1      14.197  53.625  67.352  1.00  0.00     0.031 C 
HETATM   30  C19 UNL     1      13.966  53.307  68.815  1.00  0.00     0.176 C 
BRANCH  27  31
HETATM   31  C13 UNL     1      15.801  50.483  64.731  1.00  0.00     0.064 A 
HETATM   32  C14 UNL     1      17.158  50.293  64.813  1.00  0.00     0.048 A 
HETATM   33  C15 UNL     1      17.978  50.460  63.687  1.00  0.00     0.108 A 
HETATM   34  N3  UNL     1      17.431  50.810  62.506  1.00  0.00    -0.202 N 
HETATM   35  C16 UNL     1      16.105  50.989  62.459  1.00  0.00     0.676 A 
ATOM     36  H3  UNL     1      18.008  50.935  61.674  1.00  0.00     0.183 HD
HETATM   37  N5  UNL     1      15.288  50.832  63.544  1.00  0.00    -0.191 N 
ATOM     38  H5  UNL     1      14.283  50.982  63.448  1.00  0.00     0.184 HD
BRANCH  35  39
HETATM   39  N4  UNL     1      15.556  51.322  61.351  1.00  0.00    -0.234 N 
ATOM     40  H42 UNL     1      15.841  50.813  60.515  1.00  0.00     0.174 HD
ATOM     41  H41 UNL     1      14.866  52.074  61.342  1.00  0.00     0.174 HD
ENDBRANCH  35  39
ENDBRANCH  27  31
ENDBRANCH   1  22
TORSDOF 7
ENDMDL
MODEL 4
REMARK VINA RESULT: -9.125228013      3.674      9.797
REMARK  7 active torsions:
REMARK  status: ('A' for Active; 'I' for Inactive)
REMARK    1  A    between atoms: C2_2  and  C4_4 
REMARK    2  A    between atoms: C2_2  and  C22_36 
REMARK    3  A    between atoms: C4_4  and  C5_6 
REMARK       I    between atoms: C5_6  and  N1_8 
REMARK    4  A    between atoms: C8_11  and  N2_12 
REMARK    5  A    between atoms: N2_12  and  C9_14 
REMARK    6  A    between atoms: C12_18  and  C13_19 
REMARK    7  A    between atoms: C16_24  and  N4_25 
ROOT
HETATM    1  N2  UNL     1      10.531  47.157  59.078  1.00  0.00    -0.379 N 
ATOM      2  H2  UNL     1       9.582  46.801  59.189  1.00  0.00     0.160 HD
ENDROOT
BRANCH   1   3
HETATM    3  C8  UNL     1      11.426  47.166  60.195  1.00  0.00     0.085 C 
HETATM    4  C7  UNL     1      10.832  46.464  61.368  1.00  0.00     0.045 C 
HETATM    5  C6  UNL     1      11.301  47.005  62.704  1.00  0.00     0.128 C 
HETATM    6  N1  UNL     1      12.667  47.523  62.622  1.00  0.00    -0.345 N 
HETATM    7  C5  UNL     1      13.579  47.195  63.643  1.00  0.00     0.290 C 
HETATM    8  C21 UNL     1      13.068  48.361  61.513  1.00  0.00     0.128 C 
HETATM    9  O2  UNL     1      13.144  46.466  64.574  1.00  0.00    -0.264 OA
HETATM   10  C20 UNL     1      11.857  48.576  60.572  1.00  0.00     0.045 C 
BRANCH   7  11
HETATM   11  C4  UNL     1      14.957  47.629  63.700  1.00  0.00     0.224 C 
HETATM   12  O1  UNL     1      15.794  46.852  63.130  1.00  0.00    -0.286 OA
BRANCH  11  13
HETATM   13  C2  UNL     1      15.490  48.842  64.325  1.00  0.00     0.026 C 
HETATM   14  C1  UNL     1      16.424  48.316  65.480  1.00  0.00     0.024 C 
HETATM   15  C3  UNL     1      14.418  49.656  64.981  1.00  0.00     0.024 C 
BRANCH  13  16
HETATM   16  C22 UNL     1      16.420  49.660  63.478  1.00  0.00     0.001 C 
HETATM   17  C23 UNL     1      15.667  50.574  62.528  1.00  0.00     0.006 C 
HETATM   18  C24 UNL     1      16.710  51.393  61.771  1.00  0.00     0.000 C 
HETATM   19  C25 UNL     1      17.377  52.400  62.669  1.00  0.00     0.000 C 
HETATM   20  C26 UNL     1      17.378  51.890  64.116  1.00  0.00     0.000 C 
HETATM   21  C27 UNL     1      17.541  50.366  64.104  1.00  0.00     0.006 C 
ENDBRANCH  13  16
ENDBRANCH  11  13
ENDBRANCH   7  11
ENDBRANCH   1   3
BRANCH   1  22
HETATM   22  C9  UNL     1      10.969  47.649  57.797  1.00  0.00     0.086 A 
HETATM   23  S1  UNL     1      12.416  47.352  56.955  1.00  0.00    -0.046 SA
HETATM   24  C10 UNL     1      12.135  48.292  55.560  1.00  0.00     0.118 A 
HETATM   25  C11 UNL     1      10.901  48.819  55.795  1.00  0.00    -0.002 A 
HETATM   26  O3  UNL     1      12.863  48.571  54.379  1.00  0.00    -0.343 OA
HETATM   27  C12 UNL     1      10.285  48.491  56.957  1.00  0.00     0.034 A 
HETATM   28  C17 UNL     1      10.355  49.735  54.700  1.00  0.00     0.045 C 
HETATM   29  C18 UNL     1      11.523  50.489  54.121  1.00  0.00     0.031 C 
HETATM   30  C19 UNL     1      12.453  49.518  53.423  1.00  0.00     0.176 C 
BRANCH  27  31
HETATM   31  C13 UNL     1       8.933  48.997  57.342  1.00  0.00     0.064 A 
HETATM   32  C14 UNL     1       7.892  48.125  57.547  1.00  0.00     0.048 A 
HETATM   33  C15 UNL     1       6.620  48.595  57.908  1.00  0.00     0.108 A 
HETATM   34  N3  UNL     1       6.413  49.919  58.057  1.00  0.00    -0.202 N 
HETATM   35  C16 UNL     1       7.448  50.742  57.850  1.00  0.00     0.676 A 
ATOM     36  H3  UNL     1       5.496  50.281  58.321  1.00  0.00     0.183 HD
HETATM   37  N5  UNL     1       8.694  50.306  57.497  1.00  0.00    -0.191 N 
ATOM     38  H5  UNL     1       9.446  50.980  57.352  1.00  0.00     0.184 HD
BRANCH  35  39
HETATM   39  N4  UNL     1       7.281  52.004  57.984  1.00  0.00    -0.234 N 
ATOM     40  H42 UNL     1       6.631  52.462  57.346  1.00  0.00     0.174 HD
ATOM     41  H41 UNL     1       7.796  52.501  58.711  1.00  0.00     0.174 HD
ENDBRANCH  35  39
ENDBRANCH  27  31
ENDBRANCH   1  22
TORSDOF 7
ENDMDL
MODEL 5
REMARK VINA RESULT: -9.120683993      2.742      9.401
REMARK  7 active torsions:
REMARK  status: ('A' for Active; 'I' for Inactive)
REMARK    1  A    between atoms: C2_2  and  C4_4 
REMARK    2  A    between atoms: C2_2  and  C22_36 
REMARK    3  A    between atoms: C4_4  and  C5_6 
REMARK       I    between atoms: C5_6  and  N1_8 
REMARK    4  A    between atoms: C8_11  and  N2_12 
REMARK    5  A    between atoms: N2_12  and  C9_14 
REMARK    6  A    between atoms: C12_18  and  C13_19 
REMARK    7  A    between atoms: C16_24  and  N4_25 
ROOT
HETATM    1  N2  UNL     1      15.290  47.539  65.154  1.00  0.00    -0.379 N 
ATOM      2  H2  UNL     1      15.769  46.680  65.424  1.00  0.00     0.160 HD
ENDROOT
BRANCH   1   3
HETATM    3  C8  UNL     1      15.522  48.747  65.887  1.00  0.00     0.085 C 
HETATM    4  C7  UNL     1      16.577  48.556  66.921  1.00  0.00     0.045 C 
HETATM    5  C6  UNL     1      16.400  49.437  68.142  1.00  0.00     0.128 C 
HETATM    6  N1  UNL     1      15.762  50.708  67.797  1.00  0.00    -0.345 N 
HETATM    7  C5  UNL     1      16.286  51.898  68.338  1.00  0.00     0.290 C 
HETATM    8  C21 UNL     1      14.612  50.737  66.921  1.00  0.00     0.128 C 
HETATM    9  O2  UNL     1      17.286  51.780  69.095  1.00  0.00    -0.264 OA
HETATM   10  C20 UNL     1      14.245  49.289  66.513  1.00  0.00     0.045 C 
BRANCH   7  11
HETATM   11  C4  UNL     1      15.768  53.225  68.090  1.00  0.00     0.224 C 
HETATM   12  O1  UNL     1      16.387  53.890  67.194  1.00  0.00    -0.286 OA
BRANCH  11  13
HETATM   13  C2  UNL     1      14.628  53.877  68.738  1.00  0.00     0.026 C 
HETATM   14  C1  UNL     1      13.560  54.041  67.591  1.00  0.00     0.024 C 
HETATM   15  C3  UNL     1      14.962  55.257  69.211  1.00  0.00     0.024 C 
BRANCH  13  16
HETATM   16  C22 UNL     1      13.903  53.058  69.766  1.00  0.00     0.001 C 
HETATM   17  C23 UNL     1      14.280  53.459  71.181  1.00  0.00     0.006 C 
HETATM   18  C24 UNL     1      13.440  52.608  72.129  1.00  0.00     0.000 C 
HETATM   19  C25 UNL     1      11.991  53.011  72.094  1.00  0.00     0.000 C 
HETATM   20  C26 UNL     1      11.644  53.596  70.718  1.00  0.00     0.000 C 
HETATM   21  C27 UNL     1      12.456  52.859  69.647  1.00  0.00     0.006 C 
ENDBRANCH  13  16
ENDBRANCH  11  13
ENDBRANCH   7  11
ENDBRANCH   1   3
BRANCH   1  22
HETATM   22  C9  UNL     1      14.384  47.534  64.034  1.00  0.00     0.086 A 
HETATM   23  S1  UNL     1      12.916  46.701  63.828  1.00  0.00    -0.046 SA
HETATM   24  C10 UNL     1      12.498  47.240  62.265  1.00  0.00     0.118 A 
HETATM   25  C11 UNL     1      13.531  48.067  61.944  1.00  0.00    -0.002 A 
HETATM   26  O3  UNL     1      11.418  47.005  61.382  1.00  0.00    -0.343 OA
HETATM   27  C12 UNL     1      14.519  48.228  62.859  1.00  0.00     0.034 A 
HETATM   28  C17 UNL     1      13.449  48.723  60.566  1.00  0.00     0.045 C 
HETATM   29  C18 UNL     1      12.816  47.726  59.631  1.00  0.00     0.031 C 
HETATM   30  C19 UNL     1      11.384  47.477  60.057  1.00  0.00     0.176 C 
BRANCH  27  31
HETATM   31  C13 UNL     1      15.710  49.103  62.638  1.00  0.00     0.064 A 
HETATM   32  C14 UNL     1      15.593  50.470  62.694  1.00  0.00     0.048 A 
HETATM   33  C15 UNL     1      16.707  51.297  62.486  1.00  0.00     0.108 A 
HETATM   34  N3  UNL     1      17.911  50.747  62.230  1.00  0.00    -0.202 N 
HETATM   35  C16 UNL     1      17.991  49.411  62.181  1.00  0.00     0.676 A 
ATOM     36  H3  UNL     1      18.734  51.330  62.077  1.00  0.00     0.183 HD
HETATM   37  N5  UNL     1      16.919  48.587  62.380  1.00  0.00    -0.191 N 
ATOM     38  H5  UNL     1      17.040  47.576  62.331  1.00  0.00     0.184 HD
BRANCH  35  39
HETATM   39  N4  UNL     1      19.121  48.860  61.939  1.00  0.00    -0.234 N 
ATOM     40  H42 UNL     1      19.819  49.418  61.448  1.00  0.00     0.174 HD
ATOM     41  H41 UNL     1      19.282  47.899  62.240  1.00  0.00     0.174 HD
ENDBRANCH  35  39
ENDBRANCH  27  31
ENDBRANCH   1  22
TORSDOF 7
ENDMDL
