MODEL 1
REMARK VINA RESULT: -8.345146934      0.000      0.000
REMARK  8 active torsions:
REMARK  status: ('A' for Active; 'I' for Inactive)
REMARK    1  A    between atoms: S1_2  and  C2_3 
REMARK    2  A    between atoms: N1_6  and  C5_7 
REMARK    3  A    between atoms: N3_12  and  C8_13 
REMARK    4  A    between atoms: C8_13  and  C9_14 
REMARK    5  A    between atoms: C10_15  and  N4_16 
REMARK       I    between atoms: N4_16  and  C11_18 
REMARK       I    between atoms: C11_18  and  N5_20 
REMARK    6  A    between atoms: N5_20  and  C12_22 
REMARK    7  A    between atoms: C24_35  and  C25_36 
REMARK    8  A    between atoms: C25_36  and  N6_37 
ROOT
HETATM    1  C5  UNL     1       9.013  49.978  55.755  1.00  0.00     0.683 A 
HETATM    2  N2  UNL     1       9.308  50.032  54.432  1.00  0.00    -0.193 N 
ATOM      3  H2  UNL     1       8.699  50.422  53.713  1.00  0.00     0.184 HD
HETATM    4  C6  UNL     1      10.496  49.508  54.211  1.00  0.00     0.055 A 
HETATM    5  C7  UNL     1      10.971  49.108  55.452  1.00  0.00     0.053 A 
HETATM    6  N3  UNL     1      10.035  49.411  56.415  1.00  0.00    -0.181 N 
HETATM    7  C22 UNL     1      12.283  48.510  55.200  1.00  0.00     0.060 C 
HETATM    8  C23 UNL     1      12.374  48.192  53.728  1.00  0.00     0.018 C 
HETATM    9  C24 UNL     1      11.476  49.211  53.123  1.00  0.00     0.064 C 
ENDROOT
BRANCH   6  10
HETATM   10  C8  UNL     1      10.134  49.284  57.827  1.00  0.00     0.189 C 
BRANCH  10  11
HETATM   11  C9  UNL     1      10.106  47.864  58.381  1.00  0.00     0.002 A 
HETATM   12  C10 UNL     1      11.110  47.426  59.191  1.00  0.00     0.086 A 
HETATM   13  S2  UNL     1      10.422  45.862  59.728  1.00  0.00    -0.076 SA
HETATM   14  C16 UNL     1       8.987  45.887  58.909  1.00  0.00    -0.008 A 
HETATM   15  C17 UNL     1       9.015  47.081  58.224  1.00  0.00    -0.034 A 
HETATM   16  C21 UNL     1       7.815  44.962  58.798  1.00  0.00     0.046 C 
HETATM   17  C18 UNL     1       7.747  47.219  57.355  1.00  0.00     0.040 C 
HETATM   18  C19 UNL     1       6.633  47.062  58.329  1.00  0.00     0.005 C 
HETATM   19  C20 UNL     1       6.496  45.634  58.725  1.00  0.00     0.005 C 
BRANCH  12  20
HETATM   20  N4  UNL     1      12.441  47.737  59.513  1.00  0.00    -0.302 N 
HETATM   21  C11 UNL     1      13.110  47.969  60.681  1.00  0.00     0.321 C 
HETATM   22  O1  UNL     1      12.695  48.005  61.856  1.00  0.00    -0.247 OA
HETATM   23  N5  UNL     1      14.554  48.225  60.625  1.00  0.00    -0.335 N 
ATOM     24  H5  UNL     1      15.017  48.222  59.716  1.00  0.00     0.165 HD
ATOM     25  H4  UNL     1      13.042  47.804  58.692  1.00  0.00     0.171 HD
BRANCH  23  26
HETATM   26  C12 UNL     1      15.333  48.478  61.786  1.00  0.00     0.023 C 
HETATM   27  C13 UNL     1      15.319  47.313  62.764  1.00  0.00     0.037 C 
HETATM   28  C14 UNL     1      14.913  49.721  62.533  1.00  0.00     0.037 C 
HETATM   29  C15 UNL     1      16.799  48.700  61.415  1.00  0.00     0.037 C 
ENDBRANCH  23  26
ENDBRANCH  12  20
ENDBRANCH  10  11
ENDBRANCH   6  10
BRANCH   1  30
HETATM   30  N1  UNL     1       7.720  50.420  56.158  1.00  0.00    -0.216 N 
HETATM   31  C4  UNL     1       6.505  50.302  55.361  1.00  0.00     0.142 C 
HETATM   32  C3  UNL     1       5.877  51.662  55.647  1.00  0.00     0.037 C 
HETATM   33  C2  UNL     1       6.054  51.779  57.140  1.00  0.00     0.067 C 
HETATM   34  C26 UNL     1       7.363  51.080  57.390  1.00  0.00     0.156 C 
BRANCH  33  35
HETATM   35  S1  UNL     1       6.113  53.520  57.640  1.00  0.00    -0.167 SA
HETATM   36  C1  UNL     1       6.652  53.648  59.353  1.00  0.00     0.090 C 
ENDBRANCH  33  35
ENDBRANCH   1  30
BRANCH   9  37
HETATM   37  C25 UNL     1      12.182  50.515  52.815  1.00  0.00     0.240 C 
BRANCH  37  38
HETATM   38  N6  UNL     1      12.055  50.852  51.409  1.00  0.00    -0.079 N 
ATOM     39  H63 UNL     1      12.639  50.256  50.824  1.00  0.00     0.274 HD
ATOM     40  H62 UNL     1      11.143  50.587  51.039  1.00  0.00     0.274 HD
ATOM     41  H61 UNL     1      12.251  51.841  51.253  1.00  0.00     0.274 HD
ENDBRANCH  37  38
ENDBRANCH   9  37
TORSDOF 8
ENDMDL
MODEL 2
REMARK VINA RESULT: -8.148466457      4.621      9.849
REMARK  8 active torsions:
REMARK  status: ('A' for Active; 'I' for Inactive)
REMARK    1  A    between atoms: S1_2  and  C2_3 
REMARK    2  A    between atoms: N1_6  and  C5_7 
REMARK    3  A    between atoms: N3_12  and  C8_13 
REMARK    4  A    between atoms: C8_13  and  C9_14 
REMARK    5  A    between atoms: C10_15  and  N4_16 
REMARK       I    between atoms: N4_16  and  C11_18 
REMARK       I    between atoms: C11_18  and  N5_20 
REMARK    6  A    between atoms: N5_20  and  C12_22 
REMARK    7  A    between atoms: C24_35  and  C25_36 
REMARK    8  A    between atoms: C25_36  and  N6_37 
ROOT
HETATM    1  C5  UNL     1      16.536  50.832  63.970  1.00  0.00     0.683 A 
HETATM    2  N2  UNL     1      16.940  51.653  62.968  1.00  0.00    -0.193 N 
ATOM      3  H2  UNL     1      17.155  52.644  63.076  1.00  0.00     0.184 HD
HETATM    4  C6  UNL     1      17.013  50.984  61.836  1.00  0.00     0.055 A 
HETATM    5  C7  UNL     1      16.641  49.682  62.140  1.00  0.00     0.053 A 
HETATM    6  N3  UNL     1      16.347  49.596  63.483  1.00  0.00    -0.181 N 
HETATM    7  C22 UNL     1      16.706  48.946  60.877  1.00  0.00     0.060 C 
HETATM    8  C23 UNL     1      16.719  49.952  59.753  1.00  0.00     0.018 C 
HETATM    9  C24 UNL     1      17.353  51.136  60.390  1.00  0.00     0.064 C 
ENDROOT
BRANCH   6  10
HETATM   10  C8  UNL     1      16.028  48.446  64.255  1.00  0.00     0.189 C 
BRANCH  10  11
HETATM   11  C9  UNL     1      14.561  48.267  64.627  1.00  0.00     0.002 A 
HETATM   12  C10 UNL     1      13.654  47.903  63.678  1.00  0.00     0.086 A 
HETATM   13  S2  UNL     1      12.225  47.590  64.711  1.00  0.00    -0.076 SA
HETATM   14  C16 UNL     1      12.865  47.943  66.194  1.00  0.00    -0.008 A 
HETATM   15  C17 UNL     1      14.166  48.297  65.920  1.00  0.00    -0.034 A 
HETATM   16  C21 UNL     1      12.345  47.941  67.599  1.00  0.00     0.046 C 
HETATM   17  C18 UNL     1      14.883  48.716  67.221  1.00  0.00     0.040 C 
HETATM   18  C19 UNL     1      14.711  47.537  68.113  1.00  0.00     0.005 C 
HETATM   19  C20 UNL     1      13.314  47.476  68.619  1.00  0.00     0.005 C 
BRANCH  12  20
HETATM   20  N4  UNL     1      13.504  47.902  62.282  1.00  0.00    -0.302 N 
HETATM   21  C11 UNL     1      12.465  47.640  61.435  1.00  0.00     0.321 C 
HETATM   22  O1  UNL     1      11.298  47.276  61.677  1.00  0.00    -0.247 OA
HETATM   23  N5  UNL     1      12.680  47.791  59.991  1.00  0.00    -0.335 N 
ATOM     24  H5  UNL     1      13.599  48.087  59.661  1.00  0.00     0.165 HD
ATOM     25  H4  UNL     1      14.363  48.151  61.791  1.00  0.00     0.171 HD
BRANCH  23  26
HETATM   26  C12 UNL     1      11.660  47.540  59.034  1.00  0.00     0.023 C 
HETATM   27  C13 UNL     1      10.857  48.787  58.695  1.00  0.00     0.037 C 
HETATM   28  C14 UNL     1      10.693  46.461  59.456  1.00  0.00     0.037 C 
HETATM   29  C15 UNL     1      12.264  47.055  57.716  1.00  0.00     0.037 C 
ENDBRANCH  23  26
ENDBRANCH  12  20
ENDBRANCH  10  11
ENDBRANCH   6  10
BRANCH   1  30
HETATM   30  N1  UNL     1      16.313  51.418  65.250  1.00  0.00    -0.216 N 
HETATM   31  C4  UNL     1      15.057  52.011  65.695  1.00  0.00     0.142 C 
HETATM   32  C3  UNL     1      15.597  53.239  66.422  1.00  0.00     0.037 C 
HETATM   33  C2  UNL     1      16.734  52.653  67.220  1.00  0.00     0.067 C 
HETATM   34  C26 UNL     1      17.263  51.565  66.325  1.00  0.00     0.156 C 
BRANCH  33  35
HETATM   35  S1  UNL     1      17.990  53.915  67.559  1.00  0.00    -0.167 SA
HETATM   36  C1  UNL     1      18.903  54.292  66.054  1.00  0.00     0.090 C 
ENDBRANCH  33  35
ENDBRANCH   1  30
BRANCH   9  37
HETATM   37  C25 UNL     1      18.864  51.120  60.300  1.00  0.00     0.240 C 
BRANCH  37  38
HETATM   38  N6  UNL     1      19.300  50.751  58.967  1.00  0.00    -0.079 N 
ATOM     39  H63 UNL     1      18.851  49.893  58.648  1.00  0.00     0.274 HD
ATOM     40  H62 UNL     1      18.934  51.388  58.261  1.00  0.00     0.274 HD
ATOM     41  H61 UNL     1      20.317  50.682  58.922  1.00  0.00     0.274 HD
ENDBRANCH  37  38
ENDBRANCH   9  37
TORSDOF 8
ENDMDL
MODEL 3
REMARK VINA RESULT: -8.111966786      4.686      9.668
REMARK  8 active torsions:
REMARK  status: ('A' for Active; 'I' for Inactive)
REMARK    1  A    between atoms: S1_2  and  C2_3 
REMARK    2  A    between atoms: N1_6  and  C5_7 
REMARK    3  A    between atoms: N3_12  and  C8_13 
REMARK    4  A    between atoms: C8_13  and  C9_14 
REMARK    5  A    between atoms: C10_15  and  N4_16 
REMARK       I    between atoms: N4_16  and  C11_18 
REMARK       I    between atoms: C11_18  and  N5_20 
REMARK    6  A    between atoms: N5_20  and  C12_22 
REMARK    7  A    between atoms: C24_35  and  C25_36 
REMARK    8  A    between atoms: C25_36  and  N6_37 
ROOT
HETATM    1  C5  UNL     1      16.354  50.938  63.808  1.00  0.00     0.683 A 
HETATM    2  N2  UNL     1      16.696  51.598  62.674  1.00  0.00    -0.193 N 
ATOM      3  H2  UNL     1      16.880  52.599  62.614  1.00  0.00     0.184 HD
HETATM    4  C6  UNL     1      16.755  50.757  61.661  1.00  0.00     0.055 A 
HETATM    5  C7  UNL     1      16.438  49.511  62.184  1.00  0.00     0.053 A 
HETATM    6  N3  UNL     1      16.192  49.634  63.533  1.00  0.00    -0.181 N 
HETATM    7  C22 UNL     1      16.487  48.583  61.053  1.00  0.00     0.060 C 
HETATM    8  C23 UNL     1      16.428  49.395  59.782  1.00  0.00     0.018 C 
HETATM    9  C24 UNL     1      17.041  50.685  60.197  1.00  0.00     0.064 C 
ENDROOT
BRANCH   6  10
HETATM   10  C8  UNL     1      15.938  48.615  64.490  1.00  0.00     0.189 C 
BRANCH  10  11
HETATM   11  C9  UNL     1      14.488  48.440  64.924  1.00  0.00     0.002 A 
HETATM   12  C10 UNL     1      13.518  48.221  63.993  1.00  0.00     0.086 A 
HETATM   13  S2  UNL     1      12.135  47.833  65.065  1.00  0.00    -0.076 SA
HETATM   14  C16 UNL     1      12.868  47.986  66.539  1.00  0.00    -0.008 A 
HETATM   15  C17 UNL     1      14.165  48.328  66.232  1.00  0.00    -0.034 A 
HETATM   16  C21 UNL     1      12.425  47.833  67.961  1.00  0.00     0.046 C 
HETATM   17  C18 UNL     1      14.967  48.566  67.529  1.00  0.00     0.040 C 
HETATM   18  C19 UNL     1      14.798  47.295  68.286  1.00  0.00     0.005 C 
HETATM   19  C20 UNL     1      13.429  47.219  68.862  1.00  0.00     0.005 C 
BRANCH  12  20
HETATM   20  N4  UNL     1      13.292  48.391  62.618  1.00  0.00    -0.302 N 
HETATM   21  C11 UNL     1      12.468  47.795  61.706  1.00  0.00     0.321 C 
HETATM   22  O1  UNL     1      11.662  46.854  61.840  1.00  0.00    -0.247 OA
HETATM   23  N5  UNL     1      12.479  48.286  60.323  1.00  0.00    -0.335 N 
ATOM     24  H5  UNL     1      13.099  49.059  60.083  1.00  0.00     0.165 HD
ATOM     25  H4  UNL     1      13.873  49.122  62.208  1.00  0.00     0.171 HD
BRANCH  23  26
HETATM   26  C12 UNL     1      11.659  47.728  59.306  1.00  0.00     0.023 C 
HETATM   27  C13 UNL     1      10.803  48.773  58.605  1.00  0.00     0.037 C 
HETATM   28  C14 UNL     1      10.746  46.633  59.802  1.00  0.00     0.037 C 
HETATM   29  C15 UNL     1      12.515  47.084  58.215  1.00  0.00     0.037 C 
ENDBRANCH  23  26
ENDBRANCH  12  20
ENDBRANCH  10  11
ENDBRANCH   6  10
BRANCH   1  30
HETATM   30  N1  UNL     1      16.153  51.715  64.985  1.00  0.00    -0.216 N 
HETATM   31  C4  UNL     1      17.174  52.003  65.987  1.00  0.00     0.142 C 
HETATM   32  C3  UNL     1      16.343  51.835  67.256  1.00  0.00     0.037 C 
HETATM   33  C2  UNL     1      15.084  52.587  66.905  1.00  0.00     0.067 C 
HETATM   34  C26 UNL     1      14.929  52.336  65.429  1.00  0.00     0.156 C 
BRANCH  33  35
HETATM   35  S1  UNL     1      13.676  51.945  67.848  1.00  0.00    -0.167 SA
HETATM   36  C1  UNL     1      14.179  51.605  69.544  1.00  0.00     0.090 C 
ENDBRANCH  33  35
ENDBRANCH   1  30
BRANCH   9  37
HETATM   37  C25 UNL     1      18.549  50.698  60.054  1.00  0.00     0.240 C 
BRANCH  37  38
HETATM   38  N6  UNL     1      19.026  52.029  59.730  1.00  0.00    -0.079 N 
ATOM     39  H63 UNL     1      19.588  52.032  58.880  1.00  0.00     0.274 HD
ATOM     40  H62 UNL     1      18.269  52.635  59.417  1.00  0.00     0.274 HD
ATOM     41  H61 UNL     1      19.533  52.436  60.517  1.00  0.00     0.274 HD
ENDBRANCH  37  38
ENDBRANCH   9  37
TORSDOF 8
ENDMDL
MODEL 4
REMARK VINA RESULT: -7.960327072      5.886      9.250
REMARK  8 active torsions:
REMARK  status: ('A' for Active; 'I' for Inactive)
REMARK    1  A    between atoms: S1_2  and  C2_3 
REMARK    2  A    between atoms: N1_6  and  C5_7 
REMARK    3  A    between atoms: N3_12  and  C8_13 
REMARK    4  A    between atoms: C8_13  and  C9_14 
REMARK    5  A    between atoms: C10_15  and  N4_16 
REMARK       I    between atoms: N4_16  and  C11_18 
REMARK       I    between atoms: C11_18  and  N5_20 
REMARK    6  A    between atoms: N5_20  and  C12_22 
REMARK    7  A    between atoms: C24_35  and  C25_36 
REMARK    8  A    between atoms: C25_36  and  N6_37 
ROOT
HETATM    1  C5  UNL     1      15.064  48.953  61.611  1.00  0.00     0.683 A 
HETATM    2  N2  UNL     1      13.989  49.121  60.800  1.00  0.00    -0.193 N 
ATOM      3  H2  UNL     1      13.964  49.731  59.983  1.00  0.00     0.184 HD
HETATM    4  C6  UNL     1      12.983  48.382  61.221  1.00  0.00     0.055 A 
HETATM    5  C7  UNL     1      13.448  47.717  62.347  1.00  0.00     0.053 A 
HETATM    6  N3  UNL     1      14.755  48.078  62.581  1.00  0.00    -0.181 N 
HETATM    7  C22 UNL     1      12.323  46.911  62.823  1.00  0.00     0.060 C 
HETATM    8  C23 UNL     1      11.064  47.449  62.189  1.00  0.00     0.018 C 
HETATM    9  C24 UNL     1      11.567  48.022  60.912  1.00  0.00     0.064 C 
ENDROOT
BRANCH   6  10
HETATM   10  C8  UNL     1      15.662  47.571  63.551  1.00  0.00     0.189 C 
BRANCH  10  11
HETATM   11  C9  UNL     1      15.687  48.292  64.894  1.00  0.00     0.002 A 
HETATM   12  C10 UNL     1      16.524  49.349  65.086  1.00  0.00     0.086 A 
HETATM   13  S2  UNL     1      15.936  49.931  66.675  1.00  0.00    -0.076 SA
HETATM   14  C16 UNL     1      14.738  48.828  66.956  1.00  0.00    -0.008 A 
HETATM   15  C17 UNL     1      14.772  48.011  65.848  1.00  0.00    -0.034 A 
HETATM   16  C21 UNL     1      13.752  48.593  68.058  1.00  0.00     0.046 C 
HETATM   17  C18 UNL     1      13.733  46.880  65.997  1.00  0.00     0.040 C 
HETATM   18  C19 UNL     1      12.452  47.604  66.225  1.00  0.00     0.005 C 
HETATM   19  C20 UNL     1      12.411  48.150  67.608  1.00  0.00     0.005 C 
BRANCH  12  20
HETATM   20  N4  UNL     1      17.694  49.905  64.543  1.00  0.00    -0.302 N 
HETATM   21  C11 UNL     1      18.106  51.178  64.266  1.00  0.00     0.321 C 
HETATM   22  O1  UNL     1      17.510  52.265  64.397  1.00  0.00    -0.247 OA
HETATM   23  N5  UNL     1      19.455  51.378  63.726  1.00  0.00    -0.335 N 
ATOM     24  H5  UNL     1      20.047  50.562  63.574  1.00  0.00     0.165 HD
ATOM     25  H4  UNL     1      18.391  49.201  64.299  1.00  0.00     0.171 HD
BRANCH  23  26
HETATM   26  C12 UNL     1      19.970  52.663  63.407  1.00  0.00     0.023 C 
HETATM   27  C13 UNL     1      20.309  53.481  64.645  1.00  0.00     0.037 C 
HETATM   28  C14 UNL     1      19.043  53.485  62.544  1.00  0.00     0.037 C 
HETATM   29  C15 UNL     1      21.270  52.543  62.612  1.00  0.00     0.037 C 
ENDBRANCH  23  26
ENDBRANCH  12  20
ENDBRANCH  10  11
ENDBRANCH   6  10
BRANCH   1  30
HETATM   30  N1  UNL     1      16.214  49.753  61.352  1.00  0.00    -0.216 N 
HETATM   31  C4  UNL     1      16.213  51.205  61.210  1.00  0.00     0.142 C 
HETATM   32  C3  UNL     1      17.178  51.349  60.037  1.00  0.00     0.037 C 
HETATM   33  C2  UNL     1      18.290  50.410  60.433  1.00  0.00     0.067 C 
HETATM   34  C26 UNL     1      17.570  49.303  61.156  1.00  0.00     0.156 C 
BRANCH  33  35
HETATM   35  S1  UNL     1      19.161  49.801  58.965  1.00  0.00    -0.167 SA
HETATM   36  C1  UNL     1      18.013  48.922  57.892  1.00  0.00     0.090 C 
ENDBRANCH  33  35
ENDBRANCH   1  30
BRANCH   9  37
HETATM   37  C25 UNL     1      11.618  47.010  59.787  1.00  0.00     0.240 C 
BRANCH  37  38
HETATM   38  N6  UNL     1      10.361  46.295  59.677  1.00  0.00    -0.079 N 
ATOM     39  H63 UNL     1      10.504  45.287  59.615  1.00  0.00     0.274 HD
ATOM     40  H62 UNL     1       9.834  46.322  60.550  1.00  0.00     0.274 HD
ATOM     41  H61 UNL     1       9.809  46.645  58.893  1.00  0.00     0.274 HD
ENDBRANCH  37  38
ENDBRANCH   9  37
TORSDOF 8
ENDMDL
MODEL 5
REMARK VINA RESULT: -7.917006370      6.939     10.210
REMARK  8 active torsions:
REMARK  status: ('A' for Active; 'I' for Inactive)
REMARK    1  A    between atoms: S1_2  and  C2_3 
REMARK    2  A    between atoms: N1_6  and  C5_7 
REMARK    3  A    between atoms: N3_12  and  C8_13 
REMARK    4  A    between atoms: C8_13  and  C9_14 
REMARK    5  A    between atoms: C10_15  and  N4_16 
REMARK       I    between atoms: N4_16  and  C11_18 
REMARK       I    between atoms: C11_18  and  N5_20 
REMARK    6  A    between atoms: N5_20  and  C12_22 
REMARK    7  A    between atoms: C24_35  and  C25_36 
REMARK    8  A    between atoms: C25_36  and  N6_37 
ROOT
HETATM    1  C5  UNL     1      14.972  48.820  62.643  1.00  0.00     0.683 A 
HETATM    2  N2  UNL     1      13.751  48.788  62.052  1.00  0.00    -0.193 N 
ATOM      3  H2  UNL     1      13.531  49.200  61.145  1.00  0.00     0.184 HD
HETATM    4  C6  UNL     1      12.893  48.148  62.818  1.00  0.00     0.055 A 
HETATM    5  C7  UNL     1      13.607  47.757  63.942  1.00  0.00     0.053 A 
HETATM    6  N3  UNL     1      14.912  48.180  63.821  1.00  0.00    -0.181 N 
HETATM    7  C22 UNL     1      12.646  47.062  64.800  1.00  0.00     0.060 C 
HETATM    8  C23 UNL     1      11.258  47.428  64.335  1.00  0.00     0.018 C 
HETATM    9  C24 UNL     1      11.467  47.708  62.890  1.00  0.00     0.064 C 
ENDROOT
BRANCH   6  10
HETATM   10  C8  UNL     1      16.019  47.915  64.672  1.00  0.00     0.189 C 
BRANCH  10  11
HETATM   11  C9  UNL     1      16.418  49.032  65.629  1.00  0.00     0.002 A 
HETATM   12  C10 UNL     1      17.407  49.905  65.287  1.00  0.00     0.086 A 
HETATM   13  S2  UNL     1      17.244  51.100  66.612  1.00  0.00    -0.076 SA
HETATM   14  C16 UNL     1      15.998  50.418  67.457  1.00  0.00    -0.008 A 
HETATM   15  C17 UNL     1      15.693  49.282  66.743  1.00  0.00    -0.034 A 
HETATM   16  C21 UNL     1      15.242  50.775  68.700  1.00  0.00     0.046 C 
HETATM   17  C18 UNL     1      14.570  48.498  67.455  1.00  0.00     0.040 C 
HETATM   18  C19 UNL     1      13.471  49.494  67.582  1.00  0.00     0.005 C 
HETATM   19  C20 UNL     1      13.791  50.477  68.651  1.00  0.00     0.005 C 
BRANCH  12  20
HETATM   20  N4  UNL     1      18.498  49.998  64.409  1.00  0.00    -0.302 N 
HETATM   21  C11 UNL     1      19.116  51.031  63.762  1.00  0.00     0.321 C 
HETATM   22  O1  UNL     1      18.846  52.248  63.742  1.00  0.00    -0.247 OA
HETATM   23  N5  UNL     1      20.294  50.739  62.938  1.00  0.00    -0.335 N 
ATOM     24  H5  UNL     1      20.619  49.775  62.872  1.00  0.00     0.165 HD
ATOM     25  H4  UNL     1      18.926  49.094  64.210  1.00  0.00     0.171 HD
BRANCH  23  26
HETATM   26  C12 UNL     1      21.000  51.746  62.227  1.00  0.00     0.023 C 
HETATM   27  C13 UNL     1      21.771  52.681  63.148  1.00  0.00     0.037 C 
HETATM   28  C14 UNL     1      20.116  52.589  61.340  1.00  0.00     0.037 C 
HETATM   29  C15 UNL     1      22.038  51.122  61.294  1.00  0.00     0.037 C 
ENDBRANCH  23  26
ENDBRANCH  12  20
ENDBRANCH  10  11
ENDBRANCH   6  10
BRANCH   1  30
HETATM   30  N1  UNL     1      16.000  49.558  61.988  1.00  0.00    -0.216 N 
HETATM   31  C4  UNL     1      16.016  51.007  61.819  1.00  0.00     0.142 C 
HETATM   32  C3  UNL     1      16.530  51.092  60.384  1.00  0.00     0.037 C 
HETATM   33  C2  UNL     1      17.666  50.100  60.402  1.00  0.00     0.067 C 
HETATM   34  C26 UNL     1      17.186  49.038  61.354  1.00  0.00     0.156 C 
BRANCH  33  35
HETATM   35  S1  UNL     1      17.956  49.435  58.741  1.00  0.00    -0.167 SA
HETATM   36  C1  UNL     1      19.705  49.554  58.330  1.00  0.00     0.090 C 
ENDBRANCH  33  35
ENDBRANCH   1  30
BRANCH   9  37
HETATM   37  C25 UNL     1      11.356  46.471  62.024  1.00  0.00     0.240 C 
BRANCH  37  38
HETATM   38  N6  UNL     1      10.068  45.828  62.202  1.00  0.00    -0.079 N 
ATOM     39  H63 UNL     1       9.302  46.499  62.159  1.00  0.00     0.274 HD
ATOM     40  H62 UNL     1       9.818  45.256  61.396  1.00  0.00     0.274 HD
ATOM     41  H61 UNL     1      10.047  45.288  63.068  1.00  0.00     0.274 HD
ENDBRANCH  37  38
ENDBRANCH   9  37
TORSDOF 8
ENDMDL
