MODEL 1
REMARK VINA RESULT: -7.649303009      0.000      0.000
REMARK  7 active torsions:
REMARK  status: ('A' for Active; 'I' for Inactive)
REMARK    1  A    between atoms: C2_2  and  C3_3 
REMARK    2  A    between atoms: C3_3  and  C4_4 
REMARK    3  A    between atoms: C4_4  and  O1_5 
REMARK    4  A    between atoms: C4_4  and  C5_10 
REMARK    5  A    between atoms: O1_5  and  S1_6 
REMARK    6  A    between atoms: C5_10  and  O5_11 
REMARK    7  A    between atoms: C15_23  and  O7_24 
ROOT
HETATM    1  C5  UNL     1      16.466  50.203  63.984  1.00  0.00     0.095 C 
HETATM    2  C6  UNL     1      15.276  49.472  63.399  1.00  0.00     0.055 C 
HETATM    3  C7  UNL     1      14.760  48.352  64.259  1.00  0.00    -0.013 C 
HETATM    4  C8  UNL     1      15.487  47.069  63.811  1.00  0.00     0.021 C 
HETATM    5  C9  UNL     1      13.344  48.118  63.788  1.00  0.00    -0.059 C 
HETATM    6  C10 UNL     1      12.360  47.731  64.554  1.00  0.00    -0.048 C 
HETATM    7  C11 UNL     1      11.008  47.527  64.008  1.00  0.00     0.044 C 
HETATM    8  C12 UNL     1      11.022  46.751  62.709  1.00  0.00     0.083 C 
HETATM    9  C13 UNL     1      12.019  47.401  61.820  1.00  0.00     0.131 C 
HETATM   10  O6  UNL     1      11.980  47.153  60.628  1.00  0.00    -0.298 OA
HETATM   11  C14 UNL     1      13.056  48.341  62.346  1.00  0.00     0.113 C 
HETATM   12  C15 UNL     1      12.633  47.507  65.990  1.00  0.00     0.147 C 
HETATM   13  C16 UNL     1      13.484  48.716  66.413  1.00  0.00     0.042 C 
HETATM   14  C17 UNL     1      14.825  48.573  65.715  1.00  0.00     0.006 C 
HETATM   15  C18 UNL     1      15.827  49.556  66.192  1.00  0.00     0.003 C 
HETATM   16  C19 UNL     1      15.544  50.141  67.538  1.00  0.00     0.007 C 
HETATM   17  C20 UNL     1      16.417  51.346  67.539  1.00  0.00     0.011 C 
HETATM   18  C21 UNL     1      17.095  51.416  66.148  1.00  0.00    -0.030 C 
HETATM   19  C22 UNL     1      17.363  52.870  65.946  1.00  0.00     0.010 C 
HETATM   20  C23 UNL     1      18.313  53.125  67.134  1.00  0.00     0.001 C 
HETATM   21  C24 UNL     1      19.251  51.947  66.959  1.00  0.00     0.001 C 
HETATM   22  C25 UNL     1      18.423  50.824  66.329  1.00  0.00     0.010 C 
HETATM   23  C26 UNL     1      16.092  50.765  65.284  1.00  0.00     0.001 C 
HETATM   24  C27 UNL     1      14.852  51.616  65.291  1.00  0.00     0.019 C 
ENDROOT
BRANCH   1  25
HETATM   25  C4  UNL     1      17.192  50.907  62.960  1.00  0.00     0.180 C 
BRANCH  25  26
HETATM   26  C3  UNL     1      17.314  52.346  62.787  1.00  0.00     0.036 C 
BRANCH  26  27
HETATM   27  C2  UNL     1      18.678  52.932  62.523  1.00  0.00    -0.002 C 
HETATM   28  C1  UNL     1      19.758  52.002  63.136  1.00  0.00     0.005 C 
ENDBRANCH  26  27
ENDBRANCH  25  26
BRANCH  25  29
HETATM   29  O1  UNL     1      16.678  50.461  61.706  1.00  0.00    -0.248 OA
BRANCH  29  30
HETATM   30  S1  UNL     1      17.774  49.637  60.792  1.00  0.00     0.252 S 
HETATM   31  O2  UNL     1      18.701  48.880  61.735  1.00  0.00    -0.572 OA
HETATM   32  O3  UNL     1      17.016  48.612  59.983  1.00  0.00    -0.572 OA
HETATM   33  O4  UNL     1      18.651  50.657  59.817  1.00  0.00    -0.572 OA
ENDBRANCH  29  30
ENDBRANCH  25  29
ENDBRANCH   1  25
BRANCH   1  34
HETATM   34  O5  UNL     1      17.327  49.092  64.302  1.00  0.00    -0.386 OA
ATOM     35  H5  UNL     1      17.281  49.040  65.249  1.00  0.00     0.210 HD
ENDBRANCH   1  34
BRANCH  12  36
HETATM   36  O7  UNL     1      13.270  46.326  66.273  1.00  0.00    -0.391 OA
ATOM     37  H7  UNL     1      14.197  46.411  66.463  1.00  0.00     0.210 HD
ENDBRANCH  12  36
TORSDOF 7
ENDMDL
MODEL 2
REMARK VINA RESULT: -7.596103970      0.814      1.121
REMARK  7 active torsions:
REMARK  status: ('A' for Active; 'I' for Inactive)
REMARK    1  A    between atoms: C2_2  and  C3_3 
REMARK    2  A    between atoms: C3_3  and  C4_4 
REMARK    3  A    between atoms: C4_4  and  O1_5 
REMARK    4  A    between atoms: C4_4  and  C5_10 
REMARK    5  A    between atoms: O1_5  and  S1_6 
REMARK    6  A    between atoms: C5_10  and  O5_11 
REMARK    7  A    between atoms: C15_23  and  O7_24 
ROOT
HETATM    1  C5  UNL     1      16.343  50.059  63.236  1.00  0.00     0.095 C 
HETATM    2  C6  UNL     1      15.077  49.327  62.846  1.00  0.00     0.055 C 
HETATM    3  C7  UNL     1      14.680  48.234  63.799  1.00  0.00    -0.013 C 
HETATM    4  C8  UNL     1      15.326  46.933  63.286  1.00  0.00     0.021 C 
HETATM    5  C9  UNL     1      13.209  48.004  63.539  1.00  0.00    -0.059 C 
HETATM    6  C10 UNL     1      12.341  47.648  64.446  1.00  0.00    -0.048 C 
HETATM    7  C11 UNL     1      10.924  47.446  64.102  1.00  0.00     0.044 C 
HETATM    8  C12 UNL     1      10.748  46.637  62.836  1.00  0.00     0.083 C 
HETATM    9  C13 UNL     1      11.613  47.254  61.798  1.00  0.00     0.131 C 
HETATM   10  O6  UNL     1      11.404  46.976  60.630  1.00  0.00    -0.298 OA
HETATM   11  C14 UNL     1      12.722  48.194  62.147  1.00  0.00     0.113 C 
HETATM   12  C15 UNL     1      12.813  47.457  65.835  1.00  0.00     0.147 C 
HETATM   13  C16 UNL     1      13.724  48.667  66.101  1.00  0.00     0.042 C 
HETATM   14  C17 UNL     1      14.952  48.492  65.225  1.00  0.00     0.006 C 
HETATM   15  C18 UNL     1      16.018  49.474  65.529  1.00  0.00     0.003 C 
HETATM   16  C19 UNL     1      15.933  50.096  66.885  1.00  0.00     0.007 C 
HETATM   17  C20 UNL     1      16.807  51.291  66.732  1.00  0.00     0.011 C 
HETATM   18  C21 UNL     1      17.282  51.318  65.257  1.00  0.00    -0.030 C 
HETATM   19  C22 UNL     1      17.530  52.764  64.980  1.00  0.00     0.010 C 
HETATM   20  C23 UNL     1      18.641  53.038  66.015  1.00  0.00     0.001 C 
HETATM   21  C24 UNL     1      19.535  51.845  65.741  1.00  0.00     0.001 C 
HETATM   22  C25 UNL     1      18.618  50.716  65.264  1.00  0.00     0.010 C 
HETATM   23  C26 UNL     1      16.162  50.657  64.561  1.00  0.00     0.001 C 
HETATM   24  C27 UNL     1      14.942  51.522  64.721  1.00  0.00     0.019 C 
ENDROOT
BRANCH   1  25
HETATM   25  C4  UNL     1      16.922  50.729  62.102  1.00  0.00     0.180 C 
BRANCH  25  26
HETATM   26  C3  UNL     1      17.039  52.161  61.880  1.00  0.00     0.036 C 
BRANCH  26  27
HETATM   27  C2  UNL     1      18.366  52.721  61.435  1.00  0.00    -0.002 C 
HETATM   28  C1  UNL     1      19.499  51.757  61.876  1.00  0.00     0.005 C 
ENDBRANCH  26  27
ENDBRANCH  25  26
BRANCH  25  29
HETATM   29  O1  UNL     1      16.225  50.266  60.947  1.00  0.00    -0.248 OA
BRANCH  29  30
HETATM   30  S1  UNL     1      17.137  49.320  59.952  1.00  0.00     0.252 S 
HETATM   31  O2  UNL     1      17.859  50.229  58.967  1.00  0.00    -0.572 OA
HETATM   32  O3  UNL     1      18.189  48.646  60.802  1.00  0.00    -0.572 OA
HETATM   33  O4  UNL     1      16.207  48.209  59.138  1.00  0.00    -0.572 OA
ENDBRANCH  29  30
ENDBRANCH  25  29
ENDBRANCH   1  25
BRANCH   1  34
HETATM   34  O5  UNL     1      17.232  48.946  63.459  1.00  0.00    -0.386 OA
ATOM     35  H5  UNL     1      16.643  48.231  63.668  1.00  0.00     0.210 HD
ENDBRANCH   1  34
BRANCH  12  36
HETATM   36  O7  UNL     1      13.475  46.276  66.056  1.00  0.00    -0.391 OA
ATOM     37  H7  UNL     1      12.911  45.519  66.158  1.00  0.00     0.210 HD
ENDBRANCH  12  36
TORSDOF 7
ENDMDL
MODEL 3
REMARK VINA RESULT: -7.571095875      1.328      1.549
REMARK  7 active torsions:
REMARK  status: ('A' for Active; 'I' for Inactive)
REMARK    1  A    between atoms: C2_2  and  C3_3 
REMARK    2  A    between atoms: C3_3  and  C4_4 
REMARK    3  A    between atoms: C4_4  and  O1_5 
REMARK    4  A    between atoms: C4_4  and  C5_10 
REMARK    5  A    between atoms: O1_5  and  S1_6 
REMARK    6  A    between atoms: C5_10  and  O5_11 
REMARK    7  A    between atoms: C15_23  and  O7_24 
ROOT
HETATM    1  C5  UNL     1      16.672  49.940  62.889  1.00  0.00     0.095 C 
HETATM    2  C6  UNL     1      15.359  49.250  62.585  1.00  0.00     0.055 C 
HETATM    3  C7  UNL     1      14.925  48.265  63.635  1.00  0.00    -0.013 C 
HETATM    4  C8  UNL     1      15.487  46.891  63.222  1.00  0.00     0.021 C 
HETATM    5  C9  UNL     1      13.438  48.097  63.423  1.00  0.00    -0.059 C 
HETATM    6  C10 UNL     1      12.573  47.867  64.372  1.00  0.00    -0.048 C 
HETATM    7  C11 UNL     1      11.140  47.717  64.072  1.00  0.00     0.044 C 
HETATM    8  C12 UNL     1      10.891  46.816  62.882  1.00  0.00     0.083 C 
HETATM    9  C13 UNL     1      11.764  47.295  61.781  1.00  0.00     0.131 C 
HETATM   10  O6  UNL     1      11.513  46.933  60.645  1.00  0.00    -0.298 OA
HETATM   11  C14 UNL     1      12.930  48.197  62.028  1.00  0.00     0.113 C 
HETATM   12  C15 UNL     1      13.066  47.767  65.763  1.00  0.00     0.147 C 
HETATM   13  C16 UNL     1      14.047  48.942  65.909  1.00  0.00     0.042 C 
HETATM   14  C17 UNL     1      15.243  48.625  65.029  1.00  0.00     0.006 C 
HETATM   15  C18 UNL     1      16.368  49.568  65.229  1.00  0.00     0.003 C 
HETATM   16  C19 UNL     1      16.348  50.304  66.529  1.00  0.00     0.007 C 
HETATM   17  C20 UNL     1      17.282  51.432  66.259  1.00  0.00     0.011 C 
HETATM   18  C21 UNL     1      17.723  51.309  64.779  1.00  0.00    -0.030 C 
HETATM   19  C22 UNL     1      18.043  52.710  64.377  1.00  0.00     0.010 C 
HETATM   20  C23 UNL     1      19.191  53.007  65.364  1.00  0.00     0.001 C 
HETATM   21  C24 UNL     1      20.013  51.747  65.175  1.00  0.00     0.001 C 
HETATM   22  C25 UNL     1      19.025  50.635  64.812  1.00  0.00     0.010 C 
HETATM   23  C26 UNL     1      16.553  50.656  64.162  1.00  0.00     0.001 C 
HETATM   24  C27 UNL     1      15.386  51.598  64.271  1.00  0.00     0.019 C 
ENDROOT
BRANCH   1  25
HETATM   25  C4  UNL     1      17.260  50.479  61.692  1.00  0.00     0.180 C 
BRANCH  25  26
HETATM   26  C3  UNL     1      16.583  51.147  60.592  1.00  0.00     0.036 C 
BRANCH  26  27
HETATM   27  C2  UNL     1      17.249  52.334  59.943  1.00  0.00    -0.002 C 
HETATM   28  C1  UNL     1      17.490  53.431  61.013  1.00  0.00     0.005 C 
ENDBRANCH  26  27
ENDBRANCH  25  26
BRANCH  25  29
HETATM   29  O1  UNL     1      17.959  49.410  61.056  1.00  0.00    -0.248 OA
BRANCH  29  30
HETATM   30  S1  UNL     1      19.594  49.613  61.018  1.00  0.00     0.252 S 
HETATM   31  O2  UNL     1      20.223  48.549  61.907  1.00  0.00    -0.572 OA
HETATM   32  O3  UNL     1      20.054  49.351  59.603  1.00  0.00    -0.572 OA
HETATM   33  O4  UNL     1      20.037  51.130  61.532  1.00  0.00    -0.572 OA
ENDBRANCH  29  30
ENDBRANCH  25  29
ENDBRANCH   1  25
BRANCH   1  34
HETATM   34  O5  UNL     1      17.504  48.802  63.189  1.00  0.00    -0.386 OA
ATOM     35  H5  UNL     1      18.160  49.156  63.778  1.00  0.00     0.210 HD
ENDBRANCH   1  34
BRANCH  12  36
HETATM   36  O7  UNL     1      13.667  46.573  66.071  1.00  0.00    -0.391 OA
ATOM     37  H7  UNL     1      13.649  46.347  66.993  1.00  0.00     0.210 HD
ENDBRANCH  12  36
TORSDOF 7
ENDMDL
MODEL 4
REMARK VINA RESULT: -7.443029696      1.642      2.785
REMARK  7 active torsions:
REMARK  status: ('A' for Active; 'I' for Inactive)
REMARK    1  A    between atoms: C2_2  and  C3_3 
REMARK    2  A    between atoms: C3_3  and  C4_4 
REMARK    3  A    between atoms: C4_4  and  O1_5 
REMARK    4  A    between atoms: C4_4  and  C5_10 
REMARK    5  A    between atoms: O1_5  and  S1_6 
REMARK    6  A    between atoms: C5_10  and  O5_11 
REMARK    7  A    between atoms: C15_23  and  O7_24 
ROOT
HETATM    1  C5  UNL     1      16.741  49.764  62.473  1.00  0.00     0.095 C 
HETATM    2  C6  UNL     1      15.454  48.993  62.674  1.00  0.00     0.055 C 
HETATM    3  C7  UNL     1      15.303  48.396  64.046  1.00  0.00    -0.013 C 
HETATM    4  C8  UNL     1      15.887  46.972  63.983  1.00  0.00     0.021 C 
HETATM    5  C9  UNL     1      13.821  48.146  64.203  1.00  0.00    -0.059 C 
HETATM    6  C10 UNL     1      13.169  48.224  65.331  1.00  0.00    -0.048 C 
HETATM    7  C11 UNL     1      11.722  47.963  65.390  1.00  0.00     0.044 C 
HETATM    8  C12 UNL     1      11.328  46.721  64.621  1.00  0.00     0.083 C 
HETATM    9  C13 UNL     1      11.940  46.828  63.272  1.00  0.00     0.131 C 
HETATM   10  O6  UNL     1      11.511  46.113  62.384  1.00  0.00    -0.298 OA
HETATM   11  C14 UNL     1      13.056  47.780  62.981  1.00  0.00     0.113 C 
HETATM   12  C15 UNL     1      13.919  48.589  66.552  1.00  0.00     0.147 C 
HETATM   13  C16 UNL     1      14.814  49.762  66.119  1.00  0.00     0.042 C 
HETATM   14  C17 UNL     1      15.846  49.194  65.160  1.00  0.00     0.006 C 
HETATM   15  C18 UNL     1      16.910  50.168  64.821  1.00  0.00     0.003 C 
HETATM   16  C19 UNL     1      17.074  51.287  65.798  1.00  0.00     0.007 C 
HETATM   17  C20 UNL     1      17.848  52.279  65.004  1.00  0.00     0.011 C 
HETATM   18  C21 UNL     1      18.014  51.689  63.581  1.00  0.00    -0.030 C 
HETATM   19  C22 UNL     1      18.141  52.888  62.701  1.00  0.00     0.010 C 
HETATM   20  C23 UNL     1      19.425  53.506  63.291  1.00  0.00     0.001 C 
HETATM   21  C24 UNL     1      20.295  52.266  63.347  1.00  0.00     0.001 C 
HETATM   22  C25 UNL     1      19.348  51.082  63.561  1.00  0.00     0.010 C 
HETATM   23  C26 UNL     1      16.805  50.853  63.451  1.00  0.00     0.001 C 
HETATM   24  C27 UNL     1      15.608  51.762  63.491  1.00  0.00     0.019 C 
ENDROOT
BRANCH   1  25
HETATM   25  C4  UNL     1      17.051  49.894  61.074  1.00  0.00     0.180 C 
BRANCH  25  26
HETATM   26  C3  UNL     1      16.148  49.736  59.946  1.00  0.00     0.036 C 
BRANCH  26  27
HETATM   27  C2  UNL     1      16.055  48.389  59.273  1.00  0.00    -0.002 C 
HETATM   28  C1  UNL     1      14.601  47.861  59.392  1.00  0.00     0.005 C 
ENDBRANCH  26  27
ENDBRANCH  25  26
BRANCH  25  29
HETATM   29  O1  UNL     1      18.102  48.970  60.795  1.00  0.00    -0.248 OA
BRANCH  29  30
HETATM   30  S1  UNL     1      19.360  49.626  59.956  1.00  0.00     0.252 S 
HETATM   31  O2  UNL     1      19.167  51.137  59.922  1.00  0.00    -0.572 OA
HETATM   32  O3  UNL     1      20.623  49.348  60.737  1.00  0.00    -0.572 OA
HETATM   33  O4  UNL     1      19.451  49.020  58.412  1.00  0.00    -0.572 OA
ENDBRANCH  29  30
ENDBRANCH  25  29
ENDBRANCH   1  25
BRANCH   1  34
HETATM   34  O5  UNL     1      17.702  48.798  62.942  1.00  0.00    -0.386 OA
ATOM     35  H5  UNL     1      18.203  48.587  62.163  1.00  0.00     0.210 HD
ENDBRANCH   1  34
BRANCH  12  36
HETATM   36  O7  UNL     1      14.661  47.569  67.093  1.00  0.00    -0.391 OA
ATOM     37  H7  UNL     1      15.027  47.756  67.948  1.00  0.00     0.210 HD
ENDBRANCH  12  36
TORSDOF 7
ENDMDL
MODEL 5
REMARK VINA RESULT: -7.256794755      1.281      1.704
REMARK  7 active torsions:
REMARK  status: ('A' for Active; 'I' for Inactive)
REMARK    1  A    between atoms: C2_2  and  C3_3 
REMARK    2  A    between atoms: C3_3  and  C4_4 
REMARK    3  A    between atoms: C4_4  and  O1_5 
REMARK    4  A    between atoms: C4_4  and  C5_10 
REMARK    5  A    between atoms: O1_5  and  S1_6 
REMARK    6  A    between atoms: C5_10  and  O5_11 
REMARK    7  A    between atoms: C15_23  and  O7_24 
ROOT
HETATM    1  C5  UNL     1      16.703  50.449  63.229  1.00  0.00     0.095 C 
HETATM    2  C6  UNL     1      15.451  49.599  63.204  1.00  0.00     0.055 C 
HETATM    3  C7  UNL     1      15.287  48.711  64.406  1.00  0.00    -0.013 C 
HETATM    4  C8  UNL     1      15.944  47.361  64.061  1.00  0.00     0.021 C 
HETATM    5  C9  UNL     1      13.816  48.369  64.442  1.00  0.00    -0.059 C 
HETATM    6  C10 UNL     1      13.124  48.171  65.531  1.00  0.00    -0.048 C 
HETATM    7  C11 UNL     1      11.691  47.841  65.471  1.00  0.00     0.044 C 
HETATM    8  C12 UNL     1      11.387  46.781  64.435  1.00  0.00     0.083 C 
HETATM    9  C13 UNL     1      12.035  47.207  63.168  1.00  0.00     0.131 C 
HETATM   10  O6  UNL     1      11.672  46.685  62.129  1.00  0.00    -0.298 OA
HETATM   11  C14 UNL     1      13.110  48.246  63.138  1.00  0.00     0.113 C 
HETATM   12  C15 UNL     1      13.815  48.292  66.833  1.00  0.00     0.147 C 
HETATM   13  C16 UNL     1      14.662  49.568  66.702  1.00  0.00     0.042 C 
HETATM   14  C17 UNL     1      15.752  49.269  65.689  1.00  0.00     0.006 C 
HETATM   15  C18 UNL     1      16.775  50.338  65.614  1.00  0.00     0.003 C 
HETATM   16  C19 UNL     1      16.851  51.222  66.816  1.00  0.00     0.007 C 
HETATM   17  C20 UNL     1      17.598  52.396  66.289  1.00  0.00     0.011 C 
HETATM   18  C21 UNL     1      17.840  52.139  64.781  1.00  0.00    -0.030 C 
HETATM   19  C22 UNL     1      17.933  53.505  64.188  1.00  0.00     0.010 C 
HETATM   20  C23 UNL     1      19.164  54.034  64.951  1.00  0.00     0.001 C 
HETATM   21  C24 UNL     1      20.094  52.850  64.775  1.00  0.00     0.001 C 
HETATM   22  C25 UNL     1      19.203  51.609  64.687  1.00  0.00     0.010 C 
HETATM   23  C26 UNL     1      16.680  51.300  64.422  1.00  0.00     0.001 C 
HETATM   24  C27 UNL     1      15.437  52.126  64.606  1.00  0.00     0.019 C 
ENDROOT
BRANCH   1  25
HETATM   25  C4  UNL     1      17.051  50.895  61.906  1.00  0.00     0.180 C 
BRANCH  25  26
HETATM   26  C3  UNL     1      17.090  52.261  61.409  1.00  0.00     0.036 C 
BRANCH  26  27
HETATM   27  C2  UNL     1      18.328  52.738  60.694  1.00  0.00    -0.002 C 
HETATM   28  C1  UNL     1      19.522  51.826  61.080  1.00  0.00     0.005 C 
ENDBRANCH  26  27
ENDBRANCH  25  26
BRANCH  25  29
HETATM   29  O1  UNL     1      16.167  50.234  61.001  1.00  0.00    -0.248 OA
BRANCH  29  30
HETATM   30  S1  UNL     1      16.921  49.170  59.993  1.00  0.00     0.252 S 
HETATM   31  O2  UNL     1      17.472  49.952  58.808  1.00  0.00    -0.572 OA
HETATM   32  O3  UNL     1      18.098  48.589  60.740  1.00  0.00    -0.572 OA
HETATM   33  O4  UNL     1      15.885  47.982  59.468  1.00  0.00    -0.572 OA
ENDBRANCH  29  30
ENDBRANCH  25  29
ENDBRANCH   1  25
BRANCH   1  34
HETATM   34  O5  UNL     1      17.697  49.446  63.518  1.00  0.00    -0.386 OA
ATOM     35  H5  UNL     1      17.304  48.645  63.192  1.00  0.00     0.210 HD
ENDBRANCH   1  34
BRANCH  12  36
HETATM   36  O7  UNL     1      14.590  47.211  67.171  1.00  0.00    -0.391 OA
ATOM     37  H7  UNL     1      14.534  46.953  68.083  1.00  0.00     0.210 HD
ENDBRANCH  12  36
TORSDOF 7
ENDMDL
