MODEL 1
REMARK VINA RESULT: -6.141900904      0.000      0.000
REMARK  10 active torsions:
REMARK  status: ('A' for Active; 'I' for Inactive)
REMARK    1  A    between atoms: C2_2  and  C3_3 
REMARK    2  A    between atoms: C6_6  and  O1_7 
REMARK    3  A    between atoms: C11_13  and  O2_15 
REMARK    4  A    between atoms: C16_21  and  C17_22 
REMARK    5  A    between atoms: C17_22  and  C18_23 
REMARK    6  A    between atoms: C19_26  and  C20_27 
REMARK    7  A    between atoms: C20_27  and  O5_28 
REMARK    8  A    between atoms: C20_27  and  C21_30 
REMARK    9  A    between atoms: C21_30  and  C22_31 
REMARK   10  A    between atoms: C22_31  and  C23_32 
ROOT
HETATM    1  C3  UNL     1      17.467  51.636  61.820  1.00  0.00     0.077 C 
HETATM    2  C4  UNL     1      17.584  53.114  62.285  1.00  0.00     0.051 C 
HETATM    3  C5  UNL     1      18.773  50.947  61.906  1.00  0.00     0.074 C 
HETATM    4  C6  UNL     1      19.898  51.749  62.488  1.00  0.00     0.128 C 
HETATM    5  C7  UNL     1      20.247  51.300  63.928  1.00  0.00     0.033 C 
HETATM    6  C8  UNL     1      21.459  50.363  63.844  1.00  0.00     0.017 C 
HETATM    7  C9  UNL     1      20.671  52.465  64.737  1.00  0.00    -0.021 C 
HETATM    8  C10 UNL     1      20.421  52.769  65.973  1.00  0.00     0.014 C 
HETATM    9  C11 UNL     1      19.632  52.060  66.997  1.00  0.00     0.132 C 
HETATM   10  C12 UNL     1      19.914  50.615  67.168  1.00  0.00     0.059 C 
HETATM   11  C13 UNL     1      18.174  52.369  66.877  1.00  0.00     0.169 C 
HETATM   12  O3  UNL     1      17.884  53.425  66.367  1.00  0.00    -0.294 OA
HETATM   13  C14 UNL     1      17.106  51.467  67.340  1.00  0.00     0.069 C 
HETATM   14  C15 UNL     1      16.776  51.673  68.789  1.00  0.00     0.019 C 
HETATM   15  C16 UNL     1      15.940  51.302  66.427  1.00  0.00     0.065 C 
HETATM   16  S1  UNL     1      16.379  50.019  65.247  1.00  0.00    -0.153 SA
HETATM   17  C19 UNL     1      15.211  49.789  63.886  1.00  0.00     0.105 C 
HETATM   18  C27 UNL     1      16.120  49.867  62.644  1.00  0.00     0.135 C 
HETATM   19  C28 UNL     1      15.475  49.289  61.413  1.00  0.00     0.041 C 
HETATM   20  O6  UNL     1      16.418  51.163  62.503  1.00  0.00    -0.370 OA
ENDROOT
BRANCH  17  21
HETATM   21  C20 UNL     1      14.517  48.492  64.067  1.00  0.00     0.134 C 
BRANCH  21  22
HETATM   22  O5  UNL     1      13.197  48.463  63.648  1.00  0.00    -0.394 OA
ATOM     23  H5  UNL     1      13.025  48.892  62.818  1.00  0.00     0.210 HD
ENDBRANCH  21  22
BRANCH  21  24
HETATM   24  C21 UNL     1      14.844  47.770  65.313  1.00  0.00     0.034 C 
BRANCH  24  25
HETATM   25  C22 UNL     1      13.625  47.393  66.128  1.00  0.00     0.011 C 
BRANCH  25  26
HETATM   26  C23 UNL     1      13.765  47.893  67.527  1.00  0.00    -0.051 C 
HETATM   27  C24 UNL     1      15.182  47.962  68.010  1.00  0.00     0.014 C 
HETATM   28  C25 UNL     1      13.220  49.326  67.545  1.00  0.00     0.014 C 
HETATM   29  C26 UNL     1      12.942  47.115  68.526  1.00  0.00     0.014 C 
ENDBRANCH  25  26
ENDBRANCH  24  25
ENDBRANCH  21  24
ENDBRANCH  17  21
BRANCH  15  30
HETATM   30  C17 UNL     1      15.368  52.478  65.766  1.00  0.00     0.085 C 
BRANCH  30  31
HETATM   31  C18 UNL     1      14.300  53.230  66.442  1.00  0.00     0.232 C 
HETATM   32  O4  UNL     1      13.428  52.832  67.157  1.00  0.00    -0.307 OA
ENDBRANCH  30  31
ENDBRANCH  15  30
BRANCH   1  33
HETATM   33  C2  UNL     1      17.142  51.858  60.359  1.00  0.00     0.000 C 
HETATM   34  C1  UNL     1      17.420  53.029  59.823  1.00  0.00     0.010 C 
ENDBRANCH   1  33
BRANCH   9  35
HETATM   35  O2  UNL     1      19.985  52.649  68.251  1.00  0.00    -0.378 OA
ATOM     36  H2  UNL     1      20.352  51.949  68.778  1.00  0.00     0.211 HD
ENDBRANCH   9  35
BRANCH   4  37
HETATM   37  O1  UNL     1      21.082  51.607  61.723  1.00  0.00    -0.395 OA
ATOM     38  H1  UNL     1      21.216  52.354  61.152  1.00  0.00     0.210 HD
ENDBRANCH   4  37
TORSDOF 10
ENDMDL
MODEL 2
REMARK VINA RESULT: -6.070726117      2.174      6.642
REMARK  10 active torsions:
REMARK  status: ('A' for Active; 'I' for Inactive)
REMARK    1  A    between atoms: C2_2  and  C3_3 
REMARK    2  A    between atoms: C6_6  and  O1_7 
REMARK    3  A    between atoms: C11_13  and  O2_15 
REMARK    4  A    between atoms: C16_21  and  C17_22 
REMARK    5  A    between atoms: C17_22  and  C18_23 
REMARK    6  A    between atoms: C19_26  and  C20_27 
REMARK    7  A    between atoms: C20_27  and  O5_28 
REMARK    8  A    between atoms: C20_27  and  C21_30 
REMARK    9  A    between atoms: C21_30  and  C22_31 
REMARK   10  A    between atoms: C22_31  and  C23_32 
ROOT
HETATM    1  C3  UNL     1      14.143  49.540  67.714  1.00  0.00     0.077 C 
HETATM    2  C4  UNL     1      14.828  49.363  69.098  1.00  0.00     0.051 C 
HETATM    3  C5  UNL     1      13.442  50.840  67.631  1.00  0.00     0.074 C 
HETATM    4  C6  UNL     1      13.595  51.742  68.819  1.00  0.00     0.128 C 
HETATM    5  C7  UNL     1      14.553  52.924  68.531  1.00  0.00     0.033 C 
HETATM    6  C8  UNL     1      13.694  54.148  68.187  1.00  0.00     0.017 C 
HETATM    7  C9  UNL     1      15.313  53.274  69.752  1.00  0.00    -0.021 C 
HETATM    8  C10 UNL     1      16.554  53.623  69.903  1.00  0.00     0.014 C 
HETATM    9  C11 UNL     1      17.632  53.791  68.911  1.00  0.00     0.132 C 
HETATM   10  C12 UNL     1      17.308  54.602  67.712  1.00  0.00     0.059 C 
HETATM   11  C13 UNL     1      18.286  52.487  68.586  1.00  0.00     0.169 C 
HETATM   12  O3  UNL     1      18.234  51.628  69.432  1.00  0.00    -0.294 OA
HETATM   13  C14 UNL     1      18.973  52.213  67.312  1.00  0.00     0.069 C 
HETATM   14  C15 UNL     1      20.410  52.644  67.336  1.00  0.00     0.019 C 
HETATM   15  C16 UNL     1      18.706  50.885  66.692  1.00  0.00     0.065 C 
HETATM   16  S1  UNL     1      17.196  51.053  65.730  1.00  0.00    -0.153 SA
HETATM   17  C19 UNL     1      16.534  49.510  65.057  1.00  0.00     0.105 C 
HETATM   18  C27 UNL     1      15.067  49.539  65.529  1.00  0.00     0.135 C 
HETATM   19  C28 UNL     1      14.188  48.593  64.757  1.00  0.00     0.041 C 
HETATM   20  O6  UNL     1      15.108  49.247  66.834  1.00  0.00    -0.370 OA
ENDROOT
BRANCH  17  21
HETATM   21  C20 UNL     1      16.712  49.515  63.586  1.00  0.00     0.134 C 
BRANCH  21  22
HETATM   22  O5  UNL     1      17.204  48.339  63.045  1.00  0.00    -0.394 OA
ATOM     23  H5  UNL     1      16.550  47.755  62.680  1.00  0.00     0.210 HD
ENDBRANCH  21  22
BRANCH  21  24
HETATM   24  C21 UNL     1      17.217  50.781  63.016  1.00  0.00     0.034 C 
BRANCH  24  25
HETATM   25  C22 UNL     1      16.442  51.244  61.801  1.00  0.00     0.011 C 
BRANCH  25  26
HETATM   26  C23 UNL     1      17.377  51.534  60.674  1.00  0.00    -0.051 C 
HETATM   27  C24 UNL     1      17.304  52.943  60.169  1.00  0.00     0.014 C 
HETATM   28  C25 UNL     1      18.798  51.328  61.209  1.00  0.00     0.014 C 
HETATM   29  C26 UNL     1      17.223  50.585  59.509  1.00  0.00     0.014 C 
ENDBRANCH  25  26
ENDBRANCH  24  25
ENDBRANCH  21  24
ENDBRANCH  17  21
BRANCH  15  30
HETATM   30  C17 UNL     1      18.686  49.685  67.533  1.00  0.00     0.085 C 
BRANCH  30  31
HETATM   31  C18 UNL     1      19.960  49.088  67.958  1.00  0.00     0.232 C 
HETATM   32  O4  UNL     1      20.666  49.381  68.878  1.00  0.00    -0.307 OA
ENDBRANCH  30  31
ENDBRANCH  15  30
BRANCH   1  33
HETATM   33  C2  UNL     1      13.104  48.445  67.805  1.00  0.00     0.000 C 
HETATM   34  C1  UNL     1      13.450  47.292  68.343  1.00  0.00     0.010 C 
ENDBRANCH   1  33
BRANCH   9  35
HETATM   35  O2  UNL     1      18.670  54.519  69.571  1.00  0.00    -0.378 OA
ATOM     36  H2  UNL     1      18.307  55.375  69.772  1.00  0.00     0.211 HD
ENDBRANCH   9  35
BRANCH   4  37
HETATM   37  O1  UNL     1      12.354  52.311  69.198  1.00  0.00    -0.395 OA
ATOM     38  H1  UNL     1      12.310  53.230  68.963  1.00  0.00     0.210 HD
ENDBRANCH   4  37
TORSDOF 10
ENDMDL
MODEL 3
REMARK VINA RESULT: -6.055548896      1.929      3.462
REMARK  10 active torsions:
REMARK  status: ('A' for Active; 'I' for Inactive)
REMARK    1  A    between atoms: C2_2  and  C3_3 
REMARK    2  A    between atoms: C6_6  and  O1_7 
REMARK    3  A    between atoms: C11_13  and  O2_15 
REMARK    4  A    between atoms: C16_21  and  C17_22 
REMARK    5  A    between atoms: C17_22  and  C18_23 
REMARK    6  A    between atoms: C19_26  and  C20_27 
REMARK    7  A    between atoms: C20_27  and  O5_28 
REMARK    8  A    between atoms: C20_27  and  C21_30 
REMARK    9  A    between atoms: C21_30  and  C22_31 
REMARK   10  A    between atoms: C22_31  and  C23_32 
ROOT
HETATM    1  C3  UNL     1      15.487  49.475  62.389  1.00  0.00     0.077 C 
HETATM    2  C4  UNL     1      15.426  50.937  61.867  1.00  0.00     0.051 C 
HETATM    3  C5  UNL     1      16.714  48.794  61.921  1.00  0.00     0.074 C 
HETATM    4  C6  UNL     1      17.672  49.641  61.137  1.00  0.00     0.128 C 
HETATM    5  C7  UNL     1      18.923  50.022  61.966  1.00  0.00     0.033 C 
HETATM    6  C8  UNL     1      20.051  49.055  61.581  1.00  0.00     0.017 C 
HETATM    7  C9  UNL     1      19.387  51.378  61.595  1.00  0.00    -0.021 C 
HETATM    8  C10 UNL     1      19.851  52.341  62.331  1.00  0.00     0.014 C 
HETATM    9  C11 UNL     1      20.077  52.416  63.786  1.00  0.00     0.132 C 
HETATM   10  C12 UNL     1      20.808  51.282  64.402  1.00  0.00     0.059 C 
HETATM   11  C13 UNL     1      18.826  52.781  64.518  1.00  0.00     0.169 C 
HETATM   12  O3  UNL     1      18.000  53.407  63.898  1.00  0.00    -0.294 OA
HETATM   13  C14 UNL     1      18.565  52.421  65.922  1.00  0.00     0.069 C 
HETATM   14  C15 UNL     1      19.124  53.430  66.880  1.00  0.00     0.019 C 
HETATM   15  C16 UNL     1      17.195  51.923  66.231  1.00  0.00     0.065 C 
HETATM   16  S1  UNL     1      17.189  50.160  65.879  1.00  0.00    -0.153 SA
HETATM   17  C19 UNL     1      15.568  49.362  65.961  1.00  0.00     0.105 C 
HETATM   18  C27 UNL     1      15.483  48.631  64.606  1.00  0.00     0.135 C 
HETATM   19  C28 UNL     1      14.433  47.554  64.590  1.00  0.00     0.041 C 
HETATM   20  O6  UNL     1      15.248  49.588  63.701  1.00  0.00    -0.370 OA
ENDROOT
BRANCH  17  21
HETATM   21  C20 UNL     1      15.532  48.475  67.147  1.00  0.00     0.134 C 
BRANCH  21  22
HETATM   22  O5  UNL     1      14.432  48.637  67.974  1.00  0.00    -0.394 OA
ATOM     23  H5  UNL     1      13.737  48.001  67.854  1.00  0.00     0.210 HD
ENDBRANCH  21  22
BRANCH  21  24
HETATM   24  C21 UNL     1      16.836  48.241  67.800  1.00  0.00     0.034 C 
BRANCH  24  25
HETATM   25  C22 UNL     1      16.774  48.308  69.311  1.00  0.00     0.011 C 
BRANCH  25  26
HETATM   26  C23 UNL     1      17.738  49.326  69.822  1.00  0.00    -0.051 C 
HETATM   27  C24 UNL     1      18.991  49.442  69.007  1.00  0.00     0.014 C 
HETATM   28  C25 UNL     1      17.033  50.685  69.747  1.00  0.00     0.014 C 
HETATM   29  C26 UNL     1      18.110  49.123  71.271  1.00  0.00     0.014 C 
ENDBRANCH  25  26
ENDBRANCH  24  25
ENDBRANCH  21  24
ENDBRANCH  17  21
BRANCH  15  30
HETATM   30  C17 UNL     1      16.032  52.600  65.649  1.00  0.00     0.085 C 
BRANCH  30  31
HETATM   31  C18 UNL     1      15.033  53.202  66.544  1.00  0.00     0.232 C 
HETATM   32  O4  UNL     1      13.840  53.184  66.472  1.00  0.00    -0.307 OA
ENDBRANCH  30  31
ENDBRANCH  15  30
BRANCH   1  33
HETATM   33  C2  UNL     1      14.307  48.892  61.644  1.00  0.00     0.000 C 
HETATM   34  C1  UNL     1      14.527  47.925  60.775  1.00  0.00     0.010 C 
ENDBRANCH   1  33
BRANCH   9  35
HETATM   35  O2  UNL     1      20.921  53.550  64.000  1.00  0.00    -0.378 OA
ATOM     36  H2  UNL     1      21.811  53.217  64.029  1.00  0.00     0.211 HD
ENDBRANCH   9  35
BRANCH   4  37
HETATM   37  O1  UNL     1      18.142  48.959  59.988  1.00  0.00    -0.395 OA
ATOM     38  H1  UNL     1      17.766  49.320  59.194  1.00  0.00     0.210 HD
ENDBRANCH   4  37
TORSDOF 10
ENDMDL
MODEL 4
REMARK VINA RESULT: -5.932346040      1.865      3.972
REMARK  10 active torsions:
REMARK  status: ('A' for Active; 'I' for Inactive)
REMARK    1  A    between atoms: C2_2  and  C3_3 
REMARK    2  A    between atoms: C6_6  and  O1_7 
REMARK    3  A    between atoms: C11_13  and  O2_15 
REMARK    4  A    between atoms: C16_21  and  C17_22 
REMARK    5  A    between atoms: C17_22  and  C18_23 
REMARK    6  A    between atoms: C19_26  and  C20_27 
REMARK    7  A    between atoms: C20_27  and  O5_28 
REMARK    8  A    between atoms: C20_27  and  C21_30 
REMARK    9  A    between atoms: C21_30  and  C22_31 
REMARK   10  A    between atoms: C22_31  and  C23_32 
ROOT
HETATM    1  C3  UNL     1      19.568  52.816  65.324  1.00  0.00     0.077 C 
HETATM    2  C4  UNL     1      19.207  53.618  66.605  1.00  0.00     0.051 C 
HETATM    3  C5  UNL     1      20.431  51.659  65.647  1.00  0.00     0.074 C 
HETATM    4  C6  UNL     1      20.708  51.437  67.105  1.00  0.00     0.128 C 
HETATM    5  C7  UNL     1      19.913  50.235  67.671  1.00  0.00     0.033 C 
HETATM    6  C8  UNL     1      20.854  49.023  67.694  1.00  0.00     0.017 C 
HETATM    7  C9  UNL     1      19.528  50.496  69.076  1.00  0.00    -0.021 C 
HETATM    8  C10 UNL     1      18.430  50.226  69.713  1.00  0.00     0.014 C 
HETATM    9  C11 UNL     1      17.191  49.568  69.258  1.00  0.00     0.132 C 
HETATM   10  C12 UNL     1      17.351  48.290  68.524  1.00  0.00     0.059 C 
HETATM   11  C13 UNL     1      16.276  50.533  68.575  1.00  0.00     0.169 C 
HETATM   12  O3  UNL     1      16.386  51.695  68.884  1.00  0.00    -0.294 OA
HETATM   13  C14 UNL     1      15.275  50.139  67.569  1.00  0.00     0.069 C 
HETATM   14  C15 UNL     1      13.974  49.730  68.193  1.00  0.00     0.019 C 
HETATM   15  C16 UNL     1      15.171  51.010  66.365  1.00  0.00     0.065 C 
HETATM   16  S1  UNL     1      16.420  50.444  65.202  1.00  0.00    -0.153 SA
HETATM   17  C19 UNL     1      16.648  51.490  63.745  1.00  0.00     0.105 C 
HETATM   18  C27 UNL     1      18.170  51.736  63.741  1.00  0.00     0.135 C 
HETATM   19  C28 UNL     1      18.679  52.218  62.410  1.00  0.00     0.041 C 
HETATM   20  O6  UNL     1      18.390  52.620  64.721  1.00  0.00    -0.370 OA
ENDROOT
BRANCH  17  21
HETATM   21  C20 UNL     1      16.133  50.771  62.556  1.00  0.00     0.134 C 
BRANCH  21  22
HETATM   22  O5  UNL     1      15.260  51.493  61.759  1.00  0.00    -0.394 OA
ATOM     23  H5  UNL     1      15.556  51.649  60.871  1.00  0.00     0.210 HD
ENDBRANCH  21  22
BRANCH  21  24
HETATM   24  C21 UNL     1      15.827  49.342  62.767  1.00  0.00     0.034 C 
BRANCH  24  25
HETATM   25  C22 UNL     1      14.358  49.012  62.613  1.00  0.00     0.011 C 
BRANCH  25  26
HETATM   26  C23 UNL     1      14.018  47.792  63.403  1.00  0.00    -0.051 C 
HETATM   27  C24 UNL     1      13.078  46.856  62.704  1.00  0.00     0.014 C 
HETATM   28  C25 UNL     1      15.326  47.024  63.622  1.00  0.00     0.014 C 
HETATM   29  C26 UNL     1      13.474  48.101  64.777  1.00  0.00     0.014 C 
ENDBRANCH  25  26
ENDBRANCH  24  25
ENDBRANCH  21  24
ENDBRANCH  17  21
BRANCH  15  30
HETATM   30  C17 UNL     1      15.194  52.467  66.524  1.00  0.00     0.085 C 
BRANCH  30  31
HETATM   31  C18 UNL     1      13.933  53.179  66.778  1.00  0.00     0.232 C 
HETATM   32  O4  UNL     1      13.023  52.878  67.493  1.00  0.00    -0.307 OA
ENDBRANCH  30  31
ENDBRANCH  15  30
BRANCH   1  33
HETATM   33  C2  UNL     1      20.408  53.850  64.608  1.00  0.00     0.000 C 
HETATM   34  C1  UNL     1      21.649  53.540  64.288  1.00  0.00     0.010 C 
ENDBRANCH   1  33
BRANCH   9  35
HETATM   35  O2  UNL     1      16.468  49.218  70.441  1.00  0.00    -0.378 OA
ATOM     36  H2  UNL     1      15.771  49.859  70.524  1.00  0.00     0.211 HD
ENDBRANCH   9  35
BRANCH   4  37
HETATM   37  O1  UNL     1      22.078  51.158  67.332  1.00  0.00    -0.395 OA
ATOM     38  H1  UNL     1      22.268  51.096  68.260  1.00  0.00     0.210 HD
ENDBRANCH   4  37
TORSDOF 10
ENDMDL
MODEL 5
REMARK VINA RESULT: -5.890441289      2.512      5.586
REMARK  10 active torsions:
REMARK  status: ('A' for Active; 'I' for Inactive)
REMARK    1  A    between atoms: C2_2  and  C3_3 
REMARK    2  A    between atoms: C6_6  and  O1_7 
REMARK    3  A    between atoms: C11_13  and  O2_15 
REMARK    4  A    between atoms: C16_21  and  C17_22 
REMARK    5  A    between atoms: C17_22  and  C18_23 
REMARK    6  A    between atoms: C19_26  and  C20_27 
REMARK    7  A    between atoms: C20_27  and  O5_28 
REMARK    8  A    between atoms: C20_27  and  C21_30 
REMARK    9  A    between atoms: C21_30  and  C22_31 
REMARK   10  A    between atoms: C22_31  and  C23_32 
ROOT
HETATM    1  C3  UNL     1      18.265  52.378  65.430  1.00  0.00     0.077 C 
HETATM    2  C4  UNL     1      19.144  51.106  65.273  1.00  0.00     0.051 C 
HETATM    3  C5  UNL     1      17.966  52.983  64.114  1.00  0.00     0.074 C 
HETATM    4  C6  UNL     1      18.473  52.231  62.919  1.00  0.00     0.128 C 
HETATM    5  C7  UNL     1      17.333  51.500  62.167  1.00  0.00     0.033 C 
HETATM    6  C8  UNL     1      16.926  52.374  60.974  1.00  0.00     0.017 C 
HETATM    7  C9  UNL     1      17.831  50.224  61.605  1.00  0.00    -0.021 C 
HETATM    8  C10 UNL     1      17.264  49.060  61.525  1.00  0.00     0.014 C 
HETATM    9  C11 UNL     1      15.931  48.607  61.966  1.00  0.00     0.132 C 
HETATM   10  C12 UNL     1      14.779  49.452  61.568  1.00  0.00     0.059 C 
HETATM   11  C13 UNL     1      15.926  48.245  63.416  1.00  0.00     0.169 C 
HETATM   12  O3  UNL     1      16.982  47.902  63.892  1.00  0.00    -0.294 OA
HETATM   13  C14 UNL     1      14.724  48.287  64.266  1.00  0.00     0.069 C 
HETATM   14  C15 UNL     1      13.937  47.012  64.200  1.00  0.00     0.019 C 
HETATM   15  C16 UNL     1      14.897  48.872  65.625  1.00  0.00     0.065 C 
HETATM   16  S1  UNL     1      14.720  50.653  65.453  1.00  0.00    -0.153 SA
HETATM   17  C19 UNL     1      15.113  51.615  66.932  1.00  0.00     0.105 C 
HETATM   18  C27 UNL     1      16.119  52.655  66.401  1.00  0.00     0.135 C 
HETATM   19  C28 UNL     1      16.280  53.833  67.323  1.00  0.00     0.041 C 
HETATM   20  O6  UNL     1      17.264  51.985  66.225  1.00  0.00    -0.370 OA
ENDROOT
BRANCH  17  21
HETATM   21  C20 UNL     1      13.859  52.186  67.477  1.00  0.00     0.134 C 
BRANCH  21  22
HETATM   22  O5  UNL     1      13.355  53.276  66.786  1.00  0.00    -0.394 OA
ATOM     23  H5  UNL     1      14.007  53.868  66.431  1.00  0.00     0.210 HD
ENDBRANCH  21  22
BRANCH  21  24
HETATM   24  C21 UNL     1      13.773  52.225  68.951  1.00  0.00     0.034 C 
BRANCH  24  25
HETATM   25  C22 UNL     1      12.437  52.722  69.462  1.00  0.00     0.011 C 
BRANCH  25  26
HETATM   26  C23 UNL     1      12.631  53.564  70.679  1.00  0.00    -0.051 C 
HETATM   27  C24 UNL     1      13.587  54.702  70.486  1.00  0.00     0.014 C 
HETATM   28  C25 UNL     1      11.269  54.182  71.015  1.00  0.00     0.014 C 
HETATM   29  C26 UNL     1      13.048  52.772  71.895  1.00  0.00     0.014 C 
ENDBRANCH  25  26
ENDBRANCH  24  25
ENDBRANCH  21  24
ENDBRANCH  17  21
BRANCH  15  30
HETATM   30  C17 UNL     1      16.076  48.516  66.420  1.00  0.00     0.085 C 
BRANCH  30  31
HETATM   31  C18 UNL     1      15.913  48.239  67.855  1.00  0.00     0.232 C 
HETATM   32  O4  UNL     1      14.972  48.439  68.564  1.00  0.00    -0.307 OA
ENDBRANCH  30  31
ENDBRANCH  15  30
BRANCH   1  33
HETATM   33  C2  UNL     1      19.247  53.274  66.152  1.00  0.00     0.000 C 
HETATM   34  C1  UNL     1      19.519  54.456  65.635  1.00  0.00     0.010 C 
ENDBRANCH   1  33
BRANCH   9  35
HETATM   35  O2  UNL     1      15.702  47.353  61.318  1.00  0.00    -0.378 OA
ATOM     36  H2  UNL     1      15.115  46.866  61.884  1.00  0.00     0.211 HD
ENDBRANCH   9  35
BRANCH   4  37
HETATM   37  O1  UNL     1      19.080  53.102  61.982  1.00  0.00    -0.395 OA
ATOM     38  H1  UNL     1      18.461  53.382  61.319  1.00  0.00     0.210 HD
ENDBRANCH   4  37
TORSDOF 10
ENDMDL
