MODEL 1
REMARK VINA RESULT: -6.402260065      0.000      0.000
REMARK  2 active torsions:
REMARK  status: ('A' for Active; 'I' for Inactive)
REMARK    1  A    between atoms: N3_6  and  N4_8 
REMARK    2  A    between atoms: N4_8  and  C4_10 
ROOT
HETATM    1  N1  UNL     1      34.240  34.203  52.207  1.00  0.00    -0.189 NA
HETATM    2  C1  UNL     1      33.393  34.715  51.604  1.00  0.00     0.130 C 
HETATM    3  C2  UNL     1      32.316  35.353  50.862  1.00  0.00     0.209 C 
HETATM    4  C3  UNL     1      31.897  36.702  51.144  1.00  0.00     0.130 C 
HETATM    5  N2  UNL     1      31.566  37.811  51.362  1.00  0.00    -0.189 NA
HETATM    6  N3  UNL     1      31.744  34.679  49.924  1.00  0.00    -0.281 N 
ATOM      7  H3  UNL     1      30.985  35.107  49.395  1.00  0.00     0.188 HD
ENDROOT
BRANCH   6   8
HETATM    8  N4  UNL     1      32.131  33.397  49.621  1.00  0.00    -0.298 N 
ATOM      9  H4  UNL     1      31.898  32.682  50.311  1.00  0.00     0.187 HD
BRANCH   8  10
HETATM   10  C4  UNL     1      32.813  32.948  48.470  1.00  0.00     0.063 A 
HETATM   11  C5  UNL     1      32.192  32.261  47.431  1.00  0.00     0.034 A 
HETATM   12  C6  UNL     1      32.862  31.820  46.315  1.00  0.00     0.019 A 
HETATM   13  C7  UNL     1      34.209  32.071  46.220  1.00  0.00     0.088 A 
HETATM   14  N5  UNL     1      34.843  32.736  47.209  1.00  0.00    -0.373 N 
HETATM   15  C8  UNL     1      34.169  33.170  48.315  1.00  0.00     0.118 A 
ATOM     16  H5  UNL     1      35.843  32.917  47.130  1.00  0.00     0.164 HD
ENDBRANCH   8  10
ENDBRANCH   6   8
TORSDOF 2
ENDMDL
MODEL 2
REMARK VINA RESULT: -6.090689249      1.438      2.146
REMARK  2 active torsions:
REMARK  status: ('A' for Active; 'I' for Inactive)
REMARK    1  A    between atoms: N3_6  and  N4_8 
REMARK    2  A    between atoms: N4_8  and  C4_10 
ROOT
HETATM    1  N1  UNL     1      30.208  35.503  48.253  1.00  0.00    -0.189 NA
HETATM    2  C1  UNL     1      31.187  35.706  48.838  1.00  0.00     0.130 C 
HETATM    3  C2  UNL     1      32.426  35.967  49.555  1.00  0.00     0.209 C 
HETATM    4  C3  UNL     1      32.787  37.294  49.985  1.00  0.00     0.130 C 
HETATM    5  N2  UNL     1      33.074  38.375  50.354  1.00  0.00    -0.189 NA
HETATM    6  N3  UNL     1      33.200  34.969  49.811  1.00  0.00    -0.281 N 
ATOM      7  H3  UNL     1      34.074  35.132  50.310  1.00  0.00     0.188 HD
ENDROOT
BRANCH   6   8
HETATM    8  N4  UNL     1      32.876  33.691  49.428  1.00  0.00    -0.298 N 
ATOM      9  H4  UNL     1      32.340  33.143  50.101  1.00  0.00     0.187 HD
BRANCH   8  10
HETATM   10  C4  UNL     1      33.194  33.044  48.215  1.00  0.00     0.063 A 
HETATM   11  C5  UNL     1      32.259  32.361  47.443  1.00  0.00     0.034 A 
HETATM   12  C6  UNL     1      32.575  31.726  46.265  1.00  0.00     0.019 A 
HETATM   13  C7  UNL     1      33.877  31.771  45.828  1.00  0.00     0.088 A 
HETATM   14  N5  UNL     1      34.810  32.426  46.552  1.00  0.00    -0.373 N 
HETATM   15  C8  UNL     1      34.486  33.053  47.722  1.00  0.00     0.118 A 
ATOM     16  H5  UNL     1      35.773  32.453  46.220  1.00  0.00     0.164 HD
ENDBRANCH   8  10
ENDBRANCH   6   8
TORSDOF 2
ENDMDL
MODEL 3
REMARK VINA RESULT: -5.960659276      1.412      5.564
REMARK  2 active torsions:
REMARK  status: ('A' for Active; 'I' for Inactive)
REMARK    1  A    between atoms: N3_6  and  N4_8 
REMARK    2  A    between atoms: N4_8  and  C4_10 
ROOT
HETATM    1  N1  UNL     1      30.856  32.810  47.786  1.00  0.00    -0.189 NA
HETATM    2  C1  UNL     1      32.008  32.781  47.906  1.00  0.00     0.130 C 
HETATM    3  C2  UNL     1      33.454  32.724  48.063  1.00  0.00     0.209 C 
HETATM    4  C3  UNL     1      34.311  32.244  47.009  1.00  0.00     0.130 C 
HETATM    5  N2  UNL     1      35.015  31.870  46.141  1.00  0.00    -0.189 NA
HETATM    6  N3  UNL     1      33.959  33.129  49.177  1.00  0.00    -0.281 N 
ATOM      7  H3  UNL     1      34.970  33.094  49.307  1.00  0.00     0.188 HD
ENDROOT
BRANCH   6   8
HETATM    8  N4  UNL     1      33.169  33.606  50.193  1.00  0.00    -0.298 N 
ATOM      9  H4  UNL     1      32.557  32.924  50.643  1.00  0.00     0.187 HD
BRANCH   8  10
HETATM   10  C4  UNL     1      33.102  34.924  50.692  1.00  0.00     0.063 A 
HETATM   11  C5  UNL     1      33.181  35.235  52.047  1.00  0.00     0.034 A 
HETATM   12  C6  UNL     1      33.110  36.521  52.528  1.00  0.00     0.019 A 
HETATM   13  C7  UNL     1      32.954  37.547  51.629  1.00  0.00     0.088 A 
HETATM   14  N5  UNL     1      32.874  37.281  50.308  1.00  0.00    -0.373 N 
HETATM   15  C8  UNL     1      32.946  36.000  49.838  1.00  0.00     0.118 A 
ATOM     16  H5  UNL     1      32.758  38.050  49.648  1.00  0.00     0.164 HD
ENDBRANCH   8  10
ENDBRANCH   6   8
TORSDOF 2
ENDMDL
MODEL 4
REMARK VINA RESULT: -5.948456748      1.444      5.559
REMARK  2 active torsions:
REMARK  status: ('A' for Active; 'I' for Inactive)
REMARK    1  A    between atoms: N3_6  and  N4_8 
REMARK    2  A    between atoms: N4_8  and  C4_10 
ROOT
HETATM    1  N1  UNL     1      30.853  32.755  47.753  1.00  0.00    -0.189 NA
HETATM    2  C1  UNL     1      32.002  32.754  47.899  1.00  0.00     0.130 C 
HETATM    3  C2  UNL     1      33.446  32.733  48.087  1.00  0.00     0.209 C 
HETATM    4  C3  UNL     1      34.337  32.277  47.051  1.00  0.00     0.130 C 
HETATM    5  N2  UNL     1      35.068  31.922  46.198  1.00  0.00    -0.189 NA
HETATM    6  N3  UNL     1      33.916  33.148  49.212  1.00  0.00    -0.281 N 
ATOM      7  H3  UNL     1      34.924  33.139  49.364  1.00  0.00     0.188 HD
ENDROOT
BRANCH   6   8
HETATM    8  N4  UNL     1      33.093  33.603  50.212  1.00  0.00    -0.298 N 
ATOM      9  H4  UNL     1      32.407  32.936  50.566  1.00  0.00     0.187 HD
BRANCH   8  10
HETATM   10  C4  UNL     1      33.082  34.882  50.809  1.00  0.00     0.063 A 
HETATM   11  C5  UNL     1      32.835  36.055  50.102  1.00  0.00     0.034 A 
HETATM   12  C6  UNL     1      32.832  37.299  50.688  1.00  0.00     0.019 A 
HETATM   13  C7  UNL     1      33.082  37.387  52.035  1.00  0.00     0.088 A 
HETATM   14  N5  UNL     1      33.325  36.268  52.751  1.00  0.00    -0.373 N 
HETATM   15  C8  UNL     1      33.327  35.037  52.161  1.00  0.00     0.118 A 
ATOM     16  H5  UNL     1      33.510  36.344  53.751  1.00  0.00     0.164 HD
ENDBRANCH   8  10
ENDBRANCH   6   8
TORSDOF 2
ENDMDL
MODEL 5
REMARK VINA RESULT: -5.865503250      1.617      2.305
REMARK  2 active torsions:
REMARK  status: ('A' for Active; 'I' for Inactive)
REMARK    1  A    between atoms: N3_6  and  N4_8 
REMARK    2  A    between atoms: N4_8  and  C4_10 
ROOT
HETATM    1  N1  UNL     1      33.126  38.480  50.093  1.00  0.00    -0.189 NA
HETATM    2  C1  UNL     1      32.713  37.662  50.803  1.00  0.00     0.130 C 
HETATM    3  C2  UNL     1      32.215  36.628  51.699  1.00  0.00     0.209 C 
HETATM    4  C3  UNL     1      32.135  36.834  53.122  1.00  0.00     0.130 C 
HETATM    5  N2  UNL     1      32.051  37.008  54.284  1.00  0.00    -0.189 NA
HETATM    6  N3  UNL     1      31.831  35.512  51.181  1.00  0.00    -0.281 N 
ATOM      7  H3  UNL     1      31.482  34.774  51.792  1.00  0.00     0.188 HD
ENDROOT
BRANCH   6   8
HETATM    8  N4  UNL     1      31.881  35.292  49.827  1.00  0.00    -0.298 N 
ATOM      9  H4  UNL     1      31.298  35.900  49.252  1.00  0.00     0.187 HD
BRANCH   8  10
HETATM   10  C4  UNL     1      32.643  34.327  49.135  1.00  0.00     0.063 A 
HETATM   11  C5  UNL     1      32.078  33.309  48.371  1.00  0.00     0.034 A 
HETATM   12  C6  UNL     1      32.825  32.367  47.704  1.00  0.00     0.019 A 
HETATM   13  C7  UNL     1      34.193  32.435  47.795  1.00  0.00     0.088 A 
HETATM   14  N5  UNL     1      34.774  33.409  48.527  1.00  0.00    -0.373 N 
HETATM   15  C8  UNL     1      34.025  34.341  49.187  1.00  0.00     0.118 A 
ATOM     16  H5  UNL     1      35.791  33.450  48.588  1.00  0.00     0.164 HD
ENDBRANCH   8  10
ENDBRANCH   6   8
TORSDOF 2
ENDMDL
