MODEL 1
REMARK VINA RESULT: -5.448019132      0.000      0.000
REMARK  4 active torsions:
REMARK  status: ('A' for Active; 'I' for Inactive)
REMARK    1  A    between atoms: C1_4  and  O1_5 
REMARK    2  A    between atoms: C1_4  and  N3_10 
REMARK    3  A    between atoms: O1_5  and  C2_6 
REMARK    4  A    between atoms: C2_6  and  N2_7 
ROOT
HETATM    1  N1  UNL     1      33.918  34.201  52.200  1.00  0.00    -0.365 N 
ATOM      2  H11 UNL     1      33.368  34.777  52.837  1.00  0.00     0.159 HD
ATOM      3  H12 UNL     1      34.676  33.628  52.571  1.00  0.00     0.159 HD
HETATM    4  C1  UNL     1      33.615  34.238  50.962  1.00  0.00     0.216 C 
ENDROOT
BRANCH   4   5
HETATM    5  O1  UNL     1      34.365  33.455  50.096  1.00  0.00    -0.296 OA
BRANCH   5   6
HETATM    6  C2  UNL     1      34.706  33.814  48.789  1.00  0.00     0.379 C 
BRANCH   6   7
HETATM    7  N2  UNL     1      34.178  32.908  47.788  1.00  0.00    -0.130 N 
HETATM    8  O2  UNL     1      33.137  32.298  48.023  1.00  0.00    -0.535 OA
HETATM    9  O3  UNL     1      34.870  32.775  46.616  1.00  0.00    -0.535 OA
ENDBRANCH   6   7
ENDBRANCH   5   6
ENDBRANCH   4   5
BRANCH   4  10
HETATM   10  N3  UNL     1      32.570  35.028  50.451  1.00  0.00    -0.348 N 
HETATM   11  C3  UNL     1      32.531  36.472  50.219  1.00  0.00     0.126 C 
HETATM   12  C4  UNL     1      31.849  36.535  48.869  1.00  0.00     0.021 C 
HETATM   13  C5  UNL     1      30.938  35.347  48.788  1.00  0.00     0.021 C 
HETATM   14  C6  UNL     1      31.253  34.571  50.025  1.00  0.00     0.126 C 
ENDBRANCH   4  10
TORSDOF 4
ENDMDL
MODEL 2
REMARK VINA RESULT: -5.427748786      2.431      4.362
REMARK  4 active torsions:
REMARK  status: ('A' for Active; 'I' for Inactive)
REMARK    1  A    between atoms: C1_4  and  O1_5 
REMARK    2  A    between atoms: C1_4  and  N3_10 
REMARK    3  A    between atoms: O1_5  and  C2_6 
REMARK    4  A    between atoms: C2_6  and  N2_7 
ROOT
HETATM    1  N1  UNL     1      35.355  34.161  48.930  1.00  0.00    -0.365 N 
ATOM      2  H11 UNL     1      36.028  33.622  48.384  1.00  0.00     0.159 HD
ATOM      3  H12 UNL     1      35.684  34.931  49.511  1.00  0.00     0.159 HD
HETATM    4  C1  UNL     1      34.127  33.826  48.846  1.00  0.00     0.216 C 
ENDROOT
BRANCH   4   5
HETATM    5  O1  UNL     1      33.212  34.559  49.588  1.00  0.00    -0.296 OA
BRANCH   5   6
HETATM    6  C2  UNL     1      32.848  34.278  50.908  1.00  0.00     0.379 C 
BRANCH   6   7
HETATM    7  N2  UNL     1      33.748  34.855  51.887  1.00  0.00    -0.130 N 
HETATM    8  O2  UNL     1      33.428  35.900  52.451  1.00  0.00    -0.535 OA
HETATM    9  O3  UNL     1      34.922  34.202  52.142  1.00  0.00    -0.535 OA
ENDBRANCH   6   7
ENDBRANCH   5   6
ENDBRANCH   4   5
BRANCH   4  10
HETATM   10  N3  UNL     1      33.674  32.765  48.044  1.00  0.00    -0.348 N 
HETATM   11  C3  UNL     1      32.438  31.988  48.148  1.00  0.00     0.126 C 
HETATM   12  C4  UNL     1      32.024  31.895  46.695  1.00  0.00     0.021 C 
HETATM   13  C5  UNL     1      33.285  31.919  45.883  1.00  0.00     0.021 C 
HETATM   14  C6  UNL     1      34.354  32.182  46.893  1.00  0.00     0.126 C 
ENDBRANCH   4  10
TORSDOF 4
ENDMDL
MODEL 3
REMARK VINA RESULT: -5.379485269      1.652      2.444
REMARK  4 active torsions:
REMARK  status: ('A' for Active; 'I' for Inactive)
REMARK    1  A    between atoms: C1_4  and  O1_5 
REMARK    2  A    between atoms: C1_4  and  N3_10 
REMARK    3  A    between atoms: O1_5  and  C2_6 
REMARK    4  A    between atoms: C2_6  and  N2_7 
ROOT
HETATM    1  N1  UNL     1      35.127  33.812  49.443  1.00  0.00    -0.365 N 
ATOM      2  H11 UNL     1      35.716  34.088  50.227  1.00  0.00     0.159 HD
ATOM      3  H12 UNL     1      35.559  33.443  48.596  1.00  0.00     0.159 HD
HETATM    4  C1  UNL     1      33.866  33.950  49.577  1.00  0.00     0.216 C 
ENDROOT
BRANCH   4   5
HETATM    5  O1  UNL     1      33.064  33.574  48.509  1.00  0.00    -0.296 OA
BRANCH   5   6
HETATM    6  C2  UNL     1      33.083  32.315  47.902  1.00  0.00     0.379 C 
BRANCH   6   7
HETATM    7  N2  UNL     1      33.707  32.318  46.593  1.00  0.00    -0.130 N 
HETATM    8  O2  UNL     1      34.882  32.664  46.491  1.00  0.00    -0.535 OA
HETATM    9  O3  UNL     1      32.950  31.930  45.522  1.00  0.00    -0.535 OA
ENDBRANCH   6   7
ENDBRANCH   5   6
ENDBRANCH   4   5
BRANCH   4  10
HETATM   10  N3  UNL     1      33.270  34.457  50.744  1.00  0.00    -0.348 N 
HETATM   11  C3  UNL     1      33.834  34.590  52.088  1.00  0.00     0.126 C 
HETATM   12  C4  UNL     1      33.339  35.966  52.481  1.00  0.00     0.021 C 
HETATM   13  C5  UNL     1      32.036  36.177  51.771  1.00  0.00     0.021 C 
HETATM   14  C6  UNL     1      31.916  34.982  50.882  1.00  0.00     0.126 C 
ENDBRANCH   4  10
TORSDOF 4
ENDMDL
MODEL 4
REMARK VINA RESULT: -5.344575528      2.344      4.128
REMARK  4 active torsions:
REMARK  status: ('A' for Active; 'I' for Inactive)
REMARK    1  A    between atoms: C1_4  and  O1_5 
REMARK    2  A    between atoms: C1_4  and  N3_10 
REMARK    3  A    between atoms: O1_5  and  C2_6 
REMARK    4  A    between atoms: C2_6  and  N2_7 
ROOT
HETATM    1  N1  UNL     1      34.651  33.506  48.422  1.00  0.00    -0.365 N 
ATOM      2  H11 UNL     1      34.749  32.734  47.762  1.00  0.00     0.159 HD
ATOM      3  H12 UNL     1      35.477  34.033  48.704  1.00  0.00     0.159 HD
HETATM    4  C1  UNL     1      33.480  33.762  48.857  1.00  0.00     0.216 C 
ENDROOT
BRANCH   4   5
HETATM    5  O1  UNL     1      33.346  34.811  49.755  1.00  0.00    -0.296 OA
BRANCH   5   6
HETATM    6  C2  UNL     1      32.754  34.709  51.017  1.00  0.00     0.379 C 
BRANCH   6   7
HETATM    7  N2  UNL     1      33.651  35.057  52.102  1.00  0.00    -0.130 N 
HETATM    8  O2  UNL     1      33.361  35.996  52.841  1.00  0.00    -0.535 OA
HETATM    9  O3  UNL     1      34.790  34.315  52.254  1.00  0.00    -0.535 OA
ENDBRANCH   6   7
ENDBRANCH   5   6
ENDBRANCH   4   5
BRANCH   4  10
HETATM   10  N3  UNL     1      32.341  33.035  48.467  1.00  0.00    -0.348 N 
HETATM   11  C3  UNL     1      32.210  31.608  48.173  1.00  0.00     0.126 C 
HETATM   12  C4  UNL     1      30.906  31.281  48.868  1.00  0.00     0.021 C 
HETATM   13  C5  UNL     1      30.074  32.528  48.835  1.00  0.00     0.021 C 
HETATM   14  C6  UNL     1      30.994  33.556  48.264  1.00  0.00     0.126 C 
ENDBRANCH   4  10
TORSDOF 4
ENDMDL
MODEL 5
REMARK VINA RESULT: -5.309599392      2.359      3.799
REMARK  4 active torsions:
REMARK  status: ('A' for Active; 'I' for Inactive)
REMARK    1  A    between atoms: C1_4  and  O1_5 
REMARK    2  A    between atoms: C1_4  and  N3_10 
REMARK    3  A    between atoms: O1_5  and  C2_6 
REMARK    4  A    between atoms: C2_6  and  N2_7 
ROOT
HETATM    1  N1  UNL     1      34.623  34.026  48.810  1.00  0.00    -0.365 N 
ATOM      2  H11 UNL     1      34.544  34.038  47.793  1.00  0.00     0.159 HD
ATOM      3  H12 UNL     1      35.470  34.385  49.250  1.00  0.00     0.159 HD
HETATM    4  C1  UNL     1      33.641  33.553  49.471  1.00  0.00     0.216 C 
ENDROOT
BRANCH   4   5
HETATM    5  O1  UNL     1      33.750  33.536  50.855  1.00  0.00    -0.296 OA
BRANCH   5   6
HETATM    6  C2  UNL     1      33.670  34.665  51.674  1.00  0.00     0.379 C 
BRANCH   6   7
HETATM    7  N2  UNL     1      32.698  35.639  51.217  1.00  0.00    -0.130 N 
HETATM    8  O2  UNL     1      31.540  35.565  51.625  1.00  0.00    -0.535 OA
HETATM    9  O3  UNL     1      33.119  36.604  50.345  1.00  0.00    -0.535 OA
ENDBRANCH   6   7
ENDBRANCH   5   6
ENDBRANCH   4   5
BRANCH   4  10
HETATM   10  N3  UNL     1      32.474  33.059  48.864  1.00  0.00    -0.348 N 
HETATM   11  C3  UNL     1      32.169  31.699  48.416  1.00  0.00     0.126 C 
HETATM   12  C4  UNL     1      30.741  31.544  48.895  1.00  0.00     0.021 C 
HETATM   13  C5  UNL     1      30.127  32.911  48.873  1.00  0.00     0.021 C 
HETATM   14  C6  UNL     1      31.269  33.811  48.534  1.00  0.00     0.126 C 
ENDBRANCH   4  10
TORSDOF 4
ENDMDL
