MODEL 1
REMARK VINA RESULT: -5.900947259      0.000      0.000
REMARK  3 active torsions:
REMARK  status: ('A' for Active; 'I' for Inactive)
REMARK    1  A    between atoms: N1_2  and  O3_4 
REMARK    2  A    between atoms: O3_4  and  C1_5 
REMARK    3  A    between atoms: N2_8  and  O4_10 
ROOT
HETATM    1  C1  UNL     1      32.996  33.622  49.316  1.00  0.00     0.306 C 
HETATM    2  C2  UNL     1      34.254  33.415  48.508  1.00  0.00     0.122 C 
HETATM    3  C3  UNL     1      34.014  32.596  47.294  1.00  0.00     0.038 C 
HETATM    4  N2  UNL     1      35.013  32.340  46.531  1.00  0.00    -0.273 N 
ATOM      5  H2  UNL     1      35.927  32.709  46.792  1.00  0.00     0.193 HD
HETATM    6  C4  UNL     1      32.698  32.078  46.942  1.00  0.00     0.051 C 
HETATM    7  C5  UNL     1      31.770  32.083  47.885  1.00  0.00     0.140 C 
HETATM    8  O5  UNL     1      32.069  32.569  49.151  1.00  0.00    -0.329 OA
ENDROOT
BRANCH   1   9
HETATM    9  O3  UNL     1      32.439  34.875  48.933  1.00  0.00    -0.188 OA
BRANCH   9  10
HETATM   10  N1  UNL     1      31.186  35.273  49.276  1.00  0.00     0.007 N 
HETATM   11  O1  UNL     1      30.911  35.644  50.454  1.00  0.00    -0.511 OA
HETATM   12  O2  UNL     1      30.147  35.300  48.382  1.00  0.00    -0.511 OA
ENDBRANCH   9  10
ENDBRANCH   1   9
BRANCH   4  13
HETATM   13  O4  UNL     1      34.916  31.594  45.381  1.00  0.00    -0.290 OA
ATOM     14  H4  UNL     1      35.226  30.698  45.310  1.00  0.00     0.244 HD
ENDBRANCH   4  13
TORSDOF 3
ENDMDL
MODEL 2
REMARK VINA RESULT: -5.864209458      1.322      1.485
REMARK  3 active torsions:
REMARK  status: ('A' for Active; 'I' for Inactive)
REMARK    1  A    between atoms: N1_2  and  O3_4 
REMARK    2  A    between atoms: O3_4  and  C1_5 
REMARK    3  A    between atoms: N2_8  and  O4_10 
ROOT
HETATM    1  C1  UNL     1      33.462  33.751  49.652  1.00  0.00     0.306 C 
HETATM    2  C2  UNL     1      34.586  33.489  48.680  1.00  0.00     0.122 C 
HETATM    3  C3  UNL     1      34.138  32.713  47.497  1.00  0.00     0.038 C 
HETATM    4  N2  UNL     1      35.008  32.416  46.604  1.00  0.00    -0.273 N 
ATOM      5  H2  UNL     1      35.970  32.726  46.744  1.00  0.00     0.193 HD
HETATM    6  C4  UNL     1      32.757  32.280  47.317  1.00  0.00     0.051 C 
HETATM    7  C5  UNL     1      31.965  32.319  48.376  1.00  0.00     0.140 C 
HETATM    8  O5  UNL     1      32.459  32.758  49.597  1.00  0.00    -0.329 OA
ENDROOT
BRANCH   1   9
HETATM    9  O3  UNL     1      32.936  35.043  49.365  1.00  0.00    -0.188 OA
BRANCH   9  10
HETATM   10  N1  UNL     1      32.951  36.071  50.254  1.00  0.00     0.007 N 
HETATM   11  O1  UNL     1      32.985  35.864  51.501  1.00  0.00    -0.511 OA
HETATM   12  O2  UNL     1      32.931  37.385  49.863  1.00  0.00    -0.511 OA
ENDBRANCH   9  10
ENDBRANCH   1   9
BRANCH   4  13
HETATM   13  O4  UNL     1      34.714  31.703  45.466  1.00  0.00    -0.290 OA
ATOM     14  H4  UNL     1      35.110  30.865  45.256  1.00  0.00     0.244 HD
ENDBRANCH   4  13
TORSDOF 3
ENDMDL
MODEL 3
REMARK VINA RESULT: -5.805920285      1.111      1.426
REMARK  3 active torsions:
REMARK  status: ('A' for Active; 'I' for Inactive)
REMARK    1  A    between atoms: N1_2  and  O3_4 
REMARK    2  A    between atoms: O3_4  and  C1_5 
REMARK    3  A    between atoms: N2_8  and  O4_10 
ROOT
HETATM    1  C1  UNL     1      32.066  34.263  49.341  1.00  0.00     0.306 C 
HETATM    2  C2  UNL     1      33.524  34.158  48.970  1.00  0.00     0.122 C 
HETATM    3  C3  UNL     1      33.788  33.034  48.037  1.00  0.00     0.038 C 
HETATM    4  N2  UNL     1      34.996  32.834  47.658  1.00  0.00    -0.273 N 
ATOM      5  H2  UNL     1      35.723  33.455  48.014  1.00  0.00     0.193 HD
HETATM    6  C4  UNL     1      32.731  32.159  47.541  1.00  0.00     0.051 C 
HETATM    7  C5  UNL     1      31.573  32.183  48.179  1.00  0.00     0.140 C 
HETATM    8  O5  UNL     1      31.400  33.019  49.275  1.00  0.00    -0.329 OA
ENDROOT
BRANCH   1   9
HETATM    9  O3  UNL     1      31.469  35.223  48.476  1.00  0.00    -0.188 OA
BRANCH   9  10
HETATM   10  N1  UNL     1      30.144  35.528  48.496  1.00  0.00     0.007 N 
HETATM   11  O1  UNL     1      29.326  34.966  47.713  1.00  0.00    -0.511 OA
HETATM   12  O2  UNL     1      29.612  36.454  49.356  1.00  0.00    -0.511 OA
ENDBRANCH   9  10
ENDBRANCH   1   9
BRANCH   4  13
HETATM   13  O4  UNL     1      35.363  31.827  46.797  1.00  0.00    -0.290 OA
ATOM     14  H4  UNL     1      36.060  31.208  46.982  1.00  0.00     0.244 HD
ENDBRANCH   4  13
TORSDOF 3
ENDMDL
MODEL 4
REMARK VINA RESULT: -5.685112515      2.341      2.901
REMARK  3 active torsions:
REMARK  status: ('A' for Active; 'I' for Inactive)
REMARK    1  A    between atoms: N1_2  and  O3_4 
REMARK    2  A    between atoms: O3_4  and  C1_5 
REMARK    3  A    between atoms: N2_8  and  O4_10 
ROOT
HETATM    1  C1  UNL     1      32.336  35.206  50.827  1.00  0.00     0.306 C 
HETATM    2  C2  UNL     1      33.731  34.884  50.351  1.00  0.00     0.122 C 
HETATM    3  C3  UNL     1      33.729  34.140  49.067  1.00  0.00     0.038 C 
HETATM    4  N2  UNL     1      34.858  33.797  48.566  1.00  0.00    -0.273 N 
ATOM      5  H2  UNL     1      35.708  34.050  49.070  1.00  0.00     0.193 HD
HETATM    6  C4  UNL     1      32.501  33.788  48.363  1.00  0.00     0.051 C 
HETATM    7  C5  UNL     1      31.368  33.868  49.041  1.00  0.00     0.140 C 
HETATM    8  O5  UNL     1      31.380  34.273  50.369  1.00  0.00    -0.329 OA
ENDROOT
BRANCH   1   9
HETATM    9  O3  UNL     1      32.026  36.528  50.394  1.00  0.00    -0.188 OA
BRANCH   9  10
HETATM   10  N1  UNL     1      32.754  37.620  50.747  1.00  0.00     0.007 N 
HETATM   11  O1  UNL     1      33.254  38.389  49.876  1.00  0.00    -0.511 OA
HETATM   12  O2  UNL     1      32.992  37.960  52.054  1.00  0.00    -0.511 OA
ENDBRANCH   9  10
ENDBRANCH   1   9
BRANCH   4  13
HETATM   13  O4  UNL     1      34.984  33.106  47.384  1.00  0.00    -0.290 OA
ATOM     14  H4  UNL     1      35.770  33.120  46.851  1.00  0.00     0.244 HD
ENDBRANCH   4  13
TORSDOF 3
ENDMDL
MODEL 5
REMARK VINA RESULT: -5.527542051      2.577      4.030
REMARK  3 active torsions:
REMARK  status: ('A' for Active; 'I' for Inactive)
REMARK    1  A    between atoms: N1_2  and  O3_4 
REMARK    2  A    between atoms: O3_4  and  C1_5 
REMARK    3  A    between atoms: N2_8  and  O4_10 
ROOT
HETATM    1  C1  UNL     1      33.592  34.198  49.460  1.00  0.00     0.306 C 
HETATM    2  C2  UNL     1      32.251  34.891  49.472  1.00  0.00     0.122 C 
HETATM    3  C3  UNL     1      31.164  34.021  48.958  1.00  0.00     0.038 C 
HETATM    4  N2  UNL     1      29.978  34.504  48.906  1.00  0.00    -0.273 N 
ATOM      5  H2  UNL     1      29.832  35.464  49.220  1.00  0.00     0.193 HD
HETATM    6  C4  UNL     1      31.395  32.652  48.514  1.00  0.00     0.051 C 
HETATM    7  C5  UNL     1      32.647  32.292  48.280  1.00  0.00     0.140 C 
HETATM    8  O5  UNL     1      33.677  33.205  48.459  1.00  0.00    -0.329 OA
ENDROOT
BRANCH   1   9
HETATM    9  O3  UNL     1      33.807  33.653  50.758  1.00  0.00    -0.188 OA
BRANCH   9  10
HETATM   10  N1  UNL     1      34.331  34.365  51.791  1.00  0.00     0.007 N 
HETATM   11  O1  UNL     1      35.540  34.232  52.138  1.00  0.00    -0.511 OA
HETATM   12  O2  UNL     1      33.594  35.264  52.518  1.00  0.00    -0.511 OA
ENDBRANCH   9  10
ENDBRANCH   1   9
BRANCH   4  13
HETATM   13  O4  UNL     1      28.891  33.797  48.451  1.00  0.00    -0.290 OA
ATOM     14  H4  UNL     1      28.841  32.848  48.462  1.00  0.00     0.244 HD
ENDBRANCH   4  13
TORSDOF 3
ENDMDL
