MODEL 1
REMARK VINA RESULT: -6.918877607      0.000      0.000
REMARK  4 active torsions:
REMARK  status: ('A' for Active; 'I' for Inactive)
REMARK    1  A    between atoms: N1_2  and  C1_4 
REMARK    2  A    between atoms: C5_8  and  C6_9 
REMARK    3  A    between atoms: C6_9  and  O3_10 
REMARK    4  A    between atoms: N2_12  and  O4_14 
ROOT
HETATM    1  C1  UNL     1      30.632  33.931  48.483  1.00  0.00     0.103 A 
HETATM    2  C2  UNL     1      30.059  32.706  48.675  1.00  0.00     0.036 A 
HETATM    3  C3  UNL     1      30.889  31.604  48.818  1.00  0.00     0.003 A 
HETATM    4  C4  UNL     1      32.246  31.758  48.765  1.00  0.00     0.016 A 
HETATM    5  C5  UNL     1      32.836  33.014  48.570  1.00  0.00     0.019 A 
HETATM    6  C7  UNL     1      32.019  34.112  48.427  1.00  0.00     0.052 A 
ENDROOT
BRANCH   5   7
HETATM    7  C6  UNL     1      34.293  33.116  48.523  1.00  0.00     0.170 C 
HETATM    8  N2  UNL     1      34.953  32.943  47.493  1.00  0.00    -0.247 N 
ATOM      9  H2  UNL     1      35.946  33.063  47.692  1.00  0.00     0.196 HD
BRANCH   7  10
HETATM   10  O3  UNL     1      34.921  33.433  49.760  1.00  0.00    -0.344 OA
ATOM     11  H3  UNL     1      35.717  33.948  49.692  1.00  0.00     0.219 HD
ENDBRANCH   7  10
BRANCH   8  12
HETATM   12  O4  UNL     1      34.781  32.655  46.224  1.00  0.00    -0.288 OA
ATOM     13  H4  UNL     1      35.285  32.561  45.423  1.00  0.00     0.244 HD
ENDBRANCH   8  12
ENDBRANCH   5   7
BRANCH   1  14
HETATM   14  N1  UNL     1      29.800  35.087  48.333  1.00  0.00    -0.116 N 
HETATM   15  O1  UNL     1      28.992  35.197  47.390  1.00  0.00    -0.532 OA
HETATM   16  O2  UNL     1      29.880  36.114  49.241  1.00  0.00    -0.532 OA
ENDBRANCH   1  14
TORSDOF 4
ENDMDL
MODEL 2
REMARK VINA RESULT: -6.623483837      0.837      1.646
REMARK  4 active torsions:
REMARK  status: ('A' for Active; 'I' for Inactive)
REMARK    1  A    between atoms: N1_2  and  C1_4 
REMARK    2  A    between atoms: C5_8  and  C6_9 
REMARK    3  A    between atoms: C6_9  and  O3_10 
REMARK    4  A    between atoms: N2_12  and  O4_14 
ROOT
HETATM    1  C1  UNL     1      30.578  33.979  48.467  1.00  0.00     0.103 A 
HETATM    2  C2  UNL     1      30.048  32.728  48.622  1.00  0.00     0.036 A 
HETATM    3  C3  UNL     1      30.915  31.662  48.803  1.00  0.00     0.003 A 
HETATM    4  C4  UNL     1      32.266  31.873  48.823  1.00  0.00     0.016 A 
HETATM    5  C5  UNL     1      32.811  33.154  48.665  1.00  0.00     0.019 A 
HETATM    6  C7  UNL     1      31.957  34.218  48.485  1.00  0.00     0.052 A 
ENDROOT
BRANCH   5   7
HETATM    7  C6  UNL     1      34.263  33.318  48.696  1.00  0.00     0.170 C 
HETATM    8  N2  UNL     1      34.892  33.613  49.718  1.00  0.00    -0.247 N 
ATOM      9  H2  UNL     1      35.888  33.673  49.508  1.00  0.00     0.196 HD
BRANCH   7  10
HETATM   10  O3  UNL     1      34.925  33.113  47.453  1.00  0.00    -0.344 OA
ATOM     11  H3  UNL     1      35.874  33.095  47.496  1.00  0.00     0.219 HD
ENDBRANCH   7  10
BRANCH   8  12
HETATM   12  O4  UNL     1      34.684  33.872  50.988  1.00  0.00    -0.288 OA
ATOM     13  H4  UNL     1      34.482  33.421  51.800  1.00  0.00     0.244 HD
ENDBRANCH   8  12
ENDBRANCH   5   7
BRANCH   1  14
HETATM   14  N1  UNL     1      29.707  35.099  48.279  1.00  0.00    -0.116 N 
HETATM   15  O1  UNL     1      28.935  35.175  47.303  1.00  0.00    -0.532 OA
HETATM   16  O2  UNL     1      29.707  36.130  49.186  1.00  0.00    -0.532 OA
ENDBRANCH   1  14
TORSDOF 4
ENDMDL
MODEL 3
REMARK VINA RESULT: -6.446757597      1.274      1.384
REMARK  4 active torsions:
REMARK  status: ('A' for Active; 'I' for Inactive)
REMARK    1  A    between atoms: N1_2  and  C1_4 
REMARK    2  A    between atoms: C5_8  and  C6_9 
REMARK    3  A    between atoms: C6_9  and  O3_10 
REMARK    4  A    between atoms: N2_12  and  O4_14 
ROOT
HETATM    1  C1  UNL     1      30.690  35.257  48.661  1.00  0.00     0.103 A 
HETATM    2  C2  UNL     1      29.896  34.186  48.360  1.00  0.00     0.036 A 
HETATM    3  C3  UNL     1      30.464  32.921  48.372  1.00  0.00     0.003 A 
HETATM    4  C4  UNL     1      31.786  32.766  48.680  1.00  0.00     0.016 A 
HETATM    5  C5  UNL     1      32.601  33.863  48.990  1.00  0.00     0.019 A 
HETATM    6  C7  UNL     1      32.046  35.122  48.980  1.00  0.00     0.052 A 
ENDROOT
BRANCH   5   7
HETATM    7  C6  UNL     1      34.009  33.635  49.311  1.00  0.00     0.170 C 
HETATM    8  N2  UNL     1      34.852  33.305  48.471  1.00  0.00    -0.247 N 
ATOM      9  H2  UNL     1      35.764  33.201  48.915  1.00  0.00     0.196 HD
BRANCH   7  10
HETATM   10  O3  UNL     1      34.359  33.819  50.678  1.00  0.00    -0.344 OA
ATOM     11  H3  UNL     1      35.288  33.921  50.850  1.00  0.00     0.219 HD
ENDBRANCH   7  10
BRANCH   8  12
HETATM   12  O4  UNL     1      34.947  33.046  47.187  1.00  0.00    -0.288 OA
ATOM     13  H4  UNL     1      34.903  32.310  46.587  1.00  0.00     0.244 HD
ENDBRANCH   8  12
ENDBRANCH   5   7
BRANCH   1  14
HETATM   14  N1  UNL     1      30.132  36.576  48.657  1.00  0.00    -0.116 N 
HETATM   15  O1  UNL     1      30.404  37.402  47.763  1.00  0.00    -0.532 OA
HETATM   16  O2  UNL     1      29.274  36.962  49.656  1.00  0.00    -0.532 OA
ENDBRANCH   1  14
TORSDOF 4
ENDMDL
MODEL 4
REMARK VINA RESULT: -6.330041804      2.141      3.123
REMARK  4 active torsions:
REMARK  status: ('A' for Active; 'I' for Inactive)
REMARK    1  A    between atoms: N1_2  and  C1_4 
REMARK    2  A    between atoms: C5_8  and  C6_9 
REMARK    3  A    between atoms: C6_9  and  O3_10 
REMARK    4  A    between atoms: N2_12  and  O4_14 
ROOT
HETATM    1  C1  UNL     1      32.104  32.896  48.355  1.00  0.00     0.103 A 
HETATM    2  C2  UNL     1      32.761  33.741  49.205  1.00  0.00     0.036 A 
HETATM    3  C3  UNL     1      34.140  33.840  49.100  1.00  0.00     0.003 A 
HETATM    4  C4  UNL     1      34.811  33.104  48.163  1.00  0.00     0.016 A 
HETATM    5  C5  UNL     1      34.138  32.238  47.290  1.00  0.00     0.019 A 
HETATM    6  C7  UNL     1      32.769  32.134  47.388  1.00  0.00     0.052 A 
ENDROOT
BRANCH   5   7
HETATM    7  C6  UNL     1      34.909  31.477  46.309  1.00  0.00     0.170 C 
HETATM    8  N2  UNL     1      35.868  30.758  46.609  1.00  0.00    -0.247 N 
ATOM      9  H2  UNL     1      36.254  30.325  45.770  1.00  0.00     0.196 HD
BRANCH   7  10
HETATM   10  O3  UNL     1      34.482  31.616  44.958  1.00  0.00    -0.344 OA
ATOM     11  H3  UNL     1      35.179  31.698  44.318  1.00  0.00     0.219 HD
ENDBRANCH   7  10
BRANCH   8  12
HETATM   12  O4  UNL     1      36.547  30.375  47.665  1.00  0.00    -0.288 OA
ATOM     13  H4  UNL     1      36.758  29.584  48.148  1.00  0.00     0.244 HD
ENDBRANCH   8  12
ENDBRANCH   5   7
BRANCH   1  14
HETATM   14  N1  UNL     1      30.679  32.772  48.440  1.00  0.00    -0.116 N 
HETATM   15  O1  UNL     1      30.137  31.870  49.107  1.00  0.00    -0.532 OA
HETATM   16  O2  UNL     1      29.872  33.661  47.775  1.00  0.00    -0.532 OA
ENDBRANCH   1  14
TORSDOF 4
ENDMDL
MODEL 5
REMARK VINA RESULT: -6.302253231      0.907      4.762
REMARK  4 active torsions:
REMARK  status: ('A' for Active; 'I' for Inactive)
REMARK    1  A    between atoms: N1_2  and  C1_4 
REMARK    2  A    between atoms: C5_8  and  C6_9 
REMARK    3  A    between atoms: C6_9  and  O3_10 
REMARK    4  A    between atoms: N2_12  and  O4_14 
ROOT
HETATM    1  C1  UNL     1      32.708  33.119  48.534  1.00  0.00     0.103 A 
HETATM    2  C2  UNL     1      32.157  31.877  48.684  1.00  0.00     0.036 A 
HETATM    3  C3  UNL     1      30.777  31.774  48.776  1.00  0.00     0.003 A 
HETATM    4  C4  UNL     1      30.001  32.897  48.716  1.00  0.00     0.016 A 
HETATM    5  C5  UNL     1      30.564  34.171  48.562  1.00  0.00     0.019 A 
HETATM    6  C7  UNL     1      31.932  34.282  48.470  1.00  0.00     0.052 A 
ENDROOT
BRANCH   5   7
HETATM    7  C6  UNL     1      29.682  35.336  48.504  1.00  0.00     0.170 C 
HETATM    8  N2  UNL     1      29.535  36.123  49.445  1.00  0.00    -0.247 N 
ATOM      9  H2  UNL     1      28.877  36.857  49.185  1.00  0.00     0.196 HD
BRANCH   7  10
HETATM   10  O3  UNL     1      28.989  35.514  47.274  1.00  0.00    -0.344 OA
ATOM     11  H3  UNL     1      28.100  35.843  47.353  1.00  0.00     0.219 HD
ENDBRANCH   7  10
BRANCH   8  12
HETATM   12  O4  UNL     1      29.957  36.314  50.673  1.00  0.00    -0.288 OA
ATOM     13  H4  UNL     1      30.556  35.933  51.306  1.00  0.00     0.244 HD
ENDBRANCH   8  12
ENDBRANCH   5   7
BRANCH   1  14
HETATM   14  N1  UNL     1      34.130  33.257  48.436  1.00  0.00    -0.116 N 
HETATM   15  O1  UNL     1      34.830  33.561  49.422  1.00  0.00    -0.532 OA
HETATM   16  O2  UNL     1      34.759  33.052  47.233  1.00  0.00    -0.532 OA
ENDBRANCH   1  14
TORSDOF 4
ENDMDL
