MODEL 1
REMARK VINA RESULT: -7.726082275      0.000      0.000
REMARK  3 active torsions:
REMARK  status: ('A' for Active; 'I' for Inactive)
REMARK    1  A    between atoms: N1_1  and  C1_4 
REMARK    2  A    between atoms: C2_9  and  N4_10 
REMARK    3  A    between atoms: N5_13  and  C5_14 
ROOT
HETATM    1  N4  UNL     1      60.045  14.192  24.076  1.00  0.00    -0.357 N 
HETATM    2  C3  UNL     1      61.068  15.208  24.019  1.00  0.00     0.155 C 
HETATM    3  C4  UNL     1      62.468  14.622  23.895  1.00  0.00     0.292 C 
HETATM    4  N5  UNL     1      62.609  13.644  24.954  1.00  0.00     0.096 N 
HETATM    5  C11 UNL     1      61.678  12.567  24.653  1.00  0.00     0.292 C 
HETATM    6  C12 UNL     1      60.298  13.085  25.011  1.00  0.00     0.155 C 
ENDROOT
BRANCH   1   7
HETATM    7  C2  UNL     1      58.849  14.214  23.303  1.00  0.00     0.165 A 
HETATM    8  N3  UNL     1      58.569  13.380  22.316  1.00  0.00    -0.278 N 
HETATM    9  N2  UNL     1      57.474  13.473  21.683  1.00  0.00    -0.278 N 
ATOM     10  H3  UNL     1      59.239  12.655  22.062  1.00  0.00     0.189 HD
HETATM   11  C1  UNL     1      56.608  14.429  22.027  1.00  0.00     0.160 A 
ATOM     12  H2  UNL     1      57.259  12.830  20.922  1.00  0.00     0.189 HD
HETATM   13  S1  UNL     1      57.451  15.191  23.318  1.00  0.00    -0.016 SA
BRANCH  11  14
HETATM   14  N1  UNL     1      55.435  14.686  21.498  1.00  0.00    -0.379 N 
ATOM     15  H12 UNL     1      55.076  15.529  21.049  1.00  0.00     0.158 HD
ATOM     16  H11 UNL     1      54.627  14.068  21.430  1.00  0.00     0.158 HD
ENDBRANCH  11  14
ENDBRANCH   1   7
BRANCH   4  17
HETATM   17  C5  UNL     1      63.936  13.065  25.013  1.00  0.00     0.223 C 
HETATM   18  C6  UNL     1      65.002  14.076  25.342  1.00  0.00     0.036 C 
HETATM   19  C7  UNL     1      66.326  13.360  25.287  1.00  0.00     0.002 C 
HETATM   20  C8  UNL     1      66.205  11.946  24.747  1.00  0.00     0.000 C 
HETATM   21  C9  UNL     1      65.254  11.104  25.582  1.00  0.00     0.002 C 
HETATM   22  C10 UNL     1      64.054  11.950  26.013  1.00  0.00     0.036 C 
ENDBRANCH   4  17
TORSDOF 3
ENDMDL
MODEL 2
REMARK VINA RESULT: -7.701134203      4.415      7.124
REMARK  3 active torsions:
REMARK  status: ('A' for Active; 'I' for Inactive)
REMARK    1  A    between atoms: N1_1  and  C1_4 
REMARK    2  A    between atoms: C2_9  and  N4_10 
REMARK    3  A    between atoms: N5_13  and  C5_14 
ROOT
HETATM    1  N4  UNL     1      62.675   9.773  25.791  1.00  0.00    -0.357 N 
HETATM    2  C3  UNL     1      63.800  10.579  25.382  1.00  0.00     0.155 C 
HETATM    3  C4  UNL     1      63.447  12.054  25.254  1.00  0.00     0.292 C 
HETATM    4  N5  UNL     1      62.274  12.133  24.408  1.00  0.00     0.096 N 
HETATM    5  C11 UNL     1      61.187  11.507  25.144  1.00  0.00     0.292 C 
HETATM    6  C12 UNL     1      61.423  10.010  25.058  1.00  0.00     0.155 C 
ENDROOT
BRANCH   1   7
HETATM    7  C2  UNL     1      62.723   8.796  26.826  1.00  0.00     0.165 A 
HETATM    8  N3  UNL     1      62.254   8.965  28.051  1.00  0.00    -0.278 N 
HETATM    9  N2  UNL     1      62.339   8.034  28.909  1.00  0.00    -0.278 N 
ATOM     10  H3  UNL     1      61.821   9.851  28.307  1.00  0.00     0.189 HD
HETATM   11  C1  UNL     1      62.910   6.880  28.556  1.00  0.00     0.160 A 
ATOM     12  H2  UNL     1      61.977   8.166  29.852  1.00  0.00     0.189 HD
HETATM   13  S1  UNL     1      63.322   7.200  26.918  1.00  0.00    -0.016 SA
BRANCH  11  14
HETATM   14  N1  UNL     1      63.091   5.810  29.293  1.00  0.00    -0.379 N 
ATOM     15  H12 UNL     1      62.597   4.917  29.306  1.00  0.00     0.158 HD
ATOM     16  H11 UNL     1      63.787   5.660  30.023  1.00  0.00     0.158 HD
ENDBRANCH  11  14
ENDBRANCH   1   7
BRANCH   4  17
HETATM   17  C5  UNL     1      61.876  13.497  24.125  1.00  0.00     0.223 C 
HETATM   18  C6  UNL     1      60.504  13.828  24.649  1.00  0.00     0.036 C 
HETATM   19  C7  UNL     1      60.189  15.235  24.214  1.00  0.00     0.002 C 
HETATM   20  C8  UNL     1      61.223  15.796  23.254  1.00  0.00     0.000 C 
HETATM   21  C9  UNL     1      62.615  15.797  23.863  1.00  0.00     0.002 C 
HETATM   22  C10 UNL     1      62.825  14.521  24.680  1.00  0.00     0.036 C 
ENDBRANCH   4  17
TORSDOF 3
ENDMDL
MODEL 3
REMARK VINA RESULT: -7.652509798      4.519      7.084
REMARK  3 active torsions:
REMARK  status: ('A' for Active; 'I' for Inactive)
REMARK    1  A    between atoms: N1_1  and  C1_4 
REMARK    2  A    between atoms: C2_9  and  N4_10 
REMARK    3  A    between atoms: N5_13  and  C5_14 
ROOT
HETATM    1  N4  UNL     1      61.982   9.642  25.877  1.00  0.00    -0.357 N 
HETATM    2  C3  UNL     1      62.905  10.007  24.828  1.00  0.00     0.155 C 
HETATM    3  C4  UNL     1      62.996  11.513  24.627  1.00  0.00     0.292 C 
HETATM    4  N5  UNL     1      61.641  11.999  24.472  1.00  0.00     0.096 N 
HETATM    5  C11 UNL     1      60.974  11.789  25.747  1.00  0.00     0.292 C 
HETATM    6  C12 UNL     1      60.670  10.304  25.829  1.00  0.00     0.155 C 
ENDROOT
BRANCH   1   7
HETATM    7  C2  UNL     1      62.273   8.706  26.910  1.00  0.00     0.165 A 
HETATM    8  N3  UNL     1      62.007   8.887  28.193  1.00  0.00    -0.278 N 
HETATM    9  N2  UNL     1      62.301   7.994  29.045  1.00  0.00    -0.278 N 
ATOM     10  H3  UNL     1      61.563   9.751  28.500  1.00  0.00     0.189 HD
HETATM   11  C1  UNL     1      62.882   6.867  28.626  1.00  0.00     0.160 A 
ATOM     12  H2  UNL     1      62.095   8.134  30.033  1.00  0.00     0.189 HD
HETATM   13  S1  UNL     1      62.988   7.157  26.934  1.00  0.00    -0.016 SA
BRANCH  11  14
HETATM   14  N1  UNL     1      63.259   5.837  29.346  1.00  0.00    -0.379 N 
ATOM     15  H12 UNL     1      63.308   5.711  30.357  1.00  0.00     0.158 HD
ATOM     16  H11 UNL     1      63.588   4.929  29.018  1.00  0.00     0.158 HD
ENDBRANCH  11  14
ENDBRANCH   1   7
BRANCH   4  17
HETATM   17  C5  UNL     1      61.581  13.417  24.181  1.00  0.00     0.223 C 
HETATM   18  C6  UNL     1      62.897  14.116  24.399  1.00  0.00     0.036 C 
HETATM   19  C7  UNL     1      62.669  15.582  24.143  1.00  0.00     0.002 C 
HETATM   20  C8  UNL     1      61.203  15.921  23.943  1.00  0.00     0.000 C 
HETATM   21  C9  UNL     1      60.598  15.146  22.784  1.00  0.00     0.002 C 
HETATM   22  C10 UNL     1      61.144  13.717  22.774  1.00  0.00     0.036 C 
ENDBRANCH   4  17
TORSDOF 3
ENDMDL
MODEL 4
REMARK VINA RESULT: -7.457449371      6.495      9.045
REMARK  3 active torsions:
REMARK  status: ('A' for Active; 'I' for Inactive)
REMARK    1  A    between atoms: N1_1  and  C1_4 
REMARK    2  A    between atoms: C2_9  and  N4_10 
REMARK    3  A    between atoms: N5_13  and  C5_14 
ROOT
HETATM    1  N4  UNL     1      66.713  11.094  24.022  1.00  0.00    -0.357 N 
HETATM    2  C3  UNL     1      65.302  10.794  24.043  1.00  0.00     0.155 C 
HETATM    3  C4  UNL     1      64.986   9.423  23.461  1.00  0.00     0.292 C 
HETATM    4  N5  UNL     1      65.625   9.361  22.163  1.00  0.00     0.096 N 
HETATM    5  C11 UNL     1      67.059   9.392  22.403  1.00  0.00     0.292 C 
HETATM    6  C12 UNL     1      67.402  10.829  22.750  1.00  0.00     0.155 C 
ENDROOT
BRANCH   1   7
HETATM    7  C2  UNL     1      67.438  11.617  25.131  1.00  0.00     0.165 A 
HETATM    8  N3  UNL     1      68.748  11.534  25.288  1.00  0.00    -0.278 N 
HETATM    9  N2  UNL     1      69.309  12.033  26.310  1.00  0.00    -0.278 N 
ATOM     10  H3  UNL     1      69.313  11.064  24.580  1.00  0.00     0.189 HD
HETATM   11  C1  UNL     1      68.556  12.644  27.227  1.00  0.00     0.160 A 
ATOM     12  H2  UNL     1      70.320  11.968  26.429  1.00  0.00     0.189 HD
HETATM   13  S1  UNL     1      66.989  12.465  26.542  1.00  0.00    -0.016 SA
BRANCH  11  14
HETATM   14  N1  UNL     1      68.945  13.216  28.342  1.00  0.00    -0.379 N 
ATOM     15  H12 UNL     1      69.866  13.270  28.778  1.00  0.00     0.158 HD
ATOM     16  H11 UNL     1      68.379  13.736  29.012  1.00  0.00     0.158 HD
ENDBRANCH  11  14
ENDBRANCH   1   7
BRANCH   4  17
HETATM   17  C5  UNL     1      65.331   8.135  21.450  1.00  0.00     0.223 C 
HETATM   18  C6  UNL     1      65.185   8.340  19.965  1.00  0.00     0.036 C 
HETATM   19  C7  UNL     1      64.802   7.011  19.368  1.00  0.00     0.002 C 
HETATM   20  C8  UNL     1      64.501   5.961  20.422  1.00  0.00     0.000 C 
HETATM   21  C9  UNL     1      65.686   5.732  21.345  1.00  0.00     0.002 C 
HETATM   22  C10 UNL     1      66.369   7.066  21.652  1.00  0.00     0.036 C 
ENDBRANCH   4  17
TORSDOF 3
ENDMDL
MODEL 5
REMARK VINA RESULT: -7.447915008      6.879      7.691
REMARK  3 active torsions:
REMARK  status: ('A' for Active; 'I' for Inactive)
REMARK    1  A    between atoms: N1_1  and  C1_4 
REMARK    2  A    between atoms: C2_9  and  N4_10 
REMARK    3  A    between atoms: N5_13  and  C5_14 
ROOT
HETATM    1  N4  UNL     1      66.514   8.683  22.123  1.00  0.00    -0.357 N 
HETATM    2  C3  UNL     1      66.369   8.141  23.453  1.00  0.00     0.155 C 
HETATM    3  C4  UNL     1      66.163   9.222  24.506  1.00  0.00     0.292 C 
HETATM    4  N5  UNL     1      67.229  10.187  24.331  1.00  0.00     0.096 N 
HETATM    5  C11 UNL     1      67.011  10.818  23.038  1.00  0.00     0.292 C 
HETATM    6  C12 UNL     1      67.452   9.809  21.993  1.00  0.00     0.155 C 
ENDROOT
BRANCH   1   7
HETATM    7  C2  UNL     1      65.822   8.194  20.979  1.00  0.00     0.165 A 
HETATM    8  N3  UNL     1      66.032   8.595  19.737  1.00  0.00    -0.278 N 
HETATM    9  N2  UNL     1      65.367   8.099  18.777  1.00  0.00    -0.278 N 
ATOM     10  H3  UNL     1      66.734   9.311  19.549  1.00  0.00     0.189 HD
HETATM   11  C1  UNL     1      64.452   7.165  19.040  1.00  0.00     0.160 A 
ATOM     12  H2  UNL     1      65.530   8.411  17.820  1.00  0.00     0.189 HD
HETATM   13  S1  UNL     1      64.594   7.032  20.749  1.00  0.00    -0.016 SA
BRANCH  11  14
HETATM   14  N1  UNL     1      63.670   6.538  18.193  1.00  0.00    -0.379 N 
ATOM     15  H12 UNL     1      63.669   6.521  17.173  1.00  0.00     0.158 HD
ATOM     16  H11 UNL     1      62.883   5.924  18.400  1.00  0.00     0.158 HD
ENDBRANCH  11  14
ENDBRANCH   1   7
BRANCH   4  17
HETATM   17  C5  UNL     1      67.210  11.234  25.332  1.00  0.00     0.223 C 
HETATM   18  C6  UNL     1      68.588  11.680  25.741  1.00  0.00     0.036 C 
HETATM   19  C7  UNL     1      68.419  12.701  26.835  1.00  0.00     0.002 C 
HETATM   20  C8  UNL     1      66.981  12.818  27.309  1.00  0.00     0.000 C 
HETATM   21  C9  UNL     1      66.043  13.194  26.173  1.00  0.00     0.002 C 
HETATM   22  C10 UNL     1      66.455  12.459  24.896  1.00  0.00     0.036 C 
ENDBRANCH   4  17
TORSDOF 3
ENDMDL
