MODEL 1
REMARK VINA RESULT: -6.974540726      0.000      0.000
REMARK  3 active torsions:
REMARK  status: ('A' for Active; 'I' for Inactive)
REMARK    1  A    between atoms: C2_2  and  N1_4 
REMARK    2  A    between atoms: N1_4  and  N2_6 
REMARK    3  A    between atoms: N2_6  and  C4_8 
ROOT
HETATM    1  C4  UNL     1       4.109   9.583  -0.732  1.00  0.00     0.140 A 
HETATM    2  N3  UNL     1       4.723  10.339  -1.686  1.00  0.00    -0.336 N 
ATOM      3  H3  UNL     1       5.235  11.180  -1.419  1.00  0.00     0.168 HD
HETATM    4  C5  UNL     1       4.653   9.973  -2.976  1.00  0.00     0.182 A 
HETATM    5  N4  UNL     1       3.988   8.877  -3.346  1.00  0.00    -0.354 N 
ATOM      6  H4  UNL     1       3.953   8.629  -4.334  1.00  0.00     0.166 HD
HETATM    7  C6  UNL     1       3.369   8.100  -2.460  1.00  0.00     0.039 A 
HETATM    8  C7  UNL     1       3.434   8.468  -1.119  1.00  0.00     0.070 A 
HETATM    9  S1  UNL     1       2.584   7.395   0.017  1.00  0.00    -0.115 SA
HETATM   10  C8  UNL     1       1.053   6.862  -0.830  1.00  0.00     0.007 C 
HETATM   11  C9  UNL     1       0.633   5.482  -0.376  1.00  0.00     0.027 C 
HETATM   12  C10 UNL     1      -0.088   7.801  -0.448  1.00  0.00     0.027 C 
HETATM   13  C11 UNL     1       1.212   6.969  -2.330  1.00  0.00     0.035 C 
HETATM   14  C12 UNL     1       2.613   6.866  -2.818  1.00  0.00    -0.002 C 
HETATM   15  C13 UNL     1       3.353   5.639  -2.436  1.00  0.00     0.021 C 
HETATM   16  C14 UNL     1       2.527   6.878  -4.353  1.00  0.00     0.021 C 
ENDROOT
BRANCH   1  17
HETATM   17  N2  UNL     1       4.152   9.898   0.504  1.00  0.00    -0.284 N 
ATOM     18  H2  UNL     1       3.570   9.356   1.141  1.00  0.00     0.188 HD
BRANCH  17  19
HETATM   19  N1  UNL     1       4.919  10.908   1.057  1.00  0.00    -0.308 N 
ATOM     20  H1  UNL     1       5.926  10.908   0.895  1.00  0.00     0.186 HD
BRANCH  19  21
HETATM   21  C2  UNL     1       4.395  11.864   1.779  1.00  0.00    -0.004 C 
HETATM   22  C1  UNL     1       3.136  12.466   1.304  1.00  0.00     0.064 C 
HETATM   23  C3  UNL     1       5.088  12.268   3.006  1.00  0.00     0.064 C 
ENDBRANCH  19  21
ENDBRANCH  17  19
ENDBRANCH   1  17
TORSDOF 3
ENDMDL
MODEL 2
REMARK VINA RESULT: -6.797299273      1.094      1.271
REMARK  3 active torsions:
REMARK  status: ('A' for Active; 'I' for Inactive)
REMARK    1  A    between atoms: C2_2  and  N1_4 
REMARK    2  A    between atoms: N1_4  and  N2_6 
REMARK    3  A    between atoms: N2_6  and  C4_8 
ROOT
HETATM    1  C4  UNL     1       3.788  10.071  -0.728  1.00  0.00     0.140 A 
HETATM    2  N3  UNL     1       4.522  10.553  -1.770  1.00  0.00    -0.336 N 
ATOM      3  H3  UNL     1       4.983  11.459  -1.694  1.00  0.00     0.168 HD
HETATM    4  C5  UNL     1       4.636   9.831  -2.897  1.00  0.00     0.182 A 
HETATM    5  N4  UNL     1       4.040   8.644  -3.018  1.00  0.00    -0.354 N 
ATOM      6  H4  UNL     1       4.145   8.122  -3.888  1.00  0.00     0.166 HD
HETATM    7  C6  UNL     1       3.311   8.122  -2.034  1.00  0.00     0.039 A 
HETATM    8  C7  UNL     1       3.184   8.860  -0.860  1.00  0.00     0.070 A 
HETATM    9  S1  UNL     1       2.194   8.115   0.416  1.00  0.00    -0.115 SA
HETATM   10  C8  UNL     1       0.801   7.288  -0.434  1.00  0.00     0.007 C 
HETATM   11  C9  UNL     1       0.335   6.075   0.341  1.00  0.00     0.027 C 
HETATM   12  C10 UNL     1      -0.390   8.239  -0.492  1.00  0.00     0.027 C 
HETATM   13  C11 UNL     1       1.167   6.970  -1.866  1.00  0.00     0.035 C 
HETATM   14  C12 UNL     1       2.624   6.801  -2.115  1.00  0.00    -0.002 C 
HETATM   15  C13 UNL     1       3.315   5.773  -1.301  1.00  0.00     0.021 C 
HETATM   16  C14 UNL     1       2.753   6.371  -3.586  1.00  0.00     0.021 C 
ENDROOT
BRANCH   1  17
HETATM   17  N2  UNL     1       3.655  10.727   0.359  1.00  0.00    -0.284 N 
ATOM     18  H2  UNL     1       4.112  10.349   1.188  1.00  0.00     0.188 HD
BRANCH  17  19
HETATM   19  N1  UNL     1       2.946  11.905   0.513  1.00  0.00    -0.308 N 
ATOM     20  H1  UNL     1       3.083  12.655  -0.165  1.00  0.00     0.186 HD
BRANCH  19  21
HETATM   21  C2  UNL     1       2.105  12.089   1.498  1.00  0.00    -0.004 C 
HETATM   22  C1  UNL     1       0.683  11.788   1.246  1.00  0.00     0.064 C 
HETATM   23  C3  UNL     1       2.629  12.573   2.778  1.00  0.00     0.064 C 
ENDBRANCH  19  21
ENDBRANCH  17  19
ENDBRANCH   1  17
TORSDOF 3
ENDMDL
MODEL 3
REMARK VINA RESULT: -6.778980416      2.392      5.763
REMARK  3 active torsions:
REMARK  status: ('A' for Active; 'I' for Inactive)
REMARK    1  A    between atoms: C2_2  and  N1_4 
REMARK    2  A    between atoms: N1_4  and  N2_6 
REMARK    3  A    between atoms: N2_6  and  C4_8 
ROOT
HETATM    1  C4  UNL     1       2.305   9.512  -1.451  1.00  0.00     0.140 A 
HETATM    2  N3  UNL     1       3.659   9.485  -1.298  1.00  0.00    -0.336 N 
ATOM      3  H3  UNL     1       4.227   8.879  -1.890  1.00  0.00     0.168 HD
HETATM    4  C5  UNL     1       4.242  10.256  -0.367  1.00  0.00     0.182 A 
HETATM    5  N4  UNL     1       3.518  11.054   0.420  1.00  0.00    -0.354 N 
ATOM      6  H4  UNL     1       3.993  11.626   1.118  1.00  0.00     0.166 HD
HETATM    7  C6  UNL     1       2.193  11.124   0.317  1.00  0.00     0.039 A 
HETATM    8  C7  UNL     1       1.575  10.329  -0.645  1.00  0.00     0.070 A 
HETATM    9  S1  UNL     1      -0.197  10.460  -0.731  1.00  0.00    -0.115 SA
HETATM   10  C8  UNL     1      -0.782  10.630   0.993  1.00  0.00     0.007 C 
HETATM   11  C9  UNL     1      -2.054  11.447   1.058  1.00  0.00     0.027 C 
HETATM   12  C10 UNL     1      -1.135   9.251   1.544  1.00  0.00     0.027 C 
HETATM   13  C11 UNL     1       0.318  11.175   1.876  1.00  0.00     0.035 C 
HETATM   14  C12 UNL     1       1.335  11.997   1.168  1.00  0.00    -0.002 C 
HETATM   15  C13 UNL     1       0.826  13.168   0.414  1.00  0.00     0.021 C 
HETATM   16  C14 UNL     1       2.273  12.540   2.259  1.00  0.00     0.021 C 
ENDROOT
BRANCH   1  17
HETATM   17  N2  UNL     1       1.713   8.794  -2.323  1.00  0.00    -0.284 N 
ATOM     18  H2  UNL     1       1.182   9.282  -3.044  1.00  0.00     0.188 HD
BRANCH  17  19
HETATM   19  N1  UNL     1       1.728   7.411  -2.379  1.00  0.00    -0.308 N 
ATOM     20  H1  UNL     1       1.092   6.887  -1.777  1.00  0.00     0.186 HD
BRANCH  19  21
HETATM   21  C2  UNL     1       2.528   6.755  -3.178  1.00  0.00    -0.004 C 
HETATM   22  C1  UNL     1       3.461   5.790  -2.567  1.00  0.00     0.064 C 
HETATM   23  C3  UNL     1       2.442   7.016  -4.618  1.00  0.00     0.064 C 
ENDBRANCH  19  21
ENDBRANCH  17  19
ENDBRANCH   1  17
TORSDOF 3
ENDMDL
MODEL 4
REMARK VINA RESULT: -6.541628373      3.045      4.616
REMARK  3 active torsions:
REMARK  status: ('A' for Active; 'I' for Inactive)
REMARK    1  A    between atoms: C2_2  and  N1_4 
REMARK    2  A    between atoms: N1_4  and  N2_6 
REMARK    3  A    between atoms: N2_6  and  C4_8 
ROOT
HETATM    1  C4  UNL     1       1.217   9.470   0.068  1.00  0.00     0.140 A 
HETATM    2  N3  UNL     1       1.755   8.909  -1.051  1.00  0.00    -0.336 N 
ATOM      3  H3  UNL     1       2.697   9.165  -1.349  1.00  0.00     0.168 HD
HETATM    4  C5  UNL     1       1.044   8.017  -1.759  1.00  0.00     0.182 A 
HETATM    5  N4  UNL     1      -0.189   7.668  -1.389  1.00  0.00    -0.354 N 
ATOM      6  H4  UNL     1      -0.702   6.989  -1.950  1.00  0.00     0.166 HD
HETATM    7  C6  UNL     1      -0.767   8.183  -0.305  1.00  0.00     0.039 A 
HETATM    8  C7  UNL     1      -0.040   9.108   0.438  1.00  0.00     0.070 A 
HETATM    9  S1  UNL     1      -0.866   9.766   1.870  1.00  0.00    -0.115 SA
HETATM   10  C8  UNL     1      -2.621   9.976   1.398  1.00  0.00     0.007 C 
HETATM   11  C9  UNL     1      -3.530   9.807   2.595  1.00  0.00     0.027 C 
HETATM   12  C10 UNL     1      -2.841  11.399   0.894  1.00  0.00     0.027 C 
HETATM   13  C11 UNL     1      -2.976   9.056   0.251  1.00  0.00     0.035 C 
HETATM   14  C12 UNL     1      -2.140   7.829   0.154  1.00  0.00    -0.002 C 
HETATM   15  C13 UNL     1      -2.109   6.959   1.355  1.00  0.00     0.021 C 
HETATM   16  C14 UNL     1      -2.745   6.997  -0.988  1.00  0.00     0.021 C 
ENDROOT
BRANCH   1  17
HETATM   17  N2  UNL     1       1.860  10.322   0.767  1.00  0.00    -0.284 N 
ATOM     18  H2  UNL     1       2.150  10.032   1.701  1.00  0.00     0.188 HD
BRANCH  17  19
HETATM   19  N1  UNL     1       2.200  11.604   0.372  1.00  0.00    -0.308 N 
ATOM     20  H1  UNL     1       2.600  11.744  -0.556  1.00  0.00     0.186 HD
BRANCH  19  21
HETATM   21  C2  UNL     1       2.026  12.641   1.149  1.00  0.00    -0.004 C 
HETATM   22  C1  UNL     1       2.502  12.539   2.541  1.00  0.00     0.064 C 
HETATM   23  C3  UNL     1       1.378  13.830   0.587  1.00  0.00     0.064 C 
ENDBRANCH  19  21
ENDBRANCH  17  19
ENDBRANCH   1  17
TORSDOF 3
ENDMDL
MODEL 5
REMARK VINA RESULT: -6.326871083      2.980      4.384
REMARK  3 active torsions:
REMARK  status: ('A' for Active; 'I' for Inactive)
REMARK    1  A    between atoms: C2_2  and  N1_4 
REMARK    2  A    between atoms: N1_4  and  N2_6 
REMARK    3  A    between atoms: N2_6  and  C4_8 
ROOT
HETATM    1  C4  UNL     1       1.292  10.079   0.014  1.00  0.00     0.140 A 
HETATM    2  N3  UNL     1       1.861   9.582  -1.120  1.00  0.00    -0.336 N 
ATOM      3  H3  UNL     1       2.756   9.950  -1.446  1.00  0.00     0.168 HD
HETATM    4  C5  UNL     1       1.243   8.608  -1.807  1.00  0.00     0.182 A 
HETATM    5  N4  UNL     1       0.073   8.114  -1.400  1.00  0.00    -0.354 N 
ATOM      6  H4  UNL     1      -0.371   7.376  -1.946  1.00  0.00     0.166 HD
HETATM    7  C6  UNL     1      -0.531   8.559  -0.301  1.00  0.00     0.039 A 
HETATM    8  C7  UNL     1       0.099   9.569   0.421  1.00  0.00     0.070 A 
HETATM    9  S1  UNL     1      -0.758  10.127   1.877  1.00  0.00    -0.115 SA
HETATM   10  C8  UNL     1      -2.538  10.121   1.456  1.00  0.00     0.007 C 
HETATM   11  C9  UNL     1      -3.385   9.848   2.680  1.00  0.00     0.027 C 
HETATM   12  C10 UNL     1      -2.944  11.506   0.959  1.00  0.00     0.027 C 
HETATM   13  C11 UNL     1      -2.813   9.161   0.320  1.00  0.00     0.035 C 
HETATM   14  C12 UNL     1      -1.838   8.044   0.199  1.00  0.00    -0.002 C 
HETATM   15  C13 UNL     1      -1.667   7.188   1.398  1.00  0.00     0.021 C 
HETATM   16  C14 UNL     1      -2.370   7.140  -0.925  1.00  0.00     0.021 C 
ENDROOT
BRANCH   1  17
HETATM   17  N2  UNL     1       1.848  11.005   0.694  1.00  0.00    -0.284 N 
ATOM     18  H2  UNL     1       1.392  11.279   1.564  1.00  0.00     0.188 HD
BRANCH  17  19
HETATM   19  N1  UNL     1       3.013  11.670   0.357  1.00  0.00    -0.308 N 
ATOM     20  H1  UNL     1       2.975  12.402  -0.353  1.00  0.00     0.186 HD
BRANCH  19  21
HETATM   21  C2  UNL     1       4.162  11.391   0.917  1.00  0.00    -0.004 C 
HETATM   22  C1  UNL     1       5.023  10.397   0.249  1.00  0.00     0.064 C 
HETATM   23  C3  UNL     1       4.515  12.083   2.160  1.00  0.00     0.064 C 
ENDBRANCH  19  21
ENDBRANCH  17  19
ENDBRANCH   1  17
TORSDOF 3
ENDMDL
