MODEL 1
REMARK VINA RESULT: -6.402295886      0.000      0.000
REMARK  3 active torsions:
REMARK  status: ('A' for Active; 'I' for Inactive)
REMARK    1  A    between atoms: N1_2  and  C1_4 
REMARK    2  A    between atoms: C3_8  and  N3_9 
REMARK    3  A    between atoms: N3_9  and  N4_11 
ROOT
HETATM    1  N3  UNL     1      11.050   3.248  14.781  1.00  0.00    -0.280 N 
ATOM      2  H3  UNL     1      10.568   3.881  15.420  1.00  0.00     0.189 HD
ENDROOT
BRANCH   1   3
HETATM    3  C3  UNL     1      12.083   3.669  14.085  1.00  0.00     0.165 A 
HETATM    4  N2  UNL     1      12.121   4.683  13.226  1.00  0.00    -0.343 N 
HETATM    5  C2  UNL     1      13.239   4.957  12.625  1.00  0.00     0.134 A 
ATOM      6  H2  UNL     1      11.285   5.238  13.042  1.00  0.00     0.167 HD
HETATM    7  C1  UNL     1      14.328   4.179  12.910  1.00  0.00     0.162 A 
HETATM    8  S1  UNL     1      13.679   3.072  14.050  1.00  0.00    -0.027 SA
BRANCH   7   9
HETATM    9  N1  UNL     1      15.670   4.269  12.386  1.00  0.00    -0.107 N 
HETATM   10  O1  UNL     1      16.225   3.208  12.073  1.00  0.00    -0.531 OA
HETATM   11  O2  UNL     1      16.307   5.453  12.238  1.00  0.00    -0.531 OA
ENDBRANCH   7   9
ENDBRANCH   1   3
BRANCH   1  12
HETATM   12  N4  UNL     1      10.617   1.925  14.637  1.00  0.00    -0.307 N 
HETATM   13  C4  UNL     1       9.571   1.607  13.958  1.00  0.00     0.004 C 
HETATM   14  C5  UNL     1       9.200   0.175  13.869  1.00  0.00     0.054 C 
HETATM   15  C9  UNL     1       8.714   2.593  13.256  1.00  0.00     0.054 C 
HETATM   16  C6  UNL     1       8.826  -0.163  12.441  1.00  0.00     0.006 C 
HETATM   17  C7  UNL     1       7.760   0.728  11.890  1.00  0.00     0.001 C 
HETATM   18  C8  UNL     1       7.468   1.926  12.764  1.00  0.00     0.006 C 
ATOM     19  H4  UNL     1      11.151   1.183  15.089  1.00  0.00     0.186 HD
ENDBRANCH   1  12
TORSDOF 3
ENDMDL
MODEL 2
REMARK VINA RESULT: -6.193276689      0.986      1.418
REMARK  3 active torsions:
REMARK  status: ('A' for Active; 'I' for Inactive)
REMARK    1  A    between atoms: N1_2  and  C1_4 
REMARK    2  A    between atoms: C3_8  and  N3_9 
REMARK    3  A    between atoms: N3_9  and  N4_11 
ROOT
HETATM    1  N3  UNL     1      11.069   2.938  15.032  1.00  0.00    -0.280 N 
ATOM      2  H3  UNL     1      10.561   3.687  15.503  1.00  0.00     0.189 HD
ENDROOT
BRANCH   1   3
HETATM    3  C3  UNL     1      12.296   3.138  14.601  1.00  0.00     0.165 A 
HETATM    4  N2  UNL     1      13.431   2.850  15.230  1.00  0.00    -0.343 N 
HETATM    5  C2  UNL     1      14.559   3.119  14.646  1.00  0.00     0.134 A 
ATOM      6  H2  UNL     1      13.416   2.423  16.156  1.00  0.00     0.167 HD
HETATM    7  C1  UNL     1      14.518   3.690  13.404  1.00  0.00     0.162 A 
HETATM    8  S1  UNL     1      12.828   3.815  13.130  1.00  0.00    -0.027 SA
BRANCH   7   9
HETATM    9  N1  UNL     1      15.613   4.085  12.549  1.00  0.00    -0.107 N 
HETATM   10  O1  UNL     1      15.812   5.299  12.411  1.00  0.00    -0.531 OA
HETATM   11  O2  UNL     1      16.396   3.180  11.919  1.00  0.00    -0.531 OA
ENDBRANCH   7   9
ENDBRANCH   1   3
BRANCH   1  12
HETATM   12  N4  UNL     1      10.468   1.689  14.839  1.00  0.00    -0.307 N 
HETATM   13  C4  UNL     1       9.501   1.505  14.011  1.00  0.00     0.004 C 
HETATM   14  C5  UNL     1       8.934   0.142  13.881  1.00  0.00     0.054 C 
HETATM   15  C9  UNL     1       8.918   2.583  13.173  1.00  0.00     0.054 C 
HETATM   16  C6  UNL     1       8.733  -0.186  12.417  1.00  0.00     0.006 C 
HETATM   17  C7  UNL     1       7.909   0.833  11.698  1.00  0.00     0.001 C 
HETATM   18  C8  UNL     1       7.674   2.091  12.503  1.00  0.00     0.006 C 
ATOM     19  H4  UNL     1      10.810   0.892  15.376  1.00  0.00     0.186 HD
ENDBRANCH   1  12
TORSDOF 3
ENDMDL
MODEL 3
REMARK VINA RESULT: -6.104232303      1.460      2.340
REMARK  3 active torsions:
REMARK  status: ('A' for Active; 'I' for Inactive)
REMARK    1  A    between atoms: N1_2  and  C1_4 
REMARK    2  A    between atoms: C3_8  and  N3_9 
REMARK    3  A    between atoms: N3_9  and  N4_11 
ROOT
HETATM    1  N3  UNL     1      11.325   3.903  15.121  1.00  0.00    -0.280 N 
ATOM      2  H3  UNL     1      11.119   3.477  16.024  1.00  0.00     0.189 HD
ENDROOT
BRANCH   1   3
HETATM    3  C3  UNL     1      12.532   3.814  14.605  1.00  0.00     0.165 A 
HETATM    4  N2  UNL     1      13.550   3.083  15.049  1.00  0.00    -0.343 N 
HETATM    5  C2  UNL     1      14.677   3.118  14.406  1.00  0.00     0.134 A 
ATOM      6  H2  UNL     1      13.446   2.503  15.882  1.00  0.00     0.167 HD
HETATM    7  C1  UNL     1      14.758   3.913  13.296  1.00  0.00     0.162 A 
HETATM    8  S1  UNL     1      13.179   4.583  13.229  1.00  0.00    -0.027 SA
BRANCH   7   9
HETATM    9  N1  UNL     1      15.880   4.130  12.414  1.00  0.00    -0.107 N 
HETATM   10  O1  UNL     1      16.395   3.129  11.899  1.00  0.00    -0.531 OA
HETATM   11  O2  UNL     1      16.360   5.368  12.151  1.00  0.00    -0.531 OA
ENDBRANCH   7   9
ENDBRANCH   1   3
BRANCH   1  12
HETATM   12  N4  UNL     1      10.326   4.588  14.418  1.00  0.00    -0.307 N 
HETATM   13  C4  UNL     1       9.399   3.983  13.763  1.00  0.00     0.004 C 
HETATM   14  C5  UNL     1       8.390   4.803  13.053  1.00  0.00     0.054 C 
HETATM   15  C9  UNL     1       9.282   2.506  13.678  1.00  0.00     0.054 C 
HETATM   16  C6  UNL     1       7.010   4.228  13.296  1.00  0.00     0.006 C 
HETATM   17  C7  UNL     1       6.909   2.781  12.937  1.00  0.00     0.001 C 
HETATM   18  C8  UNL     1       8.248   2.136  12.661  1.00  0.00     0.006 C 
ATOM     19  H4  UNL     1      10.334   5.608  14.427  1.00  0.00     0.186 HD
ENDBRANCH   1  12
TORSDOF 3
ENDMDL
MODEL 4
REMARK VINA RESULT: -6.097455342      1.201      1.894
REMARK  3 active torsions:
REMARK  status: ('A' for Active; 'I' for Inactive)
REMARK    1  A    between atoms: N1_2  and  C1_4 
REMARK    2  A    between atoms: C3_8  and  N3_9 
REMARK    3  A    between atoms: N3_9  and  N4_11 
ROOT
HETATM    1  N3  UNL     1      10.756   4.563  14.743  1.00  0.00    -0.280 N 
ATOM      2  H3  UNL     1      10.731   4.577  15.763  1.00  0.00     0.189 HD
ENDROOT
BRANCH   1   3
HETATM    3  C3  UNL     1      11.906   4.510  14.107  1.00  0.00     0.165 A 
HETATM    4  N2  UNL     1      12.221   5.093  12.955  1.00  0.00    -0.343 N 
HETATM    5  C2  UNL     1      13.416   4.930  12.474  1.00  0.00     0.134 A 
ATOM      6  H2  UNL     1      11.535   5.660  12.456  1.00  0.00     0.167 HD
HETATM    7  C1  UNL     1      14.295   4.161  13.185  1.00  0.00     0.162 A 
HETATM    8  S1  UNL     1      13.343   3.700  14.537  1.00  0.00    -0.027 SA
BRANCH   7   9
HETATM    9  N1  UNL     1      15.665   3.825  12.877  1.00  0.00    -0.107 N 
HETATM   10  O1  UNL     1      16.325   3.275  13.767  1.00  0.00    -0.531 OA
HETATM   11  O2  UNL     1      16.217   4.093  11.671  1.00  0.00    -0.531 OA
ENDBRANCH   7   9
ENDBRANCH   1   3
BRANCH   1  12
HETATM   12  N4  UNL     1       9.565   4.599  14.007  1.00  0.00    -0.307 N 
HETATM   13  C4  UNL     1       8.960   3.534  13.614  1.00  0.00     0.004 C 
HETATM   14  C5  UNL     1       7.705   3.683  12.840  1.00  0.00     0.054 C 
HETATM   15  C9  UNL     1       9.446   2.160  13.893  1.00  0.00     0.054 C 
HETATM   16  C6  UNL     1       6.673   2.702  13.354  1.00  0.00     0.006 C 
HETATM   17  C7  UNL     1       7.162   1.290  13.360  1.00  0.00     0.001 C 
HETATM   18  C8  UNL     1       8.648   1.168  13.107  1.00  0.00     0.006 C 
ATOM     19  H4  UNL     1       9.162   5.506  13.772  1.00  0.00     0.186 HD
ENDBRANCH   1  12
TORSDOF 3
ENDMDL
MODEL 5
REMARK VINA RESULT: -6.082550796      2.204      2.578
REMARK  3 active torsions:
REMARK  status: ('A' for Active; 'I' for Inactive)
REMARK    1  A    between atoms: N1_2  and  C1_4 
REMARK    2  A    between atoms: C3_8  and  N3_9 
REMARK    3  A    between atoms: N3_9  and  N4_11 
ROOT
HETATM    1  N3  UNL     1       8.432   4.757  12.639  1.00  0.00    -0.280 N 
ATOM      2  H3  UNL     1       7.869   5.435  12.125  1.00  0.00     0.189 HD
ENDROOT
BRANCH   1   3
HETATM    3  C3  UNL     1       9.742   4.871  12.673  1.00  0.00     0.165 A 
HETATM    4  N2  UNL     1      10.543   5.283  11.695  1.00  0.00    -0.343 N 
HETATM    5  C2  UNL     1      11.822   5.333  11.909  1.00  0.00     0.134 A 
ATOM      6  H2  UNL     1      10.158   5.556  10.790  1.00  0.00     0.167 HD
HETATM    7  C1  UNL     1      12.282   4.956  13.141  1.00  0.00     0.162 A 
HETATM    8  S1  UNL     1      10.824   4.540  13.947  1.00  0.00    -0.027 SA
BRANCH   7   9
HETATM    9  N1  UNL     1      13.639   4.918  13.632  1.00  0.00    -0.107 N 
HETATM   10  O1  UNL     1      13.794   4.878  14.859  1.00  0.00    -0.531 OA
HETATM   11  O2  UNL     1      14.706   4.925  12.799  1.00  0.00    -0.531 OA
ENDBRANCH   7   9
ENDBRANCH   1   3
BRANCH   1  12
HETATM   12  N4  UNL     1       7.817   3.696  13.316  1.00  0.00    -0.307 N 
HETATM   13  C4  UNL     1       7.921   2.474  12.929  1.00  0.00     0.004 C 
HETATM   14  C5  UNL     1       7.230   1.425  13.717  1.00  0.00     0.054 C 
HETATM   15  C9  UNL     1       8.697   2.050  11.737  1.00  0.00     0.054 C 
HETATM   16  C6  UNL     1       8.157   0.243  13.908  1.00  0.00     0.006 C 
HETATM   17  C7  UNL     1       8.698  -0.289  12.621  1.00  0.00     0.001 C 
HETATM   18  C8  UNL     1       8.423   0.610  11.437  1.00  0.00     0.006 C 
ATOM     19  H4  UNL     1       7.265   3.901  14.148  1.00  0.00     0.186 HD
ENDBRANCH   1  12
TORSDOF 3
ENDMDL
