MODEL 1
REMARK VINA RESULT: -5.679803143      0.000      0.000
REMARK  3 active torsions:
REMARK  status: ('A' for Active; 'I' for Inactive)
REMARK    1  A    between atoms: C2_2  and  C4_5 
REMARK    2  A    between atoms: C6_9  and  N2_10 
REMARK    3  A    between atoms: C7_12  and  C8_13 
ROOT
HETATM    1  C4  UNL     1       8.895   1.883  13.738  1.00  0.00     0.095 A 
HETATM    2  C5  UNL     1       9.923   2.797  13.571  1.00  0.00     0.126 A 
HETATM    3  N1  UNL     1      10.868   2.393  14.430  1.00  0.00    -0.330 N 
ATOM      4  H1  UNL     1      11.771   2.845  14.567  1.00  0.00     0.168 HD
HETATM    5  C6  UNL     1      10.440   1.297  15.083  1.00  0.00     0.228 A 
HETATM    6  O1  UNL     1       9.248   1.021  14.639  1.00  0.00    -0.280 OA
ENDROOT
BRANCH   5   7
HETATM    7  N2  UNL     1      11.194   0.585  16.086  1.00  0.00    -0.334 N 
HETATM    8  C7  UNL     1      11.201  -0.688  16.142  1.00  0.00     0.098 C 
ATOM      9  H2  UNL     1      11.737   1.116  16.768  1.00  0.00     0.168 HD
BRANCH   8  10
HETATM   10  C8  UNL     1      11.995  -1.368  17.195  1.00  0.00     0.234 C 
HETATM   11  C9  UNL     1      12.271  -2.779  16.723  1.00  0.00     0.114 C 
HETATM   12  S1  UNL     1      10.723  -3.578  17.244  1.00  0.00    -0.140 SA
HETATM   13  C10 UNL     1      10.068  -2.189  18.257  1.00  0.00     0.306 C 
HETATM   14  N3  UNL     1      11.290  -1.439  18.443  1.00  0.00    -0.057 N 
ATOM     15  H32 UNL     1      11.868  -1.820  19.192  1.00  0.00     0.278 HD
ATOM     16  H31 UNL     1      11.122  -0.517  18.846  1.00  0.00     0.278 HD
ENDBRANCH   8  10
ENDBRANCH   5   7
BRANCH   1  17
HETATM   17  C2  UNL     1       7.621   1.957  12.961  1.00  0.00     0.080 C 
HETATM   18  C1  UNL     1       7.237   3.359  12.603  1.00  0.00     0.039 C 
HETATM   19  C3  UNL     1       6.528   1.331  13.784  1.00  0.00     0.039 C 
HETATM   20 CL1  UNL     1       7.854   1.025  11.479  1.00  0.00    -0.113 Cl
ENDBRANCH   1  17
TORSDOF 3
ENDMDL
MODEL 2
REMARK VINA RESULT: -5.641985003      0.834      1.142
REMARK  3 active torsions:
REMARK  status: ('A' for Active; 'I' for Inactive)
REMARK    1  A    between atoms: C2_2  and  C4_5 
REMARK    2  A    between atoms: C6_9  and  N2_10 
REMARK    3  A    between atoms: C7_12  and  C8_13 
ROOT
HETATM    1  C4  UNL     1       8.890   1.918  13.736  1.00  0.00     0.095 A 
HETATM    2  C5  UNL     1       9.858   2.900  13.606  1.00  0.00     0.126 A 
HETATM    3  N1  UNL     1      10.828   2.522  14.449  1.00  0.00    -0.330 N 
ATOM      4  H1  UNL     1      11.701   3.025  14.605  1.00  0.00     0.168 HD
HETATM    5  C6  UNL     1      10.471   1.377  15.058  1.00  0.00     0.228 A 
HETATM    6  O1  UNL     1       9.297   1.044  14.602  1.00  0.00    -0.280 OA
ENDROOT
BRANCH   5   7
HETATM    7  N2  UNL     1      11.269   0.674  16.032  1.00  0.00    -0.334 N 
HETATM    8  C7  UNL     1      11.086  -0.562  16.284  1.00  0.00     0.098 C 
ATOM      9  H2  UNL     1      12.000   1.180  16.532  1.00  0.00     0.168 HD
BRANCH   8  10
HETATM   10  C8  UNL     1      11.938  -1.234  17.297  1.00  0.00     0.234 C 
HETATM   11  C9  UNL     1      12.418  -2.539  16.700  1.00  0.00     0.114 C 
HETATM   12  S1  UNL     1      10.982  -3.588  17.076  1.00  0.00    -0.140 SA
HETATM   13  C10 UNL     1      10.114  -2.411  18.194  1.00  0.00     0.306 C 
HETATM   14  N3  UNL     1      11.217  -1.527  18.502  1.00  0.00    -0.057 N 
ATOM     15  H32 UNL     1      11.821  -1.903  19.233  1.00  0.00     0.278 HD
ATOM     16  H31 UNL     1      10.912  -0.683  18.987  1.00  0.00     0.278 HD
ENDBRANCH   8  10
ENDBRANCH   5   7
BRANCH   1  17
HETATM   17  C2  UNL     1       7.612   1.943  12.961  1.00  0.00     0.080 C 
HETATM   18  C1  UNL     1       6.464   1.343  13.712  1.00  0.00     0.039 C 
HETATM   19  C3  UNL     1       7.823   1.188  11.677  1.00  0.00     0.039 C 
HETATM   20 CL1  UNL     1       7.249   3.634  12.602  1.00  0.00    -0.113 Cl
ENDBRANCH   1  17
TORSDOF 3
ENDMDL
MODEL 3
REMARK VINA RESULT: -5.597772857      3.789      6.337
REMARK  3 active torsions:
REMARK  status: ('A' for Active; 'I' for Inactive)
REMARK    1  A    between atoms: C2_2  and  C4_5 
REMARK    2  A    between atoms: C6_9  and  N2_10 
REMARK    3  A    between atoms: C7_12  and  C8_13 
ROOT
HETATM    1  C4  UNL     1      10.533  -1.425  15.737  1.00  0.00     0.095 A 
HETATM    2  C5  UNL     1      10.248  -1.904  14.469  1.00  0.00     0.126 A 
HETATM    3  N1  UNL     1       9.839  -0.823  13.791  1.00  0.00    -0.330 N 
ATOM      4  H1  UNL     1       9.548  -0.816  12.814  1.00  0.00     0.168 HD
HETATM    5  C6  UNL     1       9.870   0.252  14.600  1.00  0.00     0.228 A 
HETATM    6  O1  UNL     1      10.293  -0.151  15.764  1.00  0.00    -0.280 OA
ENDROOT
BRANCH   5   7
HETATM    7  N2  UNL     1       9.496   1.589  14.213  1.00  0.00    -0.334 N 
HETATM    8  C7  UNL     1      10.312   2.565  14.297  1.00  0.00     0.098 C 
ATOM      9  H2  UNL     1       8.553   1.759  13.862  1.00  0.00     0.168 HD
BRANCH   8  10
HETATM   10  C8  UNL     1       9.873   3.921  13.884  1.00  0.00     0.234 C 
HETATM   11  C9  UNL     1      10.139   4.059  12.401  1.00  0.00     0.114 C 
HETATM   12  S1  UNL     1      11.891   4.540  12.453  1.00  0.00    -0.140 SA
HETATM   13  C10 UNL     1      12.003   4.835  14.267  1.00  0.00     0.306 C 
HETATM   14  N3  UNL     1      10.594   4.956  14.570  1.00  0.00    -0.057 N 
ATOM     15  H32 UNL     1      10.231   5.885  14.359  1.00  0.00     0.278 HD
ATOM     16  H31 UNL     1      10.412   4.954  15.574  1.00  0.00     0.278 HD
ENDBRANCH   8  10
ENDBRANCH   5   7
BRANCH   1  17
HETATM   17  C2  UNL     1      11.031  -2.307  16.836  1.00  0.00     0.080 C 
HETATM   18  C1  UNL     1      12.439  -1.999  17.237  1.00  0.00     0.039 C 
HETATM   19  C3  UNL     1      10.940  -3.735  16.372  1.00  0.00     0.039 C 
HETATM   20 CL1  UNL     1       9.967  -2.067  18.225  1.00  0.00    -0.113 Cl
ENDBRANCH   1  17
TORSDOF 3
ENDMDL
MODEL 4
REMARK VINA RESULT: -5.554036798      4.763      5.325
REMARK  3 active torsions:
REMARK  status: ('A' for Active; 'I' for Inactive)
REMARK    1  A    between atoms: C2_2  and  C4_5 
REMARK    2  A    between atoms: C6_9  and  N2_10 
REMARK    3  A    between atoms: C7_12  and  C8_13 
ROOT
HETATM    1  C4  UNL     1       8.097   2.531  13.086  1.00  0.00     0.095 A 
HETATM    2  C5  UNL     1       7.331   3.675  12.925  1.00  0.00     0.126 A 
HETATM    3  N1  UNL     1       8.209   4.680  13.046  1.00  0.00    -0.330 N 
ATOM      4  H1  UNL     1       7.981   5.672  12.979  1.00  0.00     0.168 HD
HETATM    5  C6  UNL     1       9.437   4.178  13.269  1.00  0.00     0.228 A 
HETATM    6  O1  UNL     1       9.329   2.881  13.286  1.00  0.00    -0.280 OA
ENDROOT
BRANCH   5   7
HETATM    7  N2  UNL     1      10.631   4.965  13.450  1.00  0.00    -0.334 N 
HETATM    8  C7  UNL     1      11.794   4.469  13.282  1.00  0.00     0.098 C 
ATOM      9  H2  UNL     1      10.544   5.945  13.720  1.00  0.00     0.168 HD
BRANCH   8  10
HETATM   10  C8  UNL     1      12.989   5.326  13.482  1.00  0.00     0.234 C 
HETATM   11  C9  UNL     1      14.171   4.622  12.851  1.00  0.00     0.114 C 
HETATM   12  S1  UNL     1      14.623   3.511  14.218  1.00  0.00    -0.140 SA
HETATM   13  C10 UNL     1      13.537   4.261  15.502  1.00  0.00     0.306 C 
HETATM   14  N3  UNL     1      13.278   5.536  14.872  1.00  0.00    -0.057 N 
ATOM     15  H32 UNL     1      14.040   6.200  15.013  1.00  0.00     0.278 HD
ATOM     16  H31 UNL     1      12.541   6.060  15.346  1.00  0.00     0.278 HD
ENDBRANCH   8  10
ENDBRANCH   5   7
BRANCH   1  17
HETATM   17  C2  UNL     1       7.511   1.158  13.023  1.00  0.00     0.080 C 
HETATM   18  C1  UNL     1       7.348   0.658  11.622  1.00  0.00     0.039 C 
HETATM   19  C3  UNL     1       6.171   1.184  13.707  1.00  0.00     0.039 C 
HETATM   20 CL1  UNL     1       8.603   0.081  13.899  1.00  0.00    -0.113 Cl
ENDBRANCH   1  17
TORSDOF 3
ENDMDL
MODEL 5
REMARK VINA RESULT: -5.539078790      3.581      3.948
REMARK  3 active torsions:
REMARK  status: ('A' for Active; 'I' for Inactive)
REMARK    1  A    between atoms: C2_2  and  C4_5 
REMARK    2  A    between atoms: C6_9  and  N2_10 
REMARK    3  A    between atoms: C7_12  and  C8_13 
ROOT
HETATM    1  C4  UNL     1       8.845   2.361  13.588  1.00  0.00     0.095 A 
HETATM    2  C5  UNL     1       8.563   3.625  13.095  1.00  0.00     0.126 A 
HETATM    3  N1  UNL     1       9.391   4.435  13.767  1.00  0.00    -0.330 N 
ATOM      4  H1  UNL     1       9.449   5.446  13.650  1.00  0.00     0.168 HD
HETATM    5  C6  UNL     1      10.134   3.707  14.621  1.00  0.00     0.228 A 
HETATM    6  O1  UNL     1       9.776   2.463  14.484  1.00  0.00    -0.280 OA
ENDROOT
BRANCH   5   7
HETATM    7  N2  UNL     1      11.135   4.243  15.510  1.00  0.00    -0.334 N 
HETATM    8  C7  UNL     1      11.418   3.681  16.619  1.00  0.00     0.098 C 
ATOM      9  H2  UNL     1      11.628   5.096  15.245  1.00  0.00     0.168 HD
BRANCH   8  10
HETATM   10  C8  UNL     1      12.457   4.277  17.495  1.00  0.00     0.234 C 
HETATM   11  C9  UNL     1      13.806   3.975  16.880  1.00  0.00     0.114 C 
HETATM   12  S1  UNL     1      14.072   2.303  17.545  1.00  0.00    -0.140 SA
HETATM   13  C10 UNL     1      12.676   2.301  18.746  1.00  0.00     0.306 C 
HETATM   14  N3  UNL     1      12.430   3.724  18.819  1.00  0.00    -0.057 N 
ATOM     15  H32 UNL     1      13.078   4.197  19.449  1.00  0.00     0.278 HD
ATOM     16  H31 UNL     1      11.564   3.943  19.313  1.00  0.00     0.278 HD
ENDBRANCH   8  10
ENDBRANCH   5   7
BRANCH   1  17
HETATM   17  C2  UNL     1       8.140   1.135  13.105  1.00  0.00     0.080 C 
HETATM   18  C1  UNL     1       8.144   1.010  11.613  1.00  0.00     0.039 C 
HETATM   19  C3  UNL     1       6.721   1.179  13.603  1.00  0.00     0.039 C 
HETATM   20 CL1  UNL     1       8.970  -0.258  13.805  1.00  0.00    -0.113 Cl
ENDBRANCH   1  17
TORSDOF 3
ENDMDL
