MODEL 1
REMARK VINA RESULT: -4.939099249      0.000      0.000
REMARK  3 active torsions:
REMARK  status: ('A' for Active; 'I' for Inactive)
REMARK    1  A    between atoms: C2_2  and  N1_3 
REMARK    2  A    between atoms: C4_8  and  N2_9 
REMARK       I    between atoms: N2_9  and  C5_11 
REMARK    3  A    between atoms: C5_11  and  C6_13 
ROOT
HETATM    1  N1  UNL     1      10.571   3.435  13.116  1.00  0.00    -0.312 N 
HETATM    2  C3  UNL     1      11.704   4.066  12.846  1.00  0.00     0.153 A 
HETATM    3  S1  UNL     1      11.895   5.322  11.749  1.00  0.00    -0.051 SA
HETATM    4  S2  UNL     1      13.095   3.558  13.688  1.00  0.00    -0.019 SA
HETATM    5  S3  UNL     1      12.049   2.088  14.752  1.00  0.00    -0.013 SA
HETATM    6  C4  UNL     1      10.560   2.458  14.008  1.00  0.00     0.161 A 
ENDROOT
BRANCH   6   7
HETATM    7  N2  UNL     1       9.456   1.784  14.319  1.00  0.00    -0.306 N 
HETATM    8  C5  UNL     1       9.268   0.462  13.931  1.00  0.00     0.237 C 
HETATM    9  O1  UNL     1       9.040  -0.491  14.737  1.00  0.00    -0.272 OA
ATOM     10  H2  UNL     1       8.727   2.251  14.858  1.00  0.00     0.171 HD
BRANCH   8  11
HETATM   11  C6  UNL     1       9.329   0.084  12.492  1.00  0.00     0.217 C 
HETATM   12 CL1  UNL     1       7.767   0.529  11.768  1.00  0.00    -0.121 Cl
ENDBRANCH   8  11
ENDBRANCH   6   7
BRANCH   1  13
HETATM   13  C2  UNL     1       9.333   3.864  12.408  1.00  0.00     0.128 C 
HETATM   14  C1  UNL     1       8.676   4.914  13.268  1.00  0.00     0.027 C 
ENDBRANCH   1  13
TORSDOF 3
ENDMDL
MODEL 2
REMARK VINA RESULT: -4.765895700      2.692      4.192
REMARK  3 active torsions:
REMARK  status: ('A' for Active; 'I' for Inactive)
REMARK    1  A    between atoms: C2_2  and  N1_3 
REMARK    2  A    between atoms: C4_8  and  N2_9 
REMARK       I    between atoms: N2_9  and  C5_11 
REMARK    3  A    between atoms: C5_11  and  C6_13 
ROOT
HETATM    1  N1  UNL     1       9.809   1.264  13.396  1.00  0.00    -0.312 N 
HETATM    2  C3  UNL     1      10.266   0.540  14.407  1.00  0.00     0.153 A 
HETATM    3  S1  UNL     1      10.118  -1.123  14.574  1.00  0.00    -0.051 SA
HETATM    4  S2  UNL     1      11.077   1.373  15.652  1.00  0.00    -0.019 SA
HETATM    5  S3  UNL     1      10.831   3.233  14.721  1.00  0.00    -0.013 SA
HETATM    6  C4  UNL     1       9.995   2.573  13.388  1.00  0.00     0.161 A 
ENDROOT
BRANCH   6   7
HETATM    7  N2  UNL     1       9.556   3.354  12.405  1.00  0.00    -0.306 N 
HETATM    8  C5  UNL     1       8.845   4.523  12.655  1.00  0.00     0.237 C 
HETATM    9  O1  UNL     1       9.197   5.672  12.246  1.00  0.00    -0.272 OA
ATOM     10  H2  UNL     1       9.748   3.087  11.439  1.00  0.00     0.171 HD
BRANCH   8  11
HETATM   11  C6  UNL     1       7.587   4.483  13.448  1.00  0.00     0.217 C 
HETATM   12 CL1  UNL     1       6.268   4.098  12.318  1.00  0.00    -0.121 Cl
ENDBRANCH   8  11
ENDBRANCH   6   7
BRANCH   1  13
HETATM   13  C2  UNL     1       9.107   0.566  12.283  1.00  0.00     0.128 C 
HETATM   14  C1  UNL     1       7.628   0.749  12.514  1.00  0.00     0.027 C 
ENDBRANCH   1  13
TORSDOF 3
ENDMDL
MODEL 3
REMARK VINA RESULT: -4.619232149      2.849      3.499
REMARK  3 active torsions:
REMARK  status: ('A' for Active; 'I' for Inactive)
REMARK    1  A    between atoms: C2_2  and  N1_3 
REMARK    2  A    between atoms: C4_8  and  N2_9 
REMARK       I    between atoms: N2_9  and  C5_11 
REMARK    3  A    between atoms: C5_11  and  C6_13 
ROOT
HETATM    1  N1  UNL     1       8.714   2.176  13.142  1.00  0.00    -0.312 N 
HETATM    2  C3  UNL     1       8.257   3.419  13.111  1.00  0.00     0.153 A 
HETATM    3  S1  UNL     1       6.646   3.873  12.993  1.00  0.00    -0.051 SA
HETATM    4  S2  UNL     1       9.409   4.671  13.200  1.00  0.00    -0.019 SA
HETATM    5  S3  UNL     1      11.017   3.335  13.317  1.00  0.00    -0.013 SA
HETATM    6  C4  UNL     1      10.015   1.957  13.239  1.00  0.00     0.161 A 
ENDROOT
BRANCH   6   7
HETATM    7  N2  UNL     1      10.536   0.733  13.270  1.00  0.00    -0.306 N 
HETATM    8  C5  UNL     1      10.473  -0.065  14.408  1.00  0.00     0.237 C 
HETATM    9  O1  UNL     1       9.951  -1.222  14.438  1.00  0.00    -0.272 OA
ATOM     10  H2  UNL     1      10.994   0.369  12.435  1.00  0.00     0.171 HD
BRANCH   8  11
HETATM   11  C6  UNL     1      11.035   0.419  15.698  1.00  0.00     0.217 C 
HETATM   12 CL1  UNL     1      10.535  -0.739  16.953  1.00  0.00    -0.121 Cl
ENDBRANCH   8  11
ENDBRANCH   6   7
BRANCH   1  13
HETATM   13  C2  UNL     1       7.734   1.057  13.081  1.00  0.00     0.128 C 
HETATM   14  C1  UNL     1       7.747   0.538  11.665  1.00  0.00     0.027 C 
ENDBRANCH   1  13
TORSDOF 3
ENDMDL
MODEL 4
REMARK VINA RESULT: -4.604282685      2.604      4.193
REMARK  3 active torsions:
REMARK  status: ('A' for Active; 'I' for Inactive)
REMARK    1  A    between atoms: C2_2  and  N1_3 
REMARK    2  A    between atoms: C4_8  and  N2_9 
REMARK       I    between atoms: N2_9  and  C5_11 
REMARK    3  A    between atoms: C5_11  and  C6_13 
ROOT
HETATM    1  N1  UNL     1      10.472   1.527  14.234  1.00  0.00    -0.312 N 
HETATM    2  C3  UNL     1      10.819   1.118  15.445  1.00  0.00     0.153 A 
HETATM    3  S1  UNL     1      10.702  -0.453  16.025  1.00  0.00    -0.051 SA
HETATM    4  S2  UNL     1      11.440   2.291  16.512  1.00  0.00    -0.019 SA
HETATM    5  S3  UNL     1      11.257   3.830  15.104  1.00  0.00    -0.013 SA
HETATM    6  C4  UNL     1      10.618   2.800  13.905  1.00  0.00     0.161 A 
ENDROOT
BRANCH   6   7
HETATM    7  N2  UNL     1      10.283   3.273  12.707  1.00  0.00    -0.306 N 
HETATM    8  C5  UNL     1       9.745   4.545  12.542  1.00  0.00     0.237 C 
HETATM    9  O1  UNL     1      10.251   5.441  11.798  1.00  0.00    -0.272 OA
ATOM     10  H2  UNL     1      10.426   2.685  11.886  1.00  0.00     0.171 HD
BRANCH   8  11
HETATM   11  C6  UNL     1       8.502   4.935  13.260  1.00  0.00     0.217 C 
HETATM   12 CL1  UNL     1       7.238   3.776  12.785  1.00  0.00    -0.121 Cl
ENDBRANCH   8  11
ENDBRANCH   6   7
BRANCH   1  13
HETATM   13  C2  UNL     1       9.938   0.524  13.271  1.00  0.00     0.128 C 
HETATM   14  C1  UNL     1       8.440   0.506  13.442  1.00  0.00     0.027 C 
ENDBRANCH   1  13
TORSDOF 3
ENDMDL
MODEL 5
REMARK VINA RESULT: -4.582334481      1.534      2.653
REMARK  3 active torsions:
REMARK  status: ('A' for Active; 'I' for Inactive)
REMARK    1  A    between atoms: C2_2  and  N1_3 
REMARK    2  A    between atoms: C4_8  and  N2_9 
REMARK       I    between atoms: N2_9  and  C5_11 
REMARK    3  A    between atoms: C5_11  and  C6_13 
ROOT
HETATM    1  N1  UNL     1      11.670   3.012  13.824  1.00  0.00    -0.312 N 
HETATM    2  C3  UNL     1      12.600   3.707  13.187  1.00  0.00     0.153 A 
HETATM    3  S1  UNL     1      14.259   3.495  13.328  1.00  0.00    -0.051 SA
HETATM    4  S2  UNL     1      12.064   4.930  12.129  1.00  0.00    -0.019 SA
HETATM    5  S3  UNL     1      10.044   4.542  12.524  1.00  0.00    -0.013 SA
HETATM    6  C4  UNL     1      10.391   3.283  13.620  1.00  0.00     0.161 A 
ENDROOT
BRANCH   6   7
HETATM    7  N2  UNL     1       9.412   2.624  14.233  1.00  0.00    -0.306 N 
HETATM    8  C5  UNL     1       8.789   1.524  13.652  1.00  0.00     0.237 C 
HETATM    9  O1  UNL     1       8.728   0.375  14.187  1.00  0.00    -0.272 OA
ATOM     10  H2  UNL     1       9.110   2.934  15.157  1.00  0.00     0.171 HD
BRANCH   8  11
HETATM   11  C6  UNL     1       8.138   1.646  12.319  1.00  0.00     0.217 C 
HETATM   12 CL1  UNL     1       8.125   0.022  11.593  1.00  0.00    -0.121 Cl
ENDBRANCH   8  11
ENDBRANCH   6   7
BRANCH   1  13
HETATM   13  C2  UNL     1      12.103   1.926  14.747  1.00  0.00     0.128 C 
HETATM   14  C1  UNL     1      12.294   0.687  13.908  1.00  0.00     0.027 C 
ENDBRANCH   1  13
TORSDOF 3
ENDMDL
