MODEL 1
REMARK VINA RESULT: -7.032436454      0.000      0.000
REMARK  3 active torsions:
REMARK  status: ('A' for Active; 'I' for Inactive)
REMARK    1  A    between atoms: C5_6  and  N1_7 
REMARK    2  A    between atoms: N2_9  and  C6_11 
REMARK    3  A    between atoms: C11_17  and  O2_18 
ROOT
HETATM    1  C1  UNL     1      14.818   3.805  13.283  1.00  0.00     0.068 C 
HETATM    2  C2  UNL     1      13.368   4.114  13.345  1.00  0.00     0.013 A 
HETATM    3  C3  UNL     1      12.689   4.678  12.278  1.00  0.00     0.082 A 
HETATM    4  C4  UNL     1      11.340   4.949  12.357  1.00  0.00     0.206 A 
HETATM    5  O1  UNL     1      10.698   5.455  11.420  1.00  0.00    -0.286 OA
HETATM    6  C5  UNL     1      10.602   4.663  13.525  1.00  0.00     0.149 A 
HETATM    7  C11 UNL     1      11.341   4.100  14.555  1.00  0.00     0.175 A 
HETATM    8  N3  UNL     1      12.667   3.846  14.444  1.00  0.00    -0.334 N 
HETATM    9  C12 UNL     1      13.347   3.255  15.577  1.00  0.00     0.158 C 
ENDROOT
BRANCH   6  10
HETATM   10  N1  UNL     1       9.262   4.932  13.598  1.00  0.00    -0.297 N 
HETATM   11  N2  UNL     1       8.157   4.676  13.479  1.00  0.00    -0.328 N 
ATOM     12  H2  UNL     1       7.533   5.438  13.746  1.00  0.00     0.180 HD
ATOM     13  H1  UNL     1       9.239   5.888  13.955  1.00  0.00     0.187 HD
BRANCH  11  14
HETATM   14  C6  UNL     1       7.473   3.517  13.037  1.00  0.00     0.133 C 
HETATM   15  C7  UNL     1       8.350   2.272  13.114  1.00  0.00     0.029 C 
HETATM   16  C8  UNL     1       7.344   1.162  13.000  1.00  0.00     0.005 C 
HETATM   17  C9  UNL     1       6.113   1.676  13.663  1.00  0.00     0.039 C 
HETATM   18  C10 UNL     1       6.304   3.136  13.923  1.00  0.00     0.194 C 
HETATM   19  F1  UNL     1       5.165   3.837  13.496  1.00  0.00    -0.247 F 
ENDBRANCH  11  14
ENDBRANCH   6  10
BRANCH   7  20
HETATM   20  O2  UNL     1      10.663   3.792  15.746  1.00  0.00    -0.344 OA
ATOM     21  H2  UNL     1      10.969   4.208  16.544  1.00  0.00     0.219 HD
ENDBRANCH   7  20
TORSDOF 3
ENDMDL
MODEL 2
REMARK VINA RESULT: -6.828966033      2.808      5.909
REMARK  3 active torsions:
REMARK  status: ('A' for Active; 'I' for Inactive)
REMARK    1  A    between atoms: C5_6  and  N1_7 
REMARK    2  A    between atoms: N2_9  and  C6_11 
REMARK    3  A    between atoms: C11_17  and  O2_18 
ROOT
HETATM    1  C1  UNL     1       6.360   1.397  13.735  1.00  0.00     0.068 C 
HETATM    2  C2  UNL     1       7.596   2.165  13.446  1.00  0.00     0.013 A 
HETATM    3  C3  UNL     1       8.848   1.573  13.445  1.00  0.00     0.082 A 
HETATM    4  C4  UNL     1       9.981   2.307  13.166  1.00  0.00     0.206 A 
HETATM    5  O1  UNL     1      11.121   1.809  13.156  1.00  0.00    -0.286 OA
HETATM    6  C5  UNL     1       9.909   3.685  12.875  1.00  0.00     0.149 A 
HETATM    7  C11 UNL     1       8.628   4.215  12.894  1.00  0.00     0.175 A 
HETATM    8  N3  UNL     1       7.534   3.466  13.171  1.00  0.00    -0.334 N 
HETATM    9  C12 UNL     1       6.240   4.115  13.165  1.00  0.00     0.158 C 
ENDROOT
BRANCH   6  10
HETATM   10  N1  UNL     1      11.037   4.408  12.598  1.00  0.00    -0.297 N 
HETATM   11  N2  UNL     1      12.032   4.899  12.865  1.00  0.00    -0.328 N 
ATOM     12  H2  UNL     1      12.470   5.382  12.080  1.00  0.00     0.180 HD
ATOM     13  H1  UNL     1      10.929   4.632  11.608  1.00  0.00     0.187 HD
BRANCH  11  14
HETATM   14  C6  UNL     1      12.783   4.977  14.063  1.00  0.00     0.133 C 
HETATM   15  C7  UNL     1      11.888   5.020  15.297  1.00  0.00     0.029 C 
HETATM   16  C8  UNL     1      12.850   4.696  16.405  1.00  0.00     0.005 C 
HETATM   17  C9  UNL     1      13.841   3.760  15.804  1.00  0.00     0.039 C 
HETATM   18  C10 UNL     1      13.622   3.742  14.326  1.00  0.00     0.194 C 
HETATM   19  F1  UNL     1      14.856   3.887  13.673  1.00  0.00    -0.247 F 
ENDBRANCH  11  14
ENDBRANCH   6  10
BRANCH   7  20
HETATM   20  O2  UNL     1       8.489   5.584  12.612  1.00  0.00    -0.344 OA
ATOM     21  H2  UNL     1       7.781   5.843  12.034  1.00  0.00     0.219 HD
ENDBRANCH   7  20
TORSDOF 3
ENDMDL
MODEL 3
REMARK VINA RESULT: -6.735584705      1.177      1.507
REMARK  3 active torsions:
REMARK  status: ('A' for Active; 'I' for Inactive)
REMARK    1  A    between atoms: C5_6  and  N1_7 
REMARK    2  A    between atoms: N2_9  and  C6_11 
REMARK    3  A    between atoms: C11_17  and  O2_18 
ROOT
HETATM    1  C1  UNL     1      14.881   3.455  14.035  1.00  0.00     0.068 C 
HETATM    2  C2  UNL     1      13.486   3.848  13.717  1.00  0.00     0.013 A 
HETATM    3  C3  UNL     1      13.107   4.260  12.451  1.00  0.00     0.082 A 
HETATM    4  C4  UNL     1      11.802   4.613  12.179  1.00  0.00     0.206 A 
HETATM    5  O1  UNL     1      11.426   4.988  11.055  1.00  0.00    -0.286 OA
HETATM    6  C5  UNL     1      10.807   4.569  13.178  1.00  0.00     0.149 A 
HETATM    7  C11 UNL     1      11.253   4.148  14.422  1.00  0.00     0.175 A 
HETATM    8  N3  UNL     1      12.543   3.808  14.656  1.00  0.00    -0.334 N 
HETATM    9  C12 UNL     1      12.907   3.380  15.990  1.00  0.00     0.158 C 
ENDROOT
BRANCH   6  10
HETATM   10  N1  UNL     1       9.513   4.919  12.902  1.00  0.00    -0.297 N 
HETATM   11  N2  UNL     1       8.381   4.799  12.976  1.00  0.00    -0.328 N 
ATOM     12  H2  UNL     1       7.864   5.500  12.445  1.00  0.00     0.180 HD
ATOM     13  H1  UNL     1       9.619   5.735  12.300  1.00  0.00     0.187 HD
BRANCH  11  14
HETATM   14  C6  UNL     1       7.545   3.878  13.654  1.00  0.00     0.133 C 
HETATM   15  C7  UNL     1       6.072   4.094  13.324  1.00  0.00     0.029 C 
HETATM   16  C8  UNL     1       5.445   2.814  13.798  1.00  0.00     0.005 C 
HETATM   17  C9  UNL     1       6.475   1.762  13.568  1.00  0.00     0.039 C 
HETATM   18  C10 UNL     1       7.759   2.442  13.217  1.00  0.00     0.194 C 
HETATM   19  F1  UNL     1       8.800   1.889  13.979  1.00  0.00    -0.247 F 
ENDBRANCH  11  14
ENDBRANCH   6  10
BRANCH   7  20
HETATM   20  O2  UNL     1      10.309   4.083  15.460  1.00  0.00    -0.344 OA
ATOM     21  H2  UNL     1       9.516   4.598  15.364  1.00  0.00     0.219 HD
ENDBRANCH   7  20
TORSDOF 3
ENDMDL
MODEL 4
REMARK VINA RESULT: -6.669505931      1.851      2.137
REMARK  3 active torsions:
REMARK  status: ('A' for Active; 'I' for Inactive)
REMARK    1  A    between atoms: C5_6  and  N1_7 
REMARK    2  A    between atoms: N2_9  and  C6_11 
REMARK    3  A    between atoms: C11_17  and  O2_18 
ROOT
HETATM    1  C1  UNL     1      15.026   4.580  12.556  1.00  0.00     0.068 C 
HETATM    2  C2  UNL     1      13.592   4.381  12.887  1.00  0.00     0.013 A 
HETATM    3  C3  UNL     1      12.576   4.904  12.105  1.00  0.00     0.082 A 
HETATM    4  C4  UNL     1      11.253   4.700  12.429  1.00  0.00     0.206 A 
HETATM    5  O1  UNL     1      10.314   5.154  11.750  1.00  0.00    -0.286 OA
HETATM    6  C5  UNL     1      10.884   3.953  13.567  1.00  0.00     0.149 A 
HETATM    7  C11 UNL     1      11.948   3.459  14.307  1.00  0.00     0.175 A 
HETATM    8  N3  UNL     1      13.239   3.678  13.960  1.00  0.00    -0.334 N 
HETATM    9  C12 UNL     1      14.277   3.118  14.799  1.00  0.00     0.158 C 
ENDROOT
BRANCH   6  10
HETATM   10  N1  UNL     1       9.567   3.751  13.884  1.00  0.00    -0.297 N 
HETATM   11  N2  UNL     1       8.606   3.139  13.928  1.00  0.00    -0.328 N 
ATOM     12  H2  UNL     1       7.827   3.638  14.359  1.00  0.00     0.180 HD
ATOM     13  H1  UNL     1       9.299   4.633  14.322  1.00  0.00     0.187 HD
BRANCH  11  14
HETATM   14  C6  UNL     1       8.270   1.830  13.506  1.00  0.00     0.133 C 
HETATM   15  C7  UNL     1       7.839   1.794  12.043  1.00  0.00     0.029 C 
HETATM   16  C8  UNL     1       7.929   0.330  11.716  1.00  0.00     0.005 C 
HETATM   17  C9  UNL     1       9.059  -0.188  12.538  1.00  0.00     0.039 C 
HETATM   18  C10 UNL     1       9.449   0.878  13.511  1.00  0.00     0.194 C 
HETATM   19  F1  UNL     1       9.570   0.315  14.791  1.00  0.00    -0.247 F 
ENDBRANCH  11  14
ENDBRANCH   6  10
BRANCH   7  20
HETATM   20  O2  UNL     1      11.646   2.707  15.454  1.00  0.00    -0.344 OA
ATOM     21  H2  UNL     1      12.256   2.022  15.702  1.00  0.00     0.219 HD
ENDBRANCH   7  20
TORSDOF 3
ENDMDL
MODEL 5
REMARK VINA RESULT: -6.654370610      3.109      5.127
REMARK  3 active torsions:
REMARK  status: ('A' for Active; 'I' for Inactive)
REMARK    1  A    between atoms: C5_6  and  N1_7 
REMARK    2  A    between atoms: N2_9  and  C6_11 
REMARK    3  A    between atoms: C11_17  and  O2_18 
ROOT
HETATM    1  C1  UNL     1      10.321  -2.336  14.432  1.00  0.00     0.068 C 
HETATM    2  C2  UNL     1      10.102  -0.872  14.325  1.00  0.00     0.013 A 
HETATM    3  C3  UNL     1       9.359  -0.312  13.300  1.00  0.00     0.082 A 
HETATM    4  C4  UNL     1       9.164   1.051  13.227  1.00  0.00     0.206 A 
HETATM    5  O1  UNL     1       8.502   1.589  12.322  1.00  0.00    -0.286 OA
HETATM    6  C5  UNL     1       9.713   1.923  14.190  1.00  0.00     0.149 A 
HETATM    7  C11 UNL     1      10.446   1.298  15.188  1.00  0.00     0.175 A 
HETATM    8  N3  UNL     1      10.619  -0.044  15.231  1.00  0.00    -0.334 N 
HETATM    9  C12 UNL     1      11.400  -0.599  16.316  1.00  0.00     0.158 C 
ENDROOT
BRANCH   6  10
HETATM   10  N1  UNL     1       9.514   3.276  14.113  1.00  0.00    -0.297 N 
HETATM   11  N2  UNL     1       9.850   4.353  13.946  1.00  0.00    -0.328 N 
ATOM     12  H2  UNL     1       9.097   5.033  14.054  1.00  0.00     0.180 HD
ATOM     13  H1  UNL     1       8.520   3.374  14.320  1.00  0.00     0.187 HD
BRANCH  11  14
HETATM   14  C6  UNL     1      11.097   4.940  13.619  1.00  0.00     0.133 C 
HETATM   15  C7  UNL     1      12.060   4.930  14.801  1.00  0.00     0.029 C 
HETATM   16  C8  UNL     1      13.382   5.205  14.141  1.00  0.00     0.005 C 
HETATM   17  C9  UNL     1      13.292   4.568  12.797  1.00  0.00     0.039 C 
HETATM   18  C10 UNL     1      11.870   4.161  12.574  1.00  0.00     0.194 C 
HETATM   19  F1  UNL     1      11.462   4.585  11.300  1.00  0.00    -0.247 F 
ENDBRANCH  11  14
ENDBRANCH   6  10
BRANCH   7  20
HETATM   20  O2  UNL     1      11.020   2.114  16.177  1.00  0.00    -0.344 OA
ATOM     21  H2  UNL     1      10.470   2.787  16.562  1.00  0.00     0.219 HD
ENDBRANCH   7  20
TORSDOF 3
ENDMDL
