MODEL 1
REMARK VINA RESULT: -6.716989557      0.000      0.000
REMARK  5 active torsions:
REMARK  status: ('A' for Active; 'I' for Inactive)
REMARK    1  A    between atoms: N2_5  and  C4_6 
REMARK    2  A    between atoms: C4_6  and  N3_7 
REMARK    3  A    between atoms: N3_7  and  C5_10 
REMARK    4  A    between atoms: C5_10  and  C6_11 
REMARK    5  A    between atoms: C6_11  and  N4_12 
ROOT
HETATM    1  N3  UNL     1      48.692  47.087 -19.505  1.00  0.00    -0.056 N 
ATOM      2  H31 UNL     1      47.754  47.332 -19.188  1.00  0.00     0.279 HD
ATOM      3  H32 UNL     1      48.559  46.078 -19.578  1.00  0.00     0.279 HD
ENDROOT
BRANCH   1   4
HETATM    4  C4  UNL     1      49.709  47.439 -18.542  1.00  0.00     0.379 C 
BRANCH   4   5
HETATM    5  N2  UNL     1      49.913  46.405 -17.557  1.00  0.00    -0.276 N 
HETATM    6  C3  UNL     1      49.514  45.128 -17.692  1.00  0.00     0.115 A 
HETATM    7  C2  UNL     1      49.859  44.392 -16.576  1.00  0.00     0.065 A 
HETATM    8  C1  UNL     1      50.499  45.306 -15.743  1.00  0.00     0.132 A 
HETATM    9  N1  UNL     1      51.035  44.990 -14.459  1.00  0.00    -0.081 NA
HETATM   10  N8  UNL     1      50.501  46.487 -16.381  1.00  0.00    -0.284 N 
ATOM     11  H8  UNL     1      50.907  47.342 -16.002  1.00  0.00     0.188 HD
ENDBRANCH   4   5
ENDBRANCH   1   4
BRANCH   1  12
HETATM   12  C5  UNL     1      49.017  47.690 -20.774  1.00  0.00     0.257 C 
BRANCH  12  13
HETATM   13  C6  UNL     1      49.918  48.883 -20.639  1.00  0.00     0.200 C 
BRANCH  13  14
HETATM   14  N4  UNL     1      49.184  50.074 -20.240  1.00  0.00    -0.201 N 
HETATM   15  N5  UNL     1      47.989  50.528 -20.527  1.00  0.00    -0.209 N 
HETATM   16  N6  UNL     1      48.187  51.577 -19.771  1.00  0.00    -0.211 N 
ATOM     17  H5  UNL     1      47.217  50.198 -21.105  1.00  0.00     0.211 HD
HETATM   18  N7  UNL     1      49.388  51.125 -19.481  1.00  0.00    -0.209 N 
ATOM     19  H6  UNL     1      47.639  52.399 -19.514  1.00  0.00     0.211 HD
ATOM     20  H7  UNL     1      50.161  51.456 -18.903  1.00  0.00     0.211 HD
ENDBRANCH  13  14
ENDBRANCH  12  13
ENDBRANCH   1  12
TORSDOF 5
ENDMDL
MODEL 2
REMARK VINA RESULT: -6.639897419      1.014      1.355
REMARK  5 active torsions:
REMARK  status: ('A' for Active; 'I' for Inactive)
REMARK    1  A    between atoms: N2_5  and  C4_6 
REMARK    2  A    between atoms: C4_6  and  N3_7 
REMARK    3  A    between atoms: N3_7  and  C5_10 
REMARK    4  A    between atoms: C5_10  and  C6_11 
REMARK    5  A    between atoms: C6_11  and  N4_12 
ROOT
HETATM    1  N3  UNL     1      49.917  46.536 -20.433  1.00  0.00    -0.056 N 
ATOM      2  H31 UNL     1      49.695  45.695 -20.966  1.00  0.00     0.279 HD
ATOM      3  H32 UNL     1      50.914  46.366 -20.305  1.00  0.00     0.279 HD
ENDROOT
BRANCH   1   4
HETATM    4  C4  UNL     1      49.203  46.597 -19.179  1.00  0.00     0.379 C 
BRANCH   4   5
HETATM    5  N2  UNL     1      50.048  46.283 -18.052  1.00  0.00    -0.276 N 
HETATM    6  C3  UNL     1      51.390  46.361 -18.055  1.00  0.00     0.115 A 
HETATM    7  C2  UNL     1      51.899  45.995 -16.825  1.00  0.00     0.065 A 
HETATM    8  C1  UNL     1      50.775  45.686 -16.063  1.00  0.00     0.132 A 
HETATM    9  N1  UNL     1      50.815  45.251 -14.705  1.00  0.00    -0.081 NA
HETATM   10  N8  UNL     1      49.703  45.876 -16.847  1.00  0.00    -0.284 N 
ATOM     11  H8  UNL     1      48.739  45.725 -16.548  1.00  0.00     0.188 HD
ENDBRANCH   4   5
ENDBRANCH   1   4
BRANCH   1  12
HETATM   12  C5  UNL     1      49.658  47.742 -21.181  1.00  0.00     0.257 C 
BRANCH  12  13
HETATM   13  C6  UNL     1      50.327  48.949 -20.589  1.00  0.00     0.200 C 
BRANCH  13  14
HETATM   14  N4  UNL     1      49.371  50.003 -20.286  1.00  0.00    -0.201 N 
HETATM   15  N5  UNL     1      49.415  51.056 -19.507  1.00  0.00    -0.209 N 
HETATM   16  N6  UNL     1      48.196  51.383 -19.851  1.00  0.00    -0.211 N 
ATOM     17  H5  UNL     1      50.115  51.457 -18.884  1.00  0.00     0.211 HD
HETATM   18  N7  UNL     1      48.148  50.327 -20.634  1.00  0.00    -0.209 N 
ATOM     19  H6  UNL     1      47.555  52.140 -19.613  1.00  0.00     0.211 HD
ATOM     20  H7  UNL     1      47.447  49.924 -21.257  1.00  0.00     0.211 HD
ENDBRANCH  13  14
ENDBRANCH  12  13
ENDBRANCH   1  12
TORSDOF 5
ENDMDL
MODEL 3
REMARK VINA RESULT: -6.610158008      1.249      1.551
REMARK  5 active torsions:
REMARK  status: ('A' for Active; 'I' for Inactive)
REMARK    1  A    between atoms: N2_5  and  C4_6 
REMARK    2  A    between atoms: C4_6  and  N3_7 
REMARK    3  A    between atoms: N3_7  and  C5_10 
REMARK    4  A    between atoms: C5_10  and  C6_11 
REMARK    5  A    between atoms: C6_11  and  N4_12 
ROOT
HETATM    1  N3  UNL     1      49.129  47.910 -18.205  1.00  0.00    -0.056 N 
ATOM      2  H31 UNL     1      48.520  48.730 -18.209  1.00  0.00     0.279 HD
ATOM      3  H32 UNL     1      48.442  47.223 -17.897  1.00  0.00     0.279 HD
ENDROOT
BRANCH   1   4
HETATM    4  C4  UNL     1      50.227  48.045 -17.277  1.00  0.00     0.379 C 
BRANCH   4   5
HETATM    5  N2  UNL     1      50.732  46.767 -16.836  1.00  0.00    -0.276 N 
HETATM    6  C3  UNL     1      50.000  45.826 -16.214  1.00  0.00     0.115 A 
HETATM    7  C2  UNL     1      50.776  44.722 -15.926  1.00  0.00     0.065 A 
HETATM    8  C1  UNL     1      52.038  45.048 -16.414  1.00  0.00     0.132 A 
HETATM    9  N1  UNL     1      53.179  44.193 -16.337  1.00  0.00    -0.081 NA
HETATM   10  N8  UNL     1      51.950  46.277 -16.945  1.00  0.00    -0.284 N 
ATOM     11  H8  UNL     1      52.730  46.771 -17.379  1.00  0.00     0.188 HD
ENDBRANCH   4   5
ENDBRANCH   1   4
BRANCH   1  12
HETATM   12  C5  UNL     1      49.654  47.612 -19.515  1.00  0.00     0.257 C 
BRANCH  12  13
HETATM   13  C6  UNL     1      50.200  48.823 -20.214  1.00  0.00     0.200 C 
BRANCH  13  14
HETATM   14  N4  UNL     1      49.306  49.965 -20.097  1.00  0.00    -0.201 N 
HETATM   15  N5  UNL     1      49.376  51.093 -19.436  1.00  0.00    -0.209 N 
HETATM   16  N6  UNL     1      48.210  51.459 -19.901  1.00  0.00    -0.211 N 
ATOM     17  H5  UNL     1      50.063  51.516 -18.812  1.00  0.00     0.211 HD
HETATM   18  N7  UNL     1      48.135  50.326 -20.566  1.00  0.00    -0.209 N 
ATOM     19  H6  UNL     1      47.611  52.278 -19.793  1.00  0.00     0.211 HD
ATOM     20  H7  UNL     1      47.448  49.902 -21.190  1.00  0.00     0.211 HD
ENDBRANCH  13  14
ENDBRANCH  12  13
ENDBRANCH   1  12
TORSDOF 5
ENDMDL
MODEL 4
REMARK VINA RESULT: -6.524963752      0.939      1.001
REMARK  5 active torsions:
REMARK  status: ('A' for Active; 'I' for Inactive)
REMARK    1  A    between atoms: N2_5  and  C4_6 
REMARK    2  A    between atoms: C4_6  and  N3_7 
REMARK    3  A    between atoms: N3_7  and  C5_10 
REMARK    4  A    between atoms: C5_10  and  C6_11 
REMARK    5  A    between atoms: C6_11  and  N4_12 
ROOT
HETATM    1  N3  UNL     1      49.207  47.684 -18.795  1.00  0.00    -0.056 N 
ATOM      2  H31 UNL     1      49.078  48.031 -17.844  1.00  0.00     0.279 HD
ATOM      3  H32 UNL     1      48.364  48.081 -19.208  1.00  0.00     0.279 HD
ENDROOT
BRANCH   1   4
HETATM    4  C4  UNL     1      49.223  46.241 -18.856  1.00  0.00     0.379 C 
BRANCH   4   5
HETATM    5  N2  UNL     1      49.998  45.656 -17.789  1.00  0.00    -0.276 N 
HETATM    6  C3  UNL     1      51.012  44.790 -17.963  1.00  0.00     0.115 A 
HETATM    7  C2  UNL     1      51.546  44.418 -16.746  1.00  0.00     0.065 A 
HETATM    8  C1  UNL     1      50.790  45.117 -15.808  1.00  0.00     0.132 A 
HETATM    9  N1  UNL     1      50.986  45.042 -14.396  1.00  0.00    -0.081 NA
HETATM   10  N8  UNL     1      49.885  45.836 -16.489  1.00  0.00    -0.284 N 
ATOM     11  H8  UNL     1      49.194  46.448 -16.053  1.00  0.00     0.188 HD
ENDBRANCH   4   5
ENDBRANCH   1   4
BRANCH   1  12
HETATM   12  C5  UNL     1      50.410  48.194 -19.406  1.00  0.00     0.257 C 
BRANCH  12  13
HETATM   13  C6  UNL     1      50.133  49.108 -20.565  1.00  0.00     0.200 C 
BRANCH  13  14
HETATM   14  N4  UNL     1      49.261  50.210 -20.189  1.00  0.00    -0.201 N 
HETATM   15  N5  UNL     1      48.053  50.562 -20.552  1.00  0.00    -0.209 N 
HETATM   16  N6  UNL     1      48.095  51.597 -19.754  1.00  0.00    -0.211 N 
ATOM     17  H5  UNL     1      47.360  50.181 -21.196  1.00  0.00     0.211 HD
HETATM   18  N7  UNL     1      49.309  51.248 -19.387  1.00  0.00    -0.209 N 
ATOM     19  H6  UNL     1      47.455  52.355 -19.516  1.00  0.00     0.211 HD
ATOM     20  H7  UNL     1      50.004  51.629 -18.743  1.00  0.00     0.211 HD
ENDBRANCH  13  14
ENDBRANCH  12  13
ENDBRANCH   1  12
TORSDOF 5
ENDMDL
MODEL 5
REMARK VINA RESULT: -6.518474562      1.468      2.034
REMARK  5 active torsions:
REMARK  status: ('A' for Active; 'I' for Inactive)
REMARK    1  A    between atoms: N2_5  and  C4_6 
REMARK    2  A    between atoms: C4_6  and  N3_7 
REMARK    3  A    between atoms: N3_7  and  C5_10 
REMARK    4  A    between atoms: C5_10  and  C6_11 
REMARK    5  A    between atoms: C6_11  and  N4_12 
ROOT
HETATM    1  N3  UNL     1      51.919  48.762 -19.852  1.00  0.00    -0.056 N 
ATOM      2  H31 UNL     1      52.917  48.970 -19.813  1.00  0.00     0.279 HD
ATOM      3  H32 UNL     1      51.615  49.372 -19.095  1.00  0.00     0.279 HD
ENDROOT
BRANCH   1   4
HETATM    4  C4  UNL     1      51.637  47.370 -19.585  1.00  0.00     0.379 C 
BRANCH   4   5
HETATM    5  N2  UNL     1      51.161  47.157 -18.240  1.00  0.00    -0.276 N 
HETATM    6  C3  UNL     1      50.303  47.965 -17.593  1.00  0.00     0.115 A 
HETATM    7  C2  UNL     1      50.047  47.483 -16.325  1.00  0.00     0.065 A 
HETATM    8  C1  UNL     1      50.808  46.320 -16.235  1.00  0.00     0.132 A 
HETATM    9  N1  UNL     1      50.858  45.476 -15.086  1.00  0.00    -0.081 NA
HETATM   10  N8  UNL     1      51.448  46.178 -17.406  1.00  0.00    -0.284 N 
ATOM     11  H8  UNL     1      52.081  45.407 -17.623  1.00  0.00     0.188 HD
ENDBRANCH   4   5
ENDBRANCH   1   4
BRANCH   1  12
HETATM   12  C5  UNL     1      51.332  49.125 -21.119  1.00  0.00     0.257 C 
BRANCH  12  13
HETATM   13  C6  UNL     1      49.846  48.912 -21.155  1.00  0.00     0.200 C 
BRANCH  13  14
HETATM   14  N4  UNL     1      49.126  50.016 -20.539  1.00  0.00    -0.201 N 
HETATM   15  N5  UNL     1      49.473  50.950 -19.689  1.00  0.00    -0.209 N 
HETATM   16  N6  UNL     1      48.265  51.448 -19.715  1.00  0.00    -0.211 N 
ATOM     17  H5  UNL     1      50.337  51.191 -19.204  1.00  0.00     0.211 HD
HETATM   18  N7  UNL     1      47.911  50.511 -20.568  1.00  0.00    -0.209 N 
ATOM     19  H6  UNL     1      47.795  52.233 -19.263  1.00  0.00     0.211 HD
ATOM     20  H7  UNL     1      47.046  50.269 -21.053  1.00  0.00     0.211 HD
ENDBRANCH  13  14
ENDBRANCH  12  13
ENDBRANCH   1  12
TORSDOF 5
ENDMDL
