MODEL 1
REMARK VINA RESULT: -5.201111935      0.000      0.000
REMARK  8 active torsions:
REMARK  status: ('A' for Active; 'I' for Inactive)
REMARK    1  A    between atoms: N1_1  and  C1_5 
REMARK    2  A    between atoms: C1_5  and  C2_6 
REMARK    3  A    between atoms: C2_6  and  C3_7 
REMARK    4  A    between atoms: C3_7  and  N2_8 
REMARK    5  A    between atoms: C6_11  and  N3_12 
REMARK    6  A    between atoms: N3_12  and  C7_14 
REMARK    7  A    between atoms: C7_14  and  C8_15 
REMARK    8  A    between atoms: C8_15  and  N4_16 
ROOT
HETATM    1  N2  UNL     1      50.625  46.313 -16.556  1.00  0.00    -0.353 N 
HETATM    2  C4  UNL     1      51.298  46.448 -17.736  1.00  0.00     0.095 A 
HETATM    3  C5  UNL     1      51.049  47.542 -18.533  1.00  0.00     0.065 A 
HETATM    4  C6  UNL     1      50.134  48.506 -18.166  1.00  0.00     0.103 A 
HETATM    5  N5  UNL     1      49.491  48.352 -17.013  1.00  0.00    -0.339 N 
ATOM      6  H5  UNL     1      48.808  49.048 -16.713  1.00  0.00     0.168 HD
HETATM    7  C9  UNL     1      49.743  47.271 -16.232  1.00  0.00     0.184 A 
ENDROOT
BRANCH   4   8
HETATM    8  N3  UNL     1      49.960  49.495 -18.965  1.00  0.00    -0.375 N 
ATOM      9  H3  UNL     1      49.667  50.380 -18.550  1.00  0.00     0.161 HD
BRANCH   8  10
HETATM   10  C7  UNL     1      50.138  49.471 -20.379  1.00  0.00     0.148 C 
BRANCH  10  11
HETATM   11  C8  UNL     1      48.758  49.295 -21.017  1.00  0.00     0.249 C 
BRANCH  11  12
HETATM   12  N4  UNL     1      47.897  50.341 -20.515  1.00  0.00    -0.078 N 
ATOM     13  H43 UNL     1      47.363  50.053 -19.695  1.00  0.00     0.274 HD
ATOM     14  H42 UNL     1      48.415  51.104 -20.079  1.00  0.00     0.274 HD
ATOM     15  H41 UNL     1      47.303  50.655 -21.282  1.00  0.00     0.274 HD
ENDBRANCH  11  12
ENDBRANCH  10  11
ENDBRANCH   8  10
ENDBRANCH   4   8
BRANCH   1  16
HETATM   16  C3  UNL     1      50.928  45.159 -15.750  1.00  0.00     0.130 C 
BRANCH  16  17
HETATM   17  C2  UNL     1      50.312  43.931 -16.370  1.00  0.00     0.047 C 
BRANCH  17  18
HETATM   18  C1  UNL     1      50.890  42.634 -15.921  1.00  0.00     0.231 C 
BRANCH  18  19
HETATM   19  N1  UNL     1      51.689  42.856 -14.720  1.00  0.00    -0.079 N 
ATOM     20  H13 UNL     1      52.655  43.102 -14.938  1.00  0.00     0.274 HD
ATOM     21  H12 UNL     1      51.428  43.713 -14.234  1.00  0.00     0.274 HD
ATOM     22  H11 UNL     1      51.626  42.034 -14.119  1.00  0.00     0.274 HD
ENDBRANCH  18  19
ENDBRANCH  17  18
ENDBRANCH  16  17
ENDBRANCH   1  16
TORSDOF 8
ENDMDL
MODEL 2
REMARK VINA RESULT: -5.101606900      1.295      1.334
REMARK  8 active torsions:
REMARK  status: ('A' for Active; 'I' for Inactive)
REMARK    1  A    between atoms: N1_1  and  C1_5 
REMARK    2  A    between atoms: C1_5  and  C2_6 
REMARK    3  A    between atoms: C2_6  and  C3_7 
REMARK    4  A    between atoms: C3_7  and  N2_8 
REMARK    5  A    between atoms: C6_11  and  N3_12 
REMARK    6  A    between atoms: N3_12  and  C7_14 
REMARK    7  A    between atoms: C7_14  and  C8_15 
REMARK    8  A    between atoms: C8_15  and  N4_16 
ROOT
HETATM    1  N2  UNL     1      50.361  45.923 -16.614  1.00  0.00    -0.353 N 
HETATM    2  C4  UNL     1      50.115  45.403 -17.852  1.00  0.00     0.095 A 
HETATM    3  C5  UNL     1      49.519  46.195 -18.809  1.00  0.00     0.065 A 
HETATM    4  C6  UNL     1      49.165  47.500 -18.544  1.00  0.00     0.103 A 
HETATM    5  N5  UNL     1      49.416  47.983 -17.330  1.00  0.00    -0.339 N 
ATOM      6  H5  UNL     1      49.165  48.945 -17.103  1.00  0.00     0.168 HD
HETATM    7  C9  UNL     1      50.003  47.197 -16.393  1.00  0.00     0.184 A 
ENDROOT
BRANCH   4   8
HETATM    8  N3  UNL     1      48.614  48.171 -19.489  1.00  0.00    -0.375 N 
ATOM      9  H3  UNL     1      47.790  48.721 -19.247  1.00  0.00     0.161 HD
BRANCH   8  10
HETATM   10  C7  UNL     1      49.049  48.218 -20.845  1.00  0.00     0.148 C 
BRANCH  10  11
HETATM   11  C8  UNL     1      48.985  49.677 -21.303  1.00  0.00     0.249 C 
BRANCH  11  12
HETATM   12  N4  UNL     1      47.932  50.332 -20.560  1.00  0.00    -0.078 N 
ATOM     13  H43 UNL     1      47.232  49.679 -20.210  1.00  0.00     0.274 HD
ATOM     14  H42 UNL     1      48.249  50.689 -19.659  1.00  0.00     0.274 HD
ATOM     15  H41 UNL     1      47.533  51.058 -21.154  1.00  0.00     0.274 HD
ENDBRANCH  11  12
ENDBRANCH  10  11
ENDBRANCH   8  10
ENDBRANCH   4   8
BRANCH   1  16
HETATM   16  C3  UNL     1      50.998  45.061 -15.651  1.00  0.00     0.130 C 
BRANCH  16  17
HETATM   17  C2  UNL     1      51.509  43.822 -16.339  1.00  0.00     0.047 C 
BRANCH  17  18
HETATM   18  C1  UNL     1      51.093  42.533 -15.720  1.00  0.00     0.231 C 
BRANCH  18  19
HETATM   19  N1  UNL     1      50.032  41.935 -16.524  1.00  0.00    -0.079 N 
ATOM     20  H13 UNL     1      50.282  41.875 -17.512  1.00  0.00     0.274 HD
ATOM     21  H12 UNL     1      49.924  40.937 -16.343  1.00  0.00     0.274 HD
ATOM     22  H11 UNL     1      49.166  42.452 -16.374  1.00  0.00     0.274 HD
ENDBRANCH  18  19
ENDBRANCH  17  18
ENDBRANCH  16  17
ENDBRANCH   1  16
TORSDOF 8
ENDMDL
MODEL 3
REMARK VINA RESULT: -5.066594636      2.418      6.279
REMARK  8 active torsions:
REMARK  status: ('A' for Active; 'I' for Inactive)
REMARK    1  A    between atoms: N1_1  and  C1_5 
REMARK    2  A    between atoms: C1_5  and  C2_6 
REMARK    3  A    between atoms: C2_6  and  C3_7 
REMARK    4  A    between atoms: C3_7  and  N2_8 
REMARK    5  A    between atoms: C6_11  and  N3_12 
REMARK    6  A    between atoms: N3_12  and  C7_14 
REMARK    7  A    between atoms: C7_14  and  C8_15 
REMARK    8  A    between atoms: C8_15  and  N4_16 
ROOT
HETATM    1  N2  UNL     1      49.636  48.537 -21.660  1.00  0.00    -0.353 N 
HETATM    2  C4  UNL     1      50.361  47.391 -21.510  1.00  0.00     0.095 A 
HETATM    3  C5  UNL     1      50.153  46.602 -20.401  1.00  0.00     0.065 A 
HETATM    4  C6  UNL     1      49.228  46.944 -19.438  1.00  0.00     0.103 A 
HETATM    5  N5  UNL     1      48.534  48.065 -19.607  1.00  0.00    -0.339 N 
ATOM      6  H5  UNL     1      47.842  48.346 -18.913  1.00  0.00     0.168 HD
HETATM    7  C9  UNL     1      48.745  48.837 -20.704  1.00  0.00     0.184 A 
ENDROOT
BRANCH   4   8
HETATM    8  N3  UNL     1      49.094  46.155 -18.434  1.00  0.00    -0.375 N 
ATOM      9  H3  UNL     1      48.203  45.668 -18.344  1.00  0.00     0.161 HD
BRANCH   8  10
HETATM   10  C7  UNL     1      50.076  45.899 -17.435  1.00  0.00     0.148 C 
BRANCH  10  11
HETATM   11  C8  UNL     1      50.322  47.206 -16.678  1.00  0.00     0.249 C 
BRANCH  11  12
HETATM   12  N4  UNL     1      49.173  47.458 -15.838  1.00  0.00    -0.078 N 
ATOM     13  H43 UNL     1      48.373  46.873 -16.077  1.00  0.00     0.274 HD
ATOM     14  H42 UNL     1      49.303  47.127 -14.882  1.00  0.00     0.274 HD
ATOM     15  H41 UNL     1      48.960  48.454 -15.885  1.00  0.00     0.274 HD
ENDBRANCH  11  12
ENDBRANCH  10  11
ENDBRANCH   8  10
ENDBRANCH   4   8
BRANCH   1  16
HETATM   16  C3  UNL     1      49.879  49.323 -22.843  1.00  0.00     0.130 C 
BRANCH  16  17
HETATM   17  C2  UNL     1      51.356  49.341 -23.144  1.00  0.00     0.047 C 
BRANCH  17  18
HETATM   18  C1  UNL     1      52.024  50.661 -22.966  1.00  0.00     0.231 C 
BRANCH  18  19
HETATM   19  N1  UNL     1      52.277  50.883 -21.546  1.00  0.00    -0.079 N 
ATOM     20  H13 UNL     1      53.174  51.340 -21.380  1.00  0.00     0.274 HD
ATOM     21  H12 UNL     1      51.673  51.604 -21.153  1.00  0.00     0.274 HD
ATOM     22  H11 UNL     1      52.196  49.996 -21.048  1.00  0.00     0.274 HD
ENDBRANCH  18  19
ENDBRANCH  17  18
ENDBRANCH  16  17
ENDBRANCH   1  16
TORSDOF 8
ENDMDL
MODEL 4
REMARK VINA RESULT: -5.064472400      1.087      1.409
REMARK  8 active torsions:
REMARK  status: ('A' for Active; 'I' for Inactive)
REMARK    1  A    between atoms: N1_1  and  C1_5 
REMARK    2  A    between atoms: C1_5  and  C2_6 
REMARK    3  A    between atoms: C2_6  and  C3_7 
REMARK    4  A    between atoms: C3_7  and  N2_8 
REMARK    5  A    between atoms: C6_11  and  N3_12 
REMARK    6  A    between atoms: N3_12  and  C7_14 
REMARK    7  A    between atoms: C7_14  and  C8_15 
REMARK    8  A    between atoms: C8_15  and  N4_16 
ROOT
HETATM    1  N2  UNL     1      49.741  45.830 -17.043  1.00  0.00    -0.353 N 
HETATM    2  C4  UNL     1      49.959  47.023 -16.418  1.00  0.00     0.095 A 
HETATM    3  C5  UNL     1      49.996  48.179 -17.166  1.00  0.00     0.065 A 
HETATM    4  C6  UNL     1      49.818  48.157 -18.533  1.00  0.00     0.103 A 
HETATM    5  N5  UNL     1      49.607  46.982 -19.118  1.00  0.00    -0.339 N 
ATOM      6  H5  UNL     1      49.472  46.932 -20.128  1.00  0.00     0.168 HD
HETATM    7  C9  UNL     1      49.572  45.848 -18.373  1.00  0.00     0.184 A 
ENDROOT
BRANCH   4   8
HETATM    8  N3  UNL     1      49.867  49.277 -19.157  1.00  0.00    -0.375 N 
ATOM      9  H3  UNL     1      49.672  50.119 -18.615  1.00  0.00     0.161 HD
BRANCH   8  10
HETATM   10  C7  UNL     1      50.170  49.453 -20.538  1.00  0.00     0.148 C 
BRANCH  10  11
HETATM   11  C8  UNL     1      48.848  49.670 -21.279  1.00  0.00     0.249 C 
BRANCH  11  12
HETATM   12  N4  UNL     1      47.976  50.438 -20.419  1.00  0.00    -0.078 N 
ATOM     13  H43 UNL     1      46.992  50.347 -20.672  1.00  0.00     0.274 HD
ATOM     14  H42 UNL     1      47.910  50.051 -19.477  1.00  0.00     0.274 HD
ATOM     15  H41 UNL     1      48.297  51.405 -20.427  1.00  0.00     0.274 HD
ENDBRANCH  11  12
ENDBRANCH  10  11
ENDBRANCH   8  10
ENDBRANCH   4   8
BRANCH   1  16
HETATM   16  C3  UNL     1      49.698  44.650 -16.217  1.00  0.00     0.130 C 
BRANCH  16  17
HETATM   17  C2  UNL     1      50.938  44.583 -15.363  1.00  0.00     0.047 C 
BRANCH  17  18
HETATM   18  C1  UNL     1      51.842  43.433 -15.646  1.00  0.00     0.231 C 
BRANCH  18  19
HETATM   19  N1  UNL     1      51.817  42.514 -14.513  1.00  0.00    -0.079 N 
ATOM     20  H13 UNL     1      51.865  43.001 -13.618  1.00  0.00     0.274 HD
ATOM     21  H12 UNL     1      50.904  42.076 -14.389  1.00  0.00     0.274 HD
ATOM     22  H11 UNL     1      52.564  41.828 -14.621  1.00  0.00     0.274 HD
ENDBRANCH  18  19
ENDBRANCH  17  18
ENDBRANCH  16  17
ENDBRANCH   1  16
TORSDOF 8
ENDMDL
MODEL 5
REMARK VINA RESULT: -4.987145462      1.949      2.047
REMARK  8 active torsions:
REMARK  status: ('A' for Active; 'I' for Inactive)
REMARK    1  A    between atoms: N1_1  and  C1_5 
REMARK    2  A    between atoms: C1_5  and  C2_6 
REMARK    3  A    between atoms: C2_6  and  C3_7 
REMARK    4  A    between atoms: C3_7  and  N2_8 
REMARK    5  A    between atoms: C6_11  and  N3_12 
REMARK    6  A    between atoms: N3_12  and  C7_14 
REMARK    7  A    between atoms: C7_14  and  C8_15 
REMARK    8  A    between atoms: C8_15  and  N4_16 
ROOT
HETATM    1  N2  UNL     1      50.826  45.088 -18.458  1.00  0.00    -0.353 N 
HETATM    2  C4  UNL     1      51.380  45.452 -19.651  1.00  0.00     0.095 A 
HETATM    3  C5  UNL     1      50.711  46.340 -20.463  1.00  0.00     0.065 A 
HETATM    4  C6  UNL     1      49.492  46.871 -20.097  1.00  0.00     0.103 A 
HETATM    5  N5  UNL     1      48.974  46.502 -18.929  1.00  0.00    -0.339 N 
ATOM      6  H5  UNL     1      48.073  46.877 -18.630  1.00  0.00     0.168 HD
HETATM    7  C9  UNL     1      49.640  45.626 -18.136  1.00  0.00     0.184 A 
ENDROOT
BRANCH   4   8
HETATM    8  N3  UNL     1      48.933  47.693 -20.909  1.00  0.00    -0.375 N 
ATOM      9  H3  UNL     1      47.965  47.502 -21.167  1.00  0.00     0.161 HD
BRANCH   8  10
HETATM   10  C7  UNL     1      49.541  48.847 -21.483  1.00  0.00     0.148 C 
BRANCH  10  11
HETATM   11  C8  UNL     1      49.301  50.020 -20.530  1.00  0.00     0.249 C 
BRANCH  11  12
HETATM   12  N4  UNL     1      47.883  50.299 -20.513  1.00  0.00    -0.078 N 
ATOM     13  H43 UNL     1      47.560  50.753 -21.367  1.00  0.00     0.274 HD
ATOM     14  H42 UNL     1      47.314  49.455 -20.584  1.00  0.00     0.274 HD
ATOM     15  H41 UNL     1      47.678  50.843 -19.676  1.00  0.00     0.274 HD
ENDBRANCH  11  12
ENDBRANCH  10  11
ENDBRANCH   8  10
ENDBRANCH   4   8
BRANCH   1  16
HETATM   16  C3  UNL     1      51.569  44.166 -17.638  1.00  0.00     0.130 C 
BRANCH  16  17
HETATM   17  C2  UNL     1      50.676  43.618 -16.555  1.00  0.00     0.047 C 
BRANCH  17  18
HETATM   18  C1  UNL     1      51.239  43.675 -15.177  1.00  0.00     0.231 C 
BRANCH  18  19
HETATM   19  N1  UNL     1      50.632  44.790 -14.457  1.00  0.00    -0.079 N 
ATOM     20  H13 UNL     1      50.013  44.476 -13.709  1.00  0.00     0.274 HD
ATOM     21  H12 UNL     1      51.307  45.294 -13.883  1.00  0.00     0.274 HD
ATOM     22  H11 UNL     1      50.156  45.400 -15.123  1.00  0.00     0.274 HD
ENDBRANCH  18  19
ENDBRANCH  17  18
ENDBRANCH  16  17
ENDBRANCH   1  16
TORSDOF 8
ENDMDL
