MODEL 1
REMARK VINA RESULT: -6.205035642      0.000      0.000
REMARK  7 active torsions:
REMARK  status: ('A' for Active; 'I' for Inactive)
REMARK    1  A    between atoms: N1_1  and  C1_5 
REMARK    2  A    between atoms: C1_5  and  C2_6 
REMARK    3  A    between atoms: C2_6  and  C3_7 
REMARK    4  A    between atoms: C2_6  and  O2_10 
REMARK    5  A    between atoms: C3_7  and  O1_8 
REMARK    6  A    between atoms: O2_10  and  C4_11 
REMARK    7  A    between atoms: C4_11  and  N2_12 
ROOT
HETATM    1  C2  UNL     1      49.387  48.495 -20.071  1.00  0.00     0.172 C 
ENDROOT
BRANCH   1   2
HETATM    2  C1  UNL     1      49.232  49.865 -20.764  1.00  0.00     0.263 C 
BRANCH   2   3
HETATM    3  N1  UNL     1      47.921  50.418 -20.489  1.00  0.00    -0.077 N 
ATOM      4  H13 UNL     1      47.174  49.804 -20.814  1.00  0.00     0.274 HD
ATOM      5  H12 UNL     1      47.703  50.405 -19.493  1.00  0.00     0.274 HD
ATOM      6  H11 UNL     1      47.844  51.355 -20.885  1.00  0.00     0.274 HD
ENDBRANCH   2   3
ENDBRANCH   1   2
BRANCH   1   7
HETATM    7  C3  UNL     1      48.289  47.634 -20.584  1.00  0.00     0.197 C 
BRANCH   7   8
HETATM    8  O1  UNL     1      47.134  47.790 -19.813  1.00  0.00    -0.398 OA
ATOM      9  H1  UNL     1      46.543  48.417 -20.213  1.00  0.00     0.209 HD
ENDBRANCH   7   8
ENDBRANCH   1   7
BRANCH   1  10
HETATM   10  O2  UNL     1      49.515  48.707 -18.777  1.00  0.00    -0.363 OA
BRANCH  10  11
HETATM   11  C4  UNL     1      50.504  48.299 -17.991  1.00  0.00     0.299 C 
BRANCH  11  12
HETATM   12  N2  UNL     1      50.489  46.883 -17.604  1.00  0.00    -0.324 N 
HETATM   13  C5  UNL     1      51.127  45.949 -18.305  1.00  0.00     0.094 A 
HETATM   14  C6  UNL     1      51.071  44.634 -17.894  1.00  0.00     0.017 A 
HETATM   15  C7  UNL     1      50.377  44.247 -16.781  1.00  0.00     0.005 A 
HETATM   16  C8  UNL     1      49.716  45.213 -16.055  1.00  0.00     0.045 A 
HETATM   17  C9  UNL     1      49.786  46.523 -16.485  1.00  0.00     0.119 A 
HETATM   18  N3  UNL     1      49.100  47.487 -15.720  1.00  0.00    -0.083 NA
ENDBRANCH  11  12
ENDBRANCH  10  11
ENDBRANCH   1  10
TORSDOF 7
ENDMDL
MODEL 2
REMARK VINA RESULT: -5.753795424      1.210      1.514
REMARK  7 active torsions:
REMARK  status: ('A' for Active; 'I' for Inactive)
REMARK    1  A    between atoms: N1_1  and  C1_5 
REMARK    2  A    between atoms: C1_5  and  C2_6 
REMARK    3  A    between atoms: C2_6  and  C3_7 
REMARK    4  A    between atoms: C2_6  and  O2_10 
REMARK    5  A    between atoms: C3_7  and  O1_8 
REMARK    6  A    between atoms: O2_10  and  C4_11 
REMARK    7  A    between atoms: C4_11  and  N2_12 
ROOT
HETATM    1  C2  UNL     1      49.437  48.891 -19.937  1.00  0.00     0.172 C 
ENDROOT
BRANCH   1   2
HETATM    2  C1  UNL     1      48.728  47.630 -20.474  1.00  0.00     0.263 C 
BRANCH   2   3
HETATM    3  N1  UNL     1      47.356  47.593 -20.010  1.00  0.00    -0.077 N 
ATOM      4  H13 UNL     1      47.246  46.990 -19.195  1.00  0.00     0.274 HD
ATOM      5  H12 UNL     1      47.074  48.476 -19.583  1.00  0.00     0.274 HD
ATOM      6  H11 UNL     1      46.734  47.322 -20.772  1.00  0.00     0.274 HD
ENDBRANCH   2   3
ENDBRANCH   1   2
BRANCH   1   7
HETATM    7  C3  UNL     1      49.531  49.842 -21.076  1.00  0.00     0.197 C 
BRANCH   7   8
HETATM    8  O1  UNL     1      48.259  50.181 -21.546  1.00  0.00    -0.398 OA
ATOM      9  H1  UNL     1      48.172  51.122 -21.637  1.00  0.00     0.209 HD
ENDBRANCH   7   8
ENDBRANCH   1   7
BRANCH   1  10
HETATM   10  O2  UNL     1      50.526  48.505 -19.304  1.00  0.00    -0.363 OA
BRANCH  10  11
HETATM   11  C4  UNL     1      50.650  48.243 -18.009  1.00  0.00     0.299 C 
BRANCH  11  12
HETATM   12  N2  UNL     1      50.573  46.829 -17.618  1.00  0.00    -0.324 N 
HETATM   13  C5  UNL     1      51.187  45.870 -18.304  1.00  0.00     0.094 A 
HETATM   14  C6  UNL     1      51.072  44.559 -17.890  1.00  0.00     0.017 A 
HETATM   15  C7  UNL     1      50.342  44.203 -16.789  1.00  0.00     0.005 A 
HETATM   16  C8  UNL     1      49.706  45.197 -16.079  1.00  0.00     0.045 A 
HETATM   17  C9  UNL     1      49.836  46.501 -16.512  1.00  0.00     0.119 A 
HETATM   18  N3  UNL     1      49.173  47.494 -15.763  1.00  0.00    -0.083 NA
ENDBRANCH  11  12
ENDBRANCH  10  11
ENDBRANCH   1  10
TORSDOF 7
ENDMDL
MODEL 3
REMARK VINA RESULT: -5.650795885      1.776      2.127
REMARK  7 active torsions:
REMARK  status: ('A' for Active; 'I' for Inactive)
REMARK    1  A    between atoms: N1_1  and  C1_5 
REMARK    2  A    between atoms: C1_5  and  C2_6 
REMARK    3  A    between atoms: C2_6  and  C3_7 
REMARK    4  A    between atoms: C2_6  and  O2_10 
REMARK    5  A    between atoms: C3_7  and  O1_8 
REMARK    6  A    between atoms: O2_10  and  C4_11 
REMARK    7  A    between atoms: C4_11  and  N2_12 
ROOT
HETATM    1  C2  UNL     1      49.715  48.684 -20.879  1.00  0.00     0.172 C 
ENDROOT
BRANCH   1   2
HETATM    2  C1  UNL     1      48.618  47.598 -20.855  1.00  0.00     0.263 C 
BRANCH   2   3
HETATM    3  N1  UNL     1      47.620  47.919 -19.856  1.00  0.00    -0.077 N 
ATOM      4  H13 UNL     1      48.027  48.388 -19.047  1.00  0.00     0.274 HD
ATOM      5  H12 UNL     1      46.997  48.666 -20.165  1.00  0.00     0.274 HD
ATOM      6  H11 UNL     1      47.105  47.079 -19.590  1.00  0.00     0.274 HD
ENDBRANCH   2   3
ENDBRANCH   1   2
BRANCH   1   7
HETATM    7  C3  UNL     1      49.532  49.443 -22.144  1.00  0.00     0.197 C 
BRANCH   7   8
HETATM    8  O1  UNL     1      48.364  50.210 -22.098  1.00  0.00    -0.398 OA
ATOM      9  H1  UNL     1      48.569  51.136 -22.051  1.00  0.00     0.209 HD
ENDBRANCH   7   8
ENDBRANCH   1   7
BRANCH   1  10
HETATM   10  O2  UNL     1      50.867  48.102 -20.616  1.00  0.00    -0.363 OA
BRANCH  10  11
HETATM   11  C4  UNL     1      51.636  48.291 -19.550  1.00  0.00     0.299 C 
BRANCH  11  12
HETATM   12  N2  UNL     1      51.369  47.430 -18.391  1.00  0.00    -0.324 N 
HETATM   13  C5  UNL     1      51.957  46.247 -18.236  1.00  0.00     0.094 A 
HETATM   14  C6  UNL     1      51.660  45.480 -17.129  1.00  0.00     0.017 A 
HETATM   15  C7  UNL     1      50.775  45.893 -16.171  1.00  0.00     0.005 A 
HETATM   16  C8  UNL     1      50.166  47.118 -16.332  1.00  0.00     0.045 A 
HETATM   17  C9  UNL     1      50.478  47.868 -17.448  1.00  0.00     0.119 A 
HETATM   18  N3  UNL     1      49.838  49.116 -17.581  1.00  0.00    -0.083 NA
ENDBRANCH  11  12
ENDBRANCH  10  11
ENDBRANCH   1  10
TORSDOF 7
ENDMDL
MODEL 4
REMARK VINA RESULT: -5.625234429      1.803      2.333
REMARK  7 active torsions:
REMARK  status: ('A' for Active; 'I' for Inactive)
REMARK    1  A    between atoms: N1_1  and  C1_5 
REMARK    2  A    between atoms: C1_5  and  C2_6 
REMARK    3  A    between atoms: C2_6  and  C3_7 
REMARK    4  A    between atoms: C2_6  and  O2_10 
REMARK    5  A    between atoms: C3_7  and  O1_8 
REMARK    6  A    between atoms: O2_10  and  C4_11 
REMARK    7  A    between atoms: C4_11  and  N2_12 
ROOT
HETATM    1  C2  UNL     1      49.512  49.096 -21.327  1.00  0.00     0.172 C 
ENDROOT
BRANCH   1   2
HETATM    2  C1  UNL     1      50.906  49.751 -21.418  1.00  0.00     0.263 C 
BRANCH   2   3
HETATM    3  N1  UNL     1      51.752  49.277 -20.342  1.00  0.00    -0.077 N 
ATOM      4  H13 UNL     1      51.394  48.417 -19.927  1.00  0.00     0.274 HD
ATOM      5  H12 UNL     1      52.643  48.917 -20.687  1.00  0.00     0.274 HD
ATOM      6  H11 UNL     1      51.882  50.011 -19.646  1.00  0.00     0.274 HD
ENDBRANCH   2   3
ENDBRANCH   1   2
BRANCH   1   7
HETATM    7  C3  UNL     1      48.588  50.136 -20.804  1.00  0.00     0.197 C 
BRANCH   7   8
HETATM    8  O1  UNL     1      49.257  51.004 -19.936  1.00  0.00    -0.398 OA
ATOM      9  H1  UNL     1      48.964  51.899 -20.061  1.00  0.00     0.209 HD
ENDBRANCH   7   8
ENDBRANCH   1   7
BRANCH   1  10
HETATM   10  O2  UNL     1      49.645  47.947 -20.696  1.00  0.00    -0.363 OA
BRANCH  10  11
HETATM   11  C4  UNL     1      48.895  47.488 -19.701  1.00  0.00     0.299 C 
BRANCH  11  12
HETATM   12  N2  UNL     1      49.612  46.917 -18.553  1.00  0.00    -0.324 N 
HETATM   13  C5  UNL     1      49.838  45.611 -18.438  1.00  0.00     0.094 A 
HETATM   14  C6  UNL     1      50.511  45.134 -17.333  1.00  0.00     0.017 A 
HETATM   15  C7  UNL     1      50.961  45.960 -16.340  1.00  0.00     0.005 A 
HETATM   16  C8  UNL     1      50.727  47.312 -16.460  1.00  0.00     0.045 A 
HETATM   17  C9  UNL     1      50.051  47.767 -17.574  1.00  0.00     0.119 A 
HETATM   18  N3  UNL     1      49.828  49.155 -17.666  1.00  0.00    -0.083 NA
ENDBRANCH  11  12
ENDBRANCH  10  11
ENDBRANCH   1  10
TORSDOF 7
ENDMDL
MODEL 5
REMARK VINA RESULT: -5.618728447      0.774      1.800
REMARK  7 active torsions:
REMARK  status: ('A' for Active; 'I' for Inactive)
REMARK    1  A    between atoms: N1_1  and  C1_5 
REMARK    2  A    between atoms: C1_5  and  C2_6 
REMARK    3  A    between atoms: C2_6  and  C3_7 
REMARK    4  A    between atoms: C2_6  and  O2_10 
REMARK    5  A    between atoms: C3_7  and  O1_8 
REMARK    6  A    between atoms: O2_10  and  C4_11 
REMARK    7  A    between atoms: C4_11  and  N2_12 
ROOT
HETATM    1  C2  UNL     1      49.405  48.476 -19.861  1.00  0.00     0.172 C 
ENDROOT
BRANCH   1   2
HETATM    2  C1  UNL     1      49.356  49.922 -20.400  1.00  0.00     0.263 C 
BRANCH   2   3
HETATM    3  N1  UNL     1      47.982  50.354 -20.548  1.00  0.00    -0.077 N 
ATOM      4  H13 UNL     1      47.322  49.605 -20.338  1.00  0.00     0.274 HD
ATOM      5  H12 UNL     1      47.706  51.007 -19.814  1.00  0.00     0.274 HD
ATOM      6  H11 UNL     1      47.833  50.742 -21.479  1.00  0.00     0.274 HD
ENDBRANCH   2   3
ENDBRANCH   1   2
BRANCH   1   7
HETATM    7  C3  UNL     1      48.344  47.722 -20.578  1.00  0.00     0.197 C 
BRANCH   7   8
HETATM    8  O1  UNL     1      47.139  47.764 -19.870  1.00  0.00    -0.398 OA
ATOM      9  H1  UNL     1      46.618  48.514 -20.134  1.00  0.00     0.209 HD
ENDBRANCH   7   8
ENDBRANCH   1   7
BRANCH   1  10
HETATM   10  O2  UNL     1      49.405  48.534 -18.546  1.00  0.00    -0.363 OA
BRANCH  10  11
HETATM   11  C4  UNL     1      50.434  48.324 -17.733  1.00  0.00     0.299 C 
BRANCH  11  12
HETATM   12  N2  UNL     1      50.625  46.946 -17.264  1.00  0.00    -0.324 N 
HETATM   13  C5  UNL     1      49.845  46.398 -16.337  1.00  0.00     0.094 A 
HETATM   14  C6  UNL     1      50.079  45.101 -15.932  1.00  0.00     0.017 A 
HETATM   15  C7  UNL     1      51.094  44.346 -16.452  1.00  0.00     0.005 A 
HETATM   16  C8  UNL     1      51.902  44.914 -17.412  1.00  0.00     0.045 A 
HETATM   17  C9  UNL     1      51.650  46.214 -17.801  1.00  0.00     0.119 A 
HETATM   18  N3  UNL     1      52.495  46.764 -18.785  1.00  0.00    -0.083 NA
ENDBRANCH  11  12
ENDBRANCH  10  11
ENDBRANCH   1  10
TORSDOF 7
ENDMDL
