MODEL 1
REMARK VINA RESULT: -5.372655979      0.000      0.000
REMARK  8 active torsions:
REMARK  status: ('A' for Active; 'I' for Inactive)
REMARK    1  A    between atoms: N1_1  and  C1_5 
REMARK    2  A    between atoms: C1_5  and  C2_6 
REMARK    3  A    between atoms: C2_6  and  N2_7 
REMARK    4  A    between atoms: N2_7  and  C3_9 
REMARK    5  A    between atoms: C6_14  and  N4_15 
REMARK    6  A    between atoms: N4_15  and  C7_17 
REMARK    7  A    between atoms: C7_17  and  C8_18 
REMARK    8  A    between atoms: C8_18  and  N5_19 
ROOT
HETATM    1  C3  UNL     1      48.932  47.612 -20.243  1.00  0.00     0.118 A 
HETATM    2  C4  UNL     1      50.034  47.290 -21.016  1.00  0.00     0.066 A 
HETATM    3  C5  UNL     1      50.879  46.290 -20.581  1.00  0.00     0.110 A 
HETATM    4  N3  UNL     1      50.642  45.638 -19.429  1.00  0.00    -0.202 N 
ATOM      5  H3  UNL     1      51.278  44.903 -19.121  1.00  0.00     0.183 HD
HETATM    6  C6  UNL     1      49.581  45.948 -18.687  1.00  0.00     0.679 A 
HETATM    7  N6  UNL     1      48.753  46.926 -19.110  1.00  0.00    -0.177 N 
ATOM      8  H6  UNL     1      47.945  47.155 -18.532  1.00  0.00     0.185 HD
ENDROOT
BRANCH   1   9
HETATM    9  N2  UNL     1      48.099  48.547 -20.604  1.00  0.00    -0.374 N 
ATOM     10  H2  UNL     1      47.102  48.332 -20.596  1.00  0.00     0.161 HD
BRANCH   9  11
HETATM   11  C2  UNL     1      48.504  49.858 -21.012  1.00  0.00     0.148 C 
BRANCH  11  12
HETATM   12  C1  UNL     1      49.143  50.663 -19.903  1.00  0.00     0.249 C 
BRANCH  12  13
HETATM   13  N1  UNL     1      48.290  51.791 -19.592  1.00  0.00    -0.078 N 
ATOM     14  H13 UNL     1      48.671  52.672 -19.936  1.00  0.00     0.274 HD
ATOM     15  H12 UNL     1      47.427  51.787 -20.134  1.00  0.00     0.274 HD
ATOM     16  H11 UNL     1      48.119  51.808 -18.587  1.00  0.00     0.274 HD
ENDBRANCH  12  13
ENDBRANCH  11  12
ENDBRANCH   9  11
ENDBRANCH   1   9
BRANCH   6  17
HETATM   17  N4  UNL     1      49.363  45.316 -17.585  1.00  0.00    -0.224 N 
ATOM     18  H4  UNL     1      48.693  44.548 -17.621  1.00  0.00     0.177 HD
BRANCH  17  19
HETATM   19  C7  UNL     1      49.965  45.582 -16.324  1.00  0.00     0.165 C 
BRANCH  19  20
HETATM   20  C8  UNL     1      50.184  47.053 -16.060  1.00  0.00     0.249 C 
BRANCH  20  21
HETATM   21  N5  UNL     1      48.990  47.744 -15.693  1.00  0.00    -0.078 N 
ATOM     22  H53 UNL     1      48.657  48.325 -16.462  1.00  0.00     0.274 HD
ATOM     23  H52 UNL     1      48.205  47.097 -15.618  1.00  0.00     0.274 HD
ATOM     24  H51 UNL     1      49.090  48.294 -14.840  1.00  0.00     0.274 HD
ENDBRANCH  20  21
ENDBRANCH  19  20
ENDBRANCH  17  19
ENDBRANCH   6  17
TORSDOF 8
ENDMDL
MODEL 2
REMARK VINA RESULT: -5.353071304      1.172      1.327
REMARK  8 active torsions:
REMARK  status: ('A' for Active; 'I' for Inactive)
REMARK    1  A    between atoms: N1_1  and  C1_5 
REMARK    2  A    between atoms: C1_5  and  C2_6 
REMARK    3  A    between atoms: C2_6  and  N2_7 
REMARK    4  A    between atoms: N2_7  and  C3_9 
REMARK    5  A    between atoms: C6_14  and  N4_15 
REMARK    6  A    between atoms: N4_15  and  C7_17 
REMARK    7  A    between atoms: C7_17  and  C8_18 
REMARK    8  A    between atoms: C8_18  and  N5_19 
ROOT
HETATM    1  C3  UNL     1      48.983  47.575 -20.024  1.00  0.00     0.118 A 
HETATM    2  C4  UNL     1      49.976  47.024 -20.818  1.00  0.00     0.066 A 
HETATM    3  C5  UNL     1      50.816  46.079 -20.269  1.00  0.00     0.110 A 
HETATM    4  N3  UNL     1      50.680  45.696 -18.986  1.00  0.00    -0.202 N 
ATOM      5  H3  UNL     1      51.312  44.997 -18.596  1.00  0.00     0.183 HD
HETATM    6  C6  UNL     1      49.725  46.224 -18.225  1.00  0.00     0.679 A 
HETATM    7  N6  UNL     1      48.902  47.149 -18.760  1.00  0.00    -0.177 N 
ATOM      8  H6  UNL     1      48.175  47.548 -18.165  1.00  0.00     0.185 HD
ENDROOT
BRANCH   1   9
HETATM    9  N2  UNL     1      48.160  48.471 -20.489  1.00  0.00    -0.374 N 
ATOM     10  H2  UNL     1      47.164  48.252 -20.495  1.00  0.00     0.161 HD
BRANCH   9  11
HETATM   11  C2  UNL     1      48.575  49.745 -20.993  1.00  0.00     0.148 C 
BRANCH  11  12
HETATM   12  C1  UNL     1      49.212  50.629 -19.946  1.00  0.00     0.249 C 
BRANCH  12  13
HETATM   13  N1  UNL     1      48.310  51.720 -19.641  1.00  0.00    -0.078 N 
ATOM     14  H13 UNL     1      48.640  52.290 -18.862  1.00  0.00     0.274 HD
ATOM     15  H12 UNL     1      48.318  52.443 -20.360  1.00  0.00     0.274 HD
ATOM     16  H11 UNL     1      47.377  51.342 -19.479  1.00  0.00     0.274 HD
ENDBRANCH  12  13
ENDBRANCH  11  12
ENDBRANCH   9  11
ENDBRANCH   1   9
BRANCH   6  17
HETATM   17  N4  UNL     1      49.604  45.848 -16.997  1.00  0.00    -0.224 N 
ATOM     18  H4  UNL     1      49.352  46.568 -16.320  1.00  0.00     0.177 HD
BRANCH  17  19
HETATM   19  C7  UNL     1      49.786  44.531 -16.494  1.00  0.00     0.165 C 
BRANCH  19  20
HETATM   20  C8  UNL     1      50.967  44.399 -15.563  1.00  0.00     0.249 C 
BRANCH  20  21
HETATM   21  N5  UNL     1      50.668  44.773 -14.218  1.00  0.00    -0.078 N 
ATOM     22  H53 UNL     1      51.508  45.095 -13.736  1.00  0.00     0.274 HD
ATOM     23  H52 UNL     1      50.119  45.633 -14.194  1.00  0.00     0.274 HD
ATOM     24  H51 UNL     1      50.208  44.034 -13.688  1.00  0.00     0.274 HD
ENDBRANCH  20  21
ENDBRANCH  19  20
ENDBRANCH  17  19
ENDBRANCH   6  17
TORSDOF 8
ENDMDL
MODEL 3
REMARK VINA RESULT: -5.341899547      1.976      5.810
REMARK  8 active torsions:
REMARK  status: ('A' for Active; 'I' for Inactive)
REMARK    1  A    between atoms: N1_1  and  C1_5 
REMARK    2  A    between atoms: C1_5  and  C2_6 
REMARK    3  A    between atoms: C2_6  and  N2_7 
REMARK    4  A    between atoms: N2_7  and  C3_9 
REMARK    5  A    between atoms: C6_14  and  N4_15 
REMARK    6  A    between atoms: N4_15  and  C7_17 
REMARK    7  A    between atoms: C7_17  and  C8_18 
REMARK    8  A    between atoms: C8_18  and  N5_19 
ROOT
HETATM    1  C3  UNL     1      49.903  45.465 -17.450  1.00  0.00     0.118 A 
HETATM    2  C4  UNL     1      50.378  46.314 -16.465  1.00  0.00     0.066 A 
HETATM    3  C5  UNL     1      50.169  47.670 -16.600  1.00  0.00     0.110 A 
HETATM    4  N3  UNL     1      49.516  48.164 -17.668  1.00  0.00    -0.202 N 
ATOM      5  H3  UNL     1      49.371  49.170 -17.753  1.00  0.00     0.183 HD
HETATM    6  C6  UNL     1      49.058  47.347 -18.613  1.00  0.00     0.679 A 
HETATM    7  N6  UNL     1      49.262  46.020 -18.483  1.00  0.00    -0.177 N 
ATOM      8  H6  UNL     1      48.908  45.405 -19.216  1.00  0.00     0.185 HD
ENDROOT
BRANCH   1   9
HETATM    9  N2  UNL     1      50.071  44.175 -17.374  1.00  0.00    -0.374 N 
ATOM     10  H2  UNL     1      49.299  43.572 -17.657  1.00  0.00     0.161 HD
BRANCH   9  11
HETATM   11  C2  UNL     1      51.279  43.557 -16.917  1.00  0.00     0.148 C 
BRANCH  11  12
HETATM   12  C1  UNL     1      51.052  42.506 -15.854  1.00  0.00     0.249 C 
BRANCH  12  13
HETATM   13  N1  UNL     1      51.726  42.914 -14.640  1.00  0.00    -0.078 N 
ATOM     14  H13 UNL     1      52.736  42.993 -14.764  1.00  0.00     0.274 HD
ATOM     15  H12 UNL     1      51.536  43.886 -14.397  1.00  0.00     0.274 HD
ATOM     16  H11 UNL     1      51.476  42.270 -13.890  1.00  0.00     0.274 HD
ENDBRANCH  12  13
ENDBRANCH  11  12
ENDBRANCH   9  11
ENDBRANCH   1   9
BRANCH   6  17
HETATM   17  N4  UNL     1      48.433  47.833 -19.632  1.00  0.00    -0.224 N 
ATOM     18  H4  UNL     1      47.428  47.970 -19.530  1.00  0.00     0.177 HD
BRANCH  17  19
HETATM   19  C7  UNL     1      49.006  48.196 -20.881  1.00  0.00     0.165 C 
BRANCH  19  20
HETATM   20  C8  UNL     1      49.009  49.685 -21.134  1.00  0.00     0.249 C 
BRANCH  20  21
HETATM   21  N5  UNL     1      47.904  50.360 -20.533  1.00  0.00    -0.078 N 
ATOM     22  H53 UNL     1      48.097  50.570 -19.554  1.00  0.00     0.274 HD
ATOM     23  H52 UNL     1      47.818  51.309 -20.897  1.00  0.00     0.274 HD
ATOM     24  H51 UNL     1      47.024  49.853 -20.629  1.00  0.00     0.274 HD
ENDBRANCH  20  21
ENDBRANCH  19  20
ENDBRANCH  17  19
ENDBRANCH   6  17
TORSDOF 8
ENDMDL
MODEL 4
REMARK VINA RESULT: -5.169627236      2.895      3.385
REMARK  8 active torsions:
REMARK  status: ('A' for Active; 'I' for Inactive)
REMARK    1  A    between atoms: N1_1  and  C1_5 
REMARK    2  A    between atoms: C1_5  and  C2_6 
REMARK    3  A    between atoms: C2_6  and  N2_7 
REMARK    4  A    between atoms: N2_7  and  C3_9 
REMARK    5  A    between atoms: C6_14  and  N4_15 
REMARK    6  A    between atoms: N4_15  and  C7_17 
REMARK    7  A    between atoms: C7_17  and  C8_18 
REMARK    8  A    between atoms: C8_18  and  N5_19 
ROOT
HETATM    1  C3  UNL     1      50.552  49.120 -20.546  1.00  0.00     0.118 A 
HETATM    2  C4  UNL     1      49.545  48.528 -21.291  1.00  0.00     0.066 A 
HETATM    3  C5  UNL     1      48.542  47.852 -20.630  1.00  0.00     0.110 A 
HETATM    4  N3  UNL     1      48.536  47.765 -19.287  1.00  0.00    -0.202 N 
ATOM      5  H3  UNL     1      47.788  47.259 -18.815  1.00  0.00     0.183 HD
HETATM    6  C6  UNL     1      49.504  48.335 -18.573  1.00  0.00     0.679 A 
HETATM    7  N6  UNL     1      50.487  48.997 -19.217  1.00  0.00    -0.177 N 
ATOM      8  H6  UNL     1      51.223  49.428 -18.658  1.00  0.00     0.185 HD
ENDROOT
BRANCH   1   9
HETATM    9  N2  UNL     1      51.525  49.772 -21.117  1.00  0.00    -0.374 N 
ATOM     10  H2  UNL     1      51.307  50.657 -21.575  1.00  0.00     0.161 HD
BRANCH   9  11
HETATM   11  C2  UNL     1      52.882  49.316 -21.139  1.00  0.00     0.148 C 
BRANCH  11  12
HETATM   12  C1  UNL     1      53.884  50.423 -21.378  1.00  0.00     0.249 C 
BRANCH  12  13
HETATM   13  N1  UNL     1      54.959  50.298 -20.416  1.00  0.00    -0.078 N 
ATOM     14  H13 UNL     1      55.650  49.601 -20.694  1.00  0.00     0.274 HD
ATOM     15  H12 UNL     1      55.572  51.112 -20.411  1.00  0.00     0.274 HD
ATOM     16  H11 UNL     1      54.559  50.105 -19.498  1.00  0.00     0.274 HD
ENDBRANCH  12  13
ENDBRANCH  11  12
ENDBRANCH   9  11
ENDBRANCH   1   9
BRANCH   6  17
HETATM   17  N4  UNL     1      49.487  48.245 -17.287  1.00  0.00    -0.224 N 
ATOM     18  H4  UNL     1      48.719  48.713 -16.804  1.00  0.00     0.177 HD
BRANCH  17  19
HETATM   19  C7  UNL     1      50.432  47.560 -16.474  1.00  0.00     0.165 C 
BRANCH  19  20
HETATM   20  C8  UNL     1      50.256  46.060 -16.480  1.00  0.00     0.249 C 
BRANCH  20  21
HETATM   21  N5  UNL     1      49.205  45.613 -15.624  1.00  0.00    -0.078 N 
ATOM     22  H53 UNL     1      49.409  45.839 -14.651  1.00  0.00     0.274 HD
ATOM     23  H52 UNL     1      48.365  46.178 -15.755  1.00  0.00     0.274 HD
ATOM     24  H51 UNL     1      48.995  44.621 -15.730  1.00  0.00     0.274 HD
ENDBRANCH  20  21
ENDBRANCH  19  20
ENDBRANCH  17  19
ENDBRANCH   6  17
TORSDOF 8
ENDMDL
MODEL 5
REMARK VINA RESULT: -5.120485750      2.059      2.885
REMARK  8 active torsions:
REMARK  status: ('A' for Active; 'I' for Inactive)
REMARK    1  A    between atoms: N1_1  and  C1_5 
REMARK    2  A    between atoms: C1_5  and  C2_6 
REMARK    3  A    between atoms: C2_6  and  N2_7 
REMARK    4  A    between atoms: N2_7  and  C3_9 
REMARK    5  A    between atoms: C6_14  and  N4_15 
REMARK    6  A    between atoms: N4_15  and  C7_17 
REMARK    7  A    between atoms: C7_17  and  C8_18 
REMARK    8  A    between atoms: C8_18  and  N5_19 
ROOT
HETATM    1  C3  UNL     1      49.223  47.341 -18.575  1.00  0.00     0.118 A 
HETATM    2  C4  UNL     1      49.970  48.152 -17.737  1.00  0.00     0.066 A 
HETATM    3  C5  UNL     1      50.760  47.560 -16.774  1.00  0.00     0.110 A 
HETATM    4  N3  UNL     1      50.808  46.222 -16.647  1.00  0.00    -0.202 N 
ATOM      5  H3  UNL     1      51.396  45.801 -15.928  1.00  0.00     0.183 HD
HETATM    6  C6  UNL     1      50.091  45.444 -17.455  1.00  0.00     0.679 A 
HETATM    7  N6  UNL     1      49.317  46.020 -18.397  1.00  0.00    -0.177 N 
ATOM      8  H6  UNL     1      48.771  45.413 -19.008  1.00  0.00     0.185 HD
ENDROOT
BRANCH   1   9
HETATM    9  N2  UNL     1      48.459  47.845 -19.503  1.00  0.00    -0.374 N 
ATOM     10  H2  UNL     1      47.485  48.038 -19.271  1.00  0.00     0.161 HD
BRANCH   9  11
HETATM   11  C2  UNL     1      48.910  48.143 -20.829  1.00  0.00     0.148 C 
BRANCH  11  12
HETATM   12  C1  UNL     1      49.035  49.624 -21.104  1.00  0.00     0.249 C 
BRANCH  12  13
HETATM   13  N1  UNL     1      47.898  50.306 -20.522  1.00  0.00    -0.078 N 
ATOM     14  H13 UNL     1      47.973  50.390 -19.508  1.00  0.00     0.274 HD
ATOM     15  H12 UNL     1      47.884  51.301 -20.747  1.00  0.00     0.274 HD
ATOM     16  H11 UNL     1      47.043  49.830 -20.810  1.00  0.00     0.274 HD
ENDBRANCH  12  13
ENDBRANCH  11  12
ENDBRANCH   9  11
ENDBRANCH   1   9
BRANCH   6  17
HETATM   17  N4  UNL     1      50.146  44.162 -17.324  1.00  0.00    -0.224 N 
ATOM     18  H4  UNL     1      49.281  43.647 -17.490  1.00  0.00     0.177 HD
BRANCH  17  19
HETATM   19  C7  UNL     1      51.290  43.396 -16.970  1.00  0.00     0.165 C 
BRANCH  19  20
HETATM   20  C8  UNL     1      51.055  42.463 -15.807  1.00  0.00     0.249 C 
BRANCH  20  21
HETATM   21  N5  UNL     1      51.744  42.857 -14.620  1.00  0.00    -0.078 N 
ATOM     22  H53 UNL     1      52.069  43.821 -14.693  1.00  0.00     0.274 HD
ATOM     23  H52 UNL     1      51.095  42.956 -13.840  1.00  0.00     0.274 HD
ATOM     24  H51 UNL     1      52.513  42.234 -14.376  1.00  0.00     0.274 HD
ENDBRANCH  20  21
ENDBRANCH  19  20
ENDBRANCH  17  19
ENDBRANCH   6  17
TORSDOF 8
ENDMDL
