MODEL 1
REMARK VINA RESULT: -5.229479408      0.000      0.000
REMARK  6 active torsions:
REMARK  status: ('A' for Active; 'I' for Inactive)
REMARK    1  A    between atoms: N1_2  and  C2_5 
REMARK    2  A    between atoms: C2_5  and  C3_6 
REMARK    3  A    between atoms: C3_6  and  N2_7 
REMARK    4  A    between atoms: C3_6  and  C5_12 
REMARK    5  A    between atoms: C5_12  and  N5_13 
REMARK    6  A    between atoms: C5_12  and  C6_17 
ROOT
HETATM    1  C3  UNL     1      49.621  47.376 -19.692  1.00  0.00     0.140 C 
ENDROOT
BRANCH   1   2
HETATM    2  C2  UNL     1      48.285  47.646 -20.344  1.00  0.00     0.259 C 
BRANCH   2   3
HETATM    3  N1  UNL     1      47.933  49.058 -20.275  1.00  0.00    -0.077 N 
HETATM    4  C1  UNL     1      48.917  49.768 -21.074  1.00  0.00     0.267 C 
ATOM      5  H12 UNL     1      47.858  49.410 -19.321  1.00  0.00     0.276 HD
ATOM      6  H11 UNL     1      46.971  49.248 -20.557  1.00  0.00     0.276 HD
ENDBRANCH   2   3
ENDBRANCH   1   2
BRANCH   1   7
HETATM    7  N2  UNL     1      49.510  47.084 -18.300  1.00  0.00    -0.359 N 
HETATM    8  C4  UNL     1      49.615  47.952 -17.357  1.00  0.00     0.197 C 
HETATM    9  N3  UNL     1      49.478  47.480 -16.022  1.00  0.00    -0.067 NA
HETATM   10  N4  UNL     1      49.856  49.332 -17.548  1.00  0.00    -0.067 NA
ATOM     11  H2  UNL     1      49.335  46.115 -18.033  1.00  0.00     0.162 HD
ENDBRANCH   1   7
BRANCH   1  12
HETATM   12  C5  UNL     1      50.373  46.286 -20.400  1.00  0.00     0.211 C 
BRANCH  12  13
HETATM   13  N5  UNL     1      50.810  46.796 -21.705  1.00  0.00    -0.073 N 
ATOM     14  H53 UNL     1      50.029  46.998 -22.328  1.00  0.00     0.274 HD
ATOM     15  H52 UNL     1      51.193  47.740 -21.649  1.00  0.00     0.274 HD
ATOM     16  H51 UNL     1      51.470  46.129 -22.107  1.00  0.00     0.274 HD
ENDBRANCH  12  13
BRANCH  12  17
HETATM   17  C6  UNL     1      51.640  45.985 -19.625  1.00  0.00     0.018 A 
HETATM   18  C7  UNL     1      52.481  44.826 -20.134  1.00  0.00     0.007 A 
HETATM   19  C8  UNL     1      51.673  44.704 -18.897  1.00  0.00     0.007 A 
ENDBRANCH  12  17
ENDBRANCH   1  12
TORSDOF 6
ENDMDL
MODEL 2
REMARK VINA RESULT: -5.092594685      1.676      2.246
REMARK  6 active torsions:
REMARK  status: ('A' for Active; 'I' for Inactive)
REMARK    1  A    between atoms: N1_2  and  C2_5 
REMARK    2  A    between atoms: C2_5  and  C3_6 
REMARK    3  A    between atoms: C3_6  and  N2_7 
REMARK    4  A    between atoms: C3_6  and  C5_12 
REMARK    5  A    between atoms: C5_12  and  N5_13 
REMARK    6  A    between atoms: C5_12  and  C6_17 
ROOT
HETATM    1  C3  UNL     1      50.284  47.778 -19.972  1.00  0.00     0.140 C 
ENDROOT
BRANCH   1   2
HETATM    2  C2  UNL     1      48.866  47.503 -20.413  1.00  0.00     0.259 C 
BRANCH   2   3
HETATM    3  N1  UNL     1      48.006  48.658 -20.195  1.00  0.00    -0.077 N 
HETATM    4  C1  UNL     1      48.620  49.770 -20.900  1.00  0.00     0.267 C 
ATOM      5  H12 UNL     1      47.833  48.852 -19.209  1.00  0.00     0.276 HD
ATOM      6  H11 UNL     1      47.035  48.495 -20.465  1.00  0.00     0.276 HD
ENDBRANCH   2   3
ENDBRANCH   1   2
BRANCH   1   7
HETATM    7  N2  UNL     1      50.540  47.360 -18.632  1.00  0.00    -0.359 N 
HETATM    8  C4  UNL     1      50.331  48.079 -17.587  1.00  0.00     0.197 C 
HETATM    9  N3  UNL     1      50.645  47.499 -16.326  1.00  0.00    -0.067 NA
HETATM   10  N4  UNL     1      49.816  49.396 -17.597  1.00  0.00    -0.067 NA
ATOM     11  H2  UNL     1      50.916  46.422 -18.493  1.00  0.00     0.162 HD
ENDBRANCH   1   7
BRANCH   1  12
HETATM   12  C5  UNL     1      51.285  47.169 -20.912  1.00  0.00     0.211 C 
BRANCH  12  13
HETATM   13  N5  UNL     1      51.549  45.791 -20.481  1.00  0.00    -0.073 N 
ATOM     14  H53 UNL     1      50.701  45.302 -20.195  1.00  0.00     0.274 HD
ATOM     15  H52 UNL     1      51.808  45.181 -21.257  1.00  0.00     0.274 HD
ATOM     16  H51 UNL     1      52.256  45.812 -19.746  1.00  0.00     0.274 HD
ENDBRANCH  12  13
BRANCH  12  17
HETATM   17  C6  UNL     1      50.662  47.064 -22.289  1.00  0.00     0.018 A 
HETATM   18  C7  UNL     1      51.619  46.821 -23.444  1.00  0.00     0.007 A 
HETATM   19  C8  UNL     1      50.984  48.144 -23.238  1.00  0.00     0.007 A 
ENDBRANCH  12  17
ENDBRANCH   1  12
TORSDOF 6
ENDMDL
MODEL 3
REMARK VINA RESULT: -5.089844357      1.226      1.491
REMARK  6 active torsions:
REMARK  status: ('A' for Active; 'I' for Inactive)
REMARK    1  A    between atoms: N1_2  and  C2_5 
REMARK    2  A    between atoms: C2_5  and  C3_6 
REMARK    3  A    between atoms: C3_6  and  N2_7 
REMARK    4  A    between atoms: C3_6  and  C5_12 
REMARK    5  A    between atoms: C5_12  and  N5_13 
REMARK    6  A    between atoms: C5_12  and  C6_17 
ROOT
HETATM    1  C3  UNL     1      50.477  47.799 -18.979  1.00  0.00     0.140 C 
ENDROOT
BRANCH   1   2
HETATM    2  C2  UNL     1      50.511  48.965 -19.938  1.00  0.00     0.259 C 
BRANCH   2   3
HETATM    3  N1  UNL     1      49.543  49.990 -19.567  1.00  0.00    -0.077 N 
HETATM    4  C1  UNL     1      48.651  50.146 -20.703  1.00  0.00     0.267 C 
ATOM      5  H12 UNL     1      49.975  50.865 -19.271  1.00  0.00     0.276 HD
ATOM      6  H11 UNL     1      49.055  49.787 -18.695  1.00  0.00     0.276 HD
ENDBRANCH   2   3
ENDBRANCH   1   2
BRANCH   1   7
HETATM    7  N2  UNL     1      49.558  47.990 -17.904  1.00  0.00    -0.359 N 
HETATM    8  C4  UNL     1      49.823  47.777 -16.664  1.00  0.00     0.197 C 
HETATM    9  N3  UNL     1      48.782  48.022 -15.726  1.00  0.00    -0.067 NA
HETATM   10  N4  UNL     1      51.065  47.320 -16.167  1.00  0.00    -0.067 NA
ATOM     11  H2  UNL     1      48.621  48.321 -18.137  1.00  0.00     0.162 HD
ENDBRANCH   1   7
BRANCH   1  12
HETATM   12  C5  UNL     1      50.195  46.506 -19.687  1.00  0.00     0.211 C 
BRANCH  12  13
HETATM   13  N5  UNL     1      49.638  46.813 -21.010  1.00  0.00    -0.073 N 
ATOM     14  H53 UNL     1      48.706  47.222 -20.957  1.00  0.00     0.274 HD
ATOM     15  H52 UNL     1      50.110  47.596 -21.462  1.00  0.00     0.274 HD
ATOM     16  H51 UNL     1      49.661  45.963 -21.575  1.00  0.00     0.274 HD
ENDBRANCH  12  13
BRANCH  12  17
HETATM   17  C6  UNL     1      51.506  45.792 -19.943  1.00  0.00     0.018 A 
HETATM   18  C7  UNL     1      51.821  44.615 -19.035  1.00  0.00     0.007 A 
HETATM   19  C8  UNL     1      52.531  45.908 -18.890  1.00  0.00     0.007 A 
ENDBRANCH  12  17
ENDBRANCH   1  12
TORSDOF 6
ENDMDL
MODEL 4
REMARK VINA RESULT: -5.045978953      1.980      3.616
REMARK  6 active torsions:
REMARK  status: ('A' for Active; 'I' for Inactive)
REMARK    1  A    between atoms: N1_2  and  C2_5 
REMARK    2  A    between atoms: C2_5  and  C3_6 
REMARK    3  A    between atoms: C3_6  and  N2_7 
REMARK    4  A    between atoms: C3_6  and  C5_12 
REMARK    5  A    between atoms: C5_12  and  N5_13 
REMARK    6  A    between atoms: C5_12  and  C6_17 
ROOT
HETATM    1  C3  UNL     1      49.976  48.108 -19.774  1.00  0.00     0.140 C 
ENDROOT
BRANCH   1   2
HETATM    2  C2  UNL     1      49.855  47.097 -18.659  1.00  0.00     0.259 C 
BRANCH   2   3
HETATM    3  N1  UNL     1      49.280  47.691 -17.460  1.00  0.00    -0.077 N 
HETATM    4  C1  UNL     1      50.217  47.434 -16.381  1.00  0.00     0.267 C 
ATOM      5  H12 UNL     1      48.335  47.363 -17.260  1.00  0.00     0.276 HD
ATOM      6  H11 UNL     1      49.050  48.679 -17.569  1.00  0.00     0.276 HD
ENDBRANCH   2   3
ENDBRANCH   1   2
BRANCH   1   7
HETATM    7  N2  UNL     1      49.594  49.423 -19.376  1.00  0.00    -0.359 N 
HETATM    8  C4  UNL     1      48.963  50.262 -20.119  1.00  0.00     0.197 C 
HETATM    9  N3  UNL     1      48.664  51.533 -19.554  1.00  0.00    -0.067 NA
HETATM   10  N4  UNL     1      48.548  50.017 -21.448  1.00  0.00    -0.067 NA
ATOM     11  H2  UNL     1      49.839  49.720 -18.431  1.00  0.00     0.162 HD
ENDBRANCH   1   7
BRANCH   1  12
HETATM   12  C5  UNL     1      51.355  48.119 -20.367  1.00  0.00     0.211 C 
BRANCH  12  13
HETATM   13  N5  UNL     1      52.296  47.611 -19.362  1.00  0.00    -0.073 N 
ATOM     14  H53 UNL     1      51.931  46.805 -18.855  1.00  0.00     0.274 HD
ATOM     15  H52 UNL     1      53.109  47.158 -19.779  1.00  0.00     0.274 HD
ATOM     16  H51 UNL     1      52.552  48.380 -18.742  1.00  0.00     0.274 HD
ENDBRANCH  12  13
BRANCH  12  17
HETATM   17  C6  UNL     1      51.401  47.132 -21.516  1.00  0.00     0.018 A 
HETATM   18  C7  UNL     1      51.933  47.662 -22.838  1.00  0.00     0.007 A 
HETATM   19  C8  UNL     1      50.488  47.395 -22.642  1.00  0.00     0.007 A 
ENDBRANCH  12  17
ENDBRANCH   1  12
TORSDOF 6
ENDMDL
MODEL 5
REMARK VINA RESULT: -4.906900640      1.697      3.559
REMARK  6 active torsions:
REMARK  status: ('A' for Active; 'I' for Inactive)
REMARK    1  A    between atoms: N1_2  and  C2_5 
REMARK    2  A    between atoms: C2_5  and  C3_6 
REMARK    3  A    between atoms: C3_6  and  N2_7 
REMARK    4  A    between atoms: C3_6  and  C5_12 
REMARK    5  A    between atoms: C5_12  and  N5_13 
REMARK    6  A    between atoms: C5_12  and  C6_17 
ROOT
HETATM    1  C3  UNL     1      50.532  47.656 -18.328  1.00  0.00     0.140 C 
ENDROOT
BRANCH   1   2
HETATM    2  C2  UNL     1      50.668  47.677 -16.825  1.00  0.00     0.259 C 
BRANCH   2   3
HETATM    3  N1  UNL     1      49.485  47.129 -16.174  1.00  0.00    -0.077 N 
HETATM    4  C1  UNL     1      49.666  45.689 -16.131  1.00  0.00     0.267 C 
ATOM      5  H12 UNL     1      48.612  47.412 -16.619  1.00  0.00     0.276 HD
ATOM      6  H11 UNL     1      49.301  47.541 -15.259  1.00  0.00     0.276 HD
ENDBRANCH   2   3
ENDBRANCH   1   2
BRANCH   1   7
HETATM    7  N2  UNL     1      50.255  48.942 -18.879  1.00  0.00    -0.359 N 
HETATM    8  C4  UNL     1      49.199  49.242 -19.549  1.00  0.00     0.197 C 
HETATM    9  N3  UNL     1      49.090  50.579 -20.024  1.00  0.00    -0.067 NA
HETATM   10  N4  UNL     1      48.146  48.348 -19.848  1.00  0.00    -0.067 NA
ATOM     11  H2  UNL     1      50.945  49.679 -18.730  1.00  0.00     0.162 HD
ENDBRANCH   1   7
BRANCH   1  12
HETATM   12  C5  UNL     1      51.740  47.052 -18.987  1.00  0.00     0.211 C 
BRANCH  12  13
HETATM   13  N5  UNL     1      52.514  46.335 -17.967  1.00  0.00    -0.073 N 
ATOM     14  H53 UNL     1      52.229  46.575 -17.018  1.00  0.00     0.274 HD
ATOM     15  H52 UNL     1      52.292  45.340 -17.933  1.00  0.00     0.274 HD
ATOM     16  H51 UNL     1      53.506  46.509 -18.134  1.00  0.00     0.274 HD
ENDBRANCH  12  13
BRANCH  12  17
HETATM   17  C6  UNL     1      51.282  46.001 -19.977  1.00  0.00     0.018 A 
HETATM   18  C7  UNL     1      52.207  45.735 -21.153  1.00  0.00     0.007 A 
HETATM   19  C8  UNL     1      50.937  46.480 -21.327  1.00  0.00     0.007 A 
ENDBRANCH  12  17
ENDBRANCH   1  12
TORSDOF 6
ENDMDL
