MODEL 1
REMARK VINA RESULT: -5.919992083      0.000      0.000
REMARK  8 active torsions:
REMARK  status: ('A' for Active; 'I' for Inactive)
REMARK       I    between atoms: C2_4  and  N2_5 
REMARK       I    between atoms: C2_4  and  N7_24 
REMARK    1  A    between atoms: N2_5  and  N3_7 
REMARK    2  A    between atoms: N3_7  and  C3_9 
REMARK    3  A    between atoms: C3_9  and  N4_11 
REMARK    4  A    between atoms: N4_11  and  C4_13 
REMARK    5  A    between atoms: C4_13  and  C5_14 
REMARK    6  A    between atoms: C5_14  and  N5_16 
REMARK    7  A    between atoms: C6_18  and  C7_19 
REMARK    8  A    between atoms: C7_19  and  N6_20 
ROOT
HETATM    1  C3  UNL     1      -1.985   5.022  13.473  1.00  0.00     0.187 C 
HETATM    2  S1  UNL     1      -2.697   6.418  12.962  1.00  0.00    -0.040 SA
ENDROOT
BRANCH   1   3
HETATM    3  N3  UNL     1      -0.858   4.487  12.806  1.00  0.00    -0.262 N 
ATOM      4  H3  UNL     1      -0.039   5.066  12.623  1.00  0.00     0.190 HD
BRANCH   3   5
HETATM    5  N2  UNL     1      -0.890   3.155  12.403  1.00  0.00    -0.130 N 
HETATM    6  C2  UNL     1      -1.866   2.628  11.492  1.00  0.00     0.690 C 
HETATM    7  N1  UNL     1      -2.544   1.629  11.916  1.00  0.00    -0.229 N 
HETATM    8  N7  UNL     1      -2.020   3.227  10.216  1.00  0.00    -0.217 N 
HETATM    9  C1  UNL     1      -3.566   0.937  11.194  1.00  0.00     0.165 C 
ATOM     10  H1  UNL     1      -2.335   1.294  12.857  1.00  0.00     0.177 HD
HETATM   11  C8  UNL     1      -3.241   3.943   9.941  1.00  0.00     0.141 C 
HETATM   12  C12 UNL     1      -0.972   3.099   9.261  1.00  0.00     0.141 C 
HETATM   13  C9  UNL     1      -2.863   5.259   9.279  1.00  0.00     0.020 C 
HETATM   14  C10 UNL     1      -2.174   4.904   7.982  1.00  0.00     0.003 C 
HETATM   15  C11 UNL     1      -0.904   4.160   8.222  1.00  0.00     0.020 C 
ATOM     16  H2  UNL     1      -0.183   2.521  12.776  1.00  0.00     0.205 HD
ENDBRANCH   3   5
ENDBRANCH   1   3
BRANCH   1  17
HETATM   17  N4  UNL     1      -2.505   4.316  14.591  1.00  0.00    -0.360 N 
ATOM     18  H4  UNL     1      -1.961   3.550  14.986  1.00  0.00     0.162 HD
BRANCH  17  19
HETATM   19  C4  UNL     1      -3.778   4.648  15.184  1.00  0.00     0.191 C 
BRANCH  19  20
HETATM   20  C5  UNL     1      -4.763   3.619  14.798  1.00  0.00     0.095 C 
HETATM   21  S2  UNL     1      -6.151   4.052  14.085  1.00  0.00    -0.064 SA
BRANCH  20  22
HETATM   22  N5  UNL     1      -4.486   2.274  15.073  1.00  0.00    -0.361 N 
HETATM   23  C6  UNL     1      -4.828   1.546  16.039  1.00  0.00     0.088 C 
ATOM     24  H5  UNL     1      -3.910   1.806  14.372  1.00  0.00     0.165 HD
BRANCH  23  25
HETATM   25  C7  UNL     1      -5.654   1.937  17.196  1.00  0.00     0.274 C 
BRANCH  25  26
HETATM   26  N6  UNL     1      -6.928   1.235  17.181  1.00  0.00    -0.075 N 
ATOM     27  H63 UNL     1      -7.709   1.873  17.025  1.00  0.00     0.274 HD
ATOM     28  H62 UNL     1      -7.032   0.659  16.346  1.00  0.00     0.274 HD
ATOM     29  H61 UNL     1      -7.051   0.690  18.034  1.00  0.00     0.274 HD
ENDBRANCH  25  26
ENDBRANCH  23  25
ENDBRANCH  20  22
ENDBRANCH  19  20
ENDBRANCH  17  19
ENDBRANCH   1  17
TORSDOF 8
ENDMDL
MODEL 2
REMARK VINA RESULT: -5.919512999      2.126      3.614
REMARK  8 active torsions:
REMARK  status: ('A' for Active; 'I' for Inactive)
REMARK       I    between atoms: C2_4  and  N2_5 
REMARK       I    between atoms: C2_4  and  N7_24 
REMARK    1  A    between atoms: N2_5  and  N3_7 
REMARK    2  A    between atoms: N3_7  and  C3_9 
REMARK    3  A    between atoms: C3_9  and  N4_11 
REMARK    4  A    between atoms: N4_11  and  C4_13 
REMARK    5  A    between atoms: C4_13  and  C5_14 
REMARK    6  A    between atoms: C5_14  and  N5_16 
REMARK    7  A    between atoms: C6_18  and  C7_19 
REMARK    8  A    between atoms: C7_19  and  N6_20 
ROOT
HETATM    1  C3  UNL     1      -3.681   1.553  12.100  1.00  0.00     0.187 C 
HETATM    2  S1  UNL     1      -4.169   0.115  11.458  1.00  0.00    -0.040 SA
ENDROOT
BRANCH   1   3
HETATM    3  N3  UNL     1      -2.753   2.379  11.424  1.00  0.00    -0.262 N 
ATOM      4  H3  UNL     1      -3.005   2.838  10.549  1.00  0.00     0.190 HD
BRANCH   3   5
HETATM    5  N2  UNL     1      -1.487   2.552  11.977  1.00  0.00    -0.130 N 
HETATM    6  C2  UNL     1      -0.754   3.785  11.903  1.00  0.00     0.690 C 
HETATM    7  N1  UNL     1       0.414   3.710  11.388  1.00  0.00    -0.229 N 
HETATM    8  N7  UNL     1      -1.350   4.977  12.387  1.00  0.00    -0.217 N 
HETATM    9  C1  UNL     1       1.327   4.797  11.209  1.00  0.00     0.165 C 
ATOM     10  H1  UNL     1       0.724   2.790  11.077  1.00  0.00     0.177 HD
HETATM   11  C8  UNL     1      -1.710   5.997  11.433  1.00  0.00     0.141 C 
HETATM   12  C12 UNL     1      -1.570   5.123  13.786  1.00  0.00     0.141 C 
HETATM   13  C9  UNL     1      -3.110   6.478  11.779  1.00  0.00     0.020 C 
HETATM   14  C10 UNL     1      -3.029   7.077  13.163  1.00  0.00     0.003 C 
HETATM   15  C11 UNL     1      -2.658   6.053  14.182  1.00  0.00     0.020 C 
ATOM     16  H2  UNL     1      -1.058   1.763  12.460  1.00  0.00     0.205 HD
ENDBRANCH   3   5
ENDBRANCH   1   3
BRANCH   1  17
HETATM   17  N4  UNL     1      -4.174   1.983  13.360  1.00  0.00    -0.360 N 
ATOM     18  H4  UNL     1      -3.912   1.462  14.196  1.00  0.00     0.162 HD
BRANCH  17  19
HETATM   19  C4  UNL     1      -5.035   3.134  13.497  1.00  0.00     0.191 C 
BRANCH  19  20
HETATM   20  C5  UNL     1      -5.059   3.541  14.915  1.00  0.00     0.095 C 
HETATM   21  S2  UNL     1      -5.982   4.786  15.385  1.00  0.00    -0.064 SA
BRANCH  20  22
HETATM   22  N5  UNL     1      -4.263   2.849  15.836  1.00  0.00    -0.361 N 
HETATM   23  C6  UNL     1      -4.570   2.004  16.714  1.00  0.00     0.088 C 
ATOM     24  H5  UNL     1      -3.267   3.067  15.786  1.00  0.00     0.165 HD
BRANCH  23  25
HETATM   25  C7  UNL     1      -5.917   1.492  17.022  1.00  0.00     0.274 C 
BRANCH  25  26
HETATM   26  N6  UNL     1      -5.845   0.145  17.567  1.00  0.00    -0.075 N 
ATOM     27  H63 UNL     1      -6.360  -0.523  16.993  1.00  0.00     0.274 HD
ATOM     28  H62 UNL     1      -4.912  -0.254  17.466  1.00  0.00     0.274 HD
ATOM     29  H61 UNL     1      -6.160   0.130  18.537  1.00  0.00     0.274 HD
ENDBRANCH  25  26
ENDBRANCH  23  25
ENDBRANCH  20  22
ENDBRANCH  19  20
ENDBRANCH  17  19
ENDBRANCH   1  17
TORSDOF 8
ENDMDL
MODEL 3
REMARK VINA RESULT: -5.907174809      2.505      6.153
REMARK  8 active torsions:
REMARK  status: ('A' for Active; 'I' for Inactive)
REMARK       I    between atoms: C2_4  and  N2_5 
REMARK       I    between atoms: C2_4  and  N7_24 
REMARK    1  A    between atoms: N2_5  and  N3_7 
REMARK    2  A    between atoms: N3_7  and  C3_9 
REMARK    3  A    between atoms: C3_9  and  N4_11 
REMARK    4  A    between atoms: N4_11  and  C4_13 
REMARK    5  A    between atoms: C4_13  and  C5_14 
REMARK    6  A    between atoms: C5_14  and  N5_16 
REMARK    7  A    between atoms: C6_18  and  C7_19 
REMARK    8  A    between atoms: C7_19  and  N6_20 
ROOT
HETATM    1  C3  UNL     1      -2.761   1.217  11.328  1.00  0.00     0.187 C 
HETATM    2  S1  UNL     1      -3.664   0.073  10.559  1.00  0.00    -0.040 SA
ENDROOT
BRANCH   1   3
HETATM    3  N3  UNL     1      -3.293   1.973  12.398  1.00  0.00    -0.262 N 
ATOM      4  H3  UNL     1      -2.925   2.900  12.615  1.00  0.00     0.190 HD
BRANCH   3   5
HETATM    5  N2  UNL     1      -4.330   1.428  13.152  1.00  0.00    -0.130 N 
HETATM    6  C2  UNL     1      -4.647   1.856  14.485  1.00  0.00     0.690 C 
HETATM    7  N1  UNL     1      -4.657   0.940  15.378  1.00  0.00    -0.229 N 
HETATM    8  N7  UNL     1      -4.922   3.225  14.728  1.00  0.00    -0.217 N 
HETATM    9  C1  UNL     1      -4.943   1.121  16.767  1.00  0.00     0.165 C 
ATOM     10  H1  UNL     1      -4.440  -0.008  15.070  1.00  0.00     0.177 HD
HETATM   11  C8  UNL     1      -3.975   3.983  15.509  1.00  0.00     0.141 C 
HETATM   12  C12 UNL     1      -6.112   3.798  14.197  1.00  0.00     0.141 C 
HETATM   13  C9  UNL     1      -3.743   5.305  14.796  1.00  0.00     0.020 C 
HETATM   14  C10 UNL     1      -5.075   6.019  14.772  1.00  0.00     0.003 C 
HETATM   15  C11 UNL     1      -6.085   5.267  13.973  1.00  0.00     0.020 C 
ATOM     16  H2  UNL     1      -4.892   0.686  12.734  1.00  0.00     0.205 HD
ENDBRANCH   3   5
ENDBRANCH   1   3
BRANCH   1  17
HETATM   17  N4  UNL     1      -1.428   1.479  10.915  1.00  0.00    -0.360 N 
ATOM     18  H4  UNL     1      -0.672   0.914  11.301  1.00  0.00     0.162 HD
BRANCH  17  19
HETATM   19  C4  UNL     1      -1.107   2.519   9.966  1.00  0.00     0.191 C 
BRANCH  19  20
HETATM   20  C5  UNL     1      -0.100   3.414  10.567  1.00  0.00     0.095 C 
HETATM   21  S2  UNL     1       1.215   3.836   9.723  1.00  0.00    -0.064 SA
BRANCH  20  22
HETATM   22  N5  UNL     1      -0.291   3.874  11.876  1.00  0.00    -0.361 N 
HETATM   23  C6  UNL     1      -0.947   4.852  12.315  1.00  0.00     0.088 C 
ATOM     24  H5  UNL     1       0.180   3.323  12.594  1.00  0.00     0.165 HD
BRANCH  23  25
HETATM   25  C7  UNL     1      -1.728   5.823  11.527  1.00  0.00     0.274 C 
BRANCH  25  26
HETATM   26  N6  UNL     1      -3.085   5.343  11.316  1.00  0.00    -0.075 N 
ATOM     27  H63 UNL     1      -3.754   5.825  11.916  1.00  0.00     0.274 HD
ATOM     28  H62 UNL     1      -3.452   5.636  10.411  1.00  0.00     0.274 HD
ATOM     29  H61 UNL     1      -3.133   4.331  11.434  1.00  0.00     0.274 HD
ENDBRANCH  25  26
ENDBRANCH  23  25
ENDBRANCH  20  22
ENDBRANCH  19  20
ENDBRANCH  17  19
ENDBRANCH   1  17
TORSDOF 8
ENDMDL
MODEL 4
REMARK VINA RESULT: -5.886934675      2.182      6.084
REMARK  8 active torsions:
REMARK  status: ('A' for Active; 'I' for Inactive)
REMARK       I    between atoms: C2_4  and  N2_5 
REMARK       I    between atoms: C2_4  and  N7_24 
REMARK    1  A    between atoms: N2_5  and  N3_7 
REMARK    2  A    between atoms: N3_7  and  C3_9 
REMARK    3  A    between atoms: C3_9  and  N4_11 
REMARK    4  A    between atoms: N4_11  and  C4_13 
REMARK    5  A    between atoms: C4_13  and  C5_14 
REMARK    6  A    between atoms: C5_14  and  N5_16 
REMARK    7  A    between atoms: C6_18  and  C7_19 
REMARK    8  A    between atoms: C7_19  and  N6_20 
ROOT
HETATM    1  C3  UNL     1      -2.513   1.408  11.358  1.00  0.00     0.187 C 
HETATM    2  S1  UNL     1      -3.094  -0.006  10.742  1.00  0.00    -0.040 SA
ENDROOT
BRANCH   1   3
HETATM    3  N3  UNL     1      -3.237   2.136  12.331  1.00  0.00    -0.262 N 
ATOM      4  H3  UNL     1      -3.023   3.117  12.513  1.00  0.00     0.190 HD
BRANCH   3   5
HETATM    5  N2  UNL     1      -4.249   1.488  13.035  1.00  0.00    -0.130 N 
HETATM    6  C2  UNL     1      -4.616   1.827  14.381  1.00  0.00     0.690 C 
HETATM    7  N1  UNL     1      -4.582   0.869  15.227  1.00  0.00    -0.229 N 
HETATM    8  N7  UNL     1      -4.984   3.162  14.685  1.00  0.00    -0.217 N 
HETATM    9  C1  UNL     1      -4.903   0.961  16.618  1.00  0.00     0.165 C 
ATOM     10  H1  UNL     1      -4.298  -0.047  14.878  1.00  0.00     0.177 HD
HETATM   11  C8  UNL     1      -4.103   3.939  15.521  1.00  0.00     0.141 C 
HETATM   12  C12 UNL     1      -6.199   3.683  14.159  1.00  0.00     0.141 C 
HETATM   13  C9  UNL     1      -3.946   5.308  14.879  1.00  0.00     0.020 C 
HETATM   14  C10 UNL     1      -5.320   5.934  14.862  1.00  0.00     0.003 C 
HETATM   15  C11 UNL     1      -6.265   5.160  14.006  1.00  0.00     0.020 C 
ATOM     16  H2  UNL     1      -4.754   0.733  12.570  1.00  0.00     0.205 HD
ENDBRANCH   3   5
ENDBRANCH   1   3
BRANCH   1  17
HETATM   17  N4  UNL     1      -1.273   1.934  10.907  1.00  0.00    -0.360 N 
ATOM     18  H4  UNL     1      -0.462   1.880  11.522  1.00  0.00     0.162 HD
BRANCH  17  19
HETATM   19  C4  UNL     1      -1.124   2.542   9.606  1.00  0.00     0.191 C 
BRANCH  19  20
HETATM   20  C5  UNL     1      -1.338   3.996   9.737  1.00  0.00     0.095 C 
HETATM   21  S2  UNL     1      -2.751   4.650   9.292  1.00  0.00    -0.064 SA
BRANCH  20  22
HETATM   22  N5  UNL     1      -0.300   4.796  10.231  1.00  0.00    -0.361 N 
HETATM   23  C6  UNL     1      -0.175   5.391  11.331  1.00  0.00     0.088 C 
ATOM     24  H5  UNL     1       0.486   4.916   9.591  1.00  0.00     0.165 HD
BRANCH  23  25
HETATM   25  C7  UNL     1      -1.136   5.404  12.448  1.00  0.00     0.274 C 
BRANCH  25  26
HETATM   26  N6  UNL     1      -0.844   4.336  13.393  1.00  0.00    -0.075 N 
ATOM     27  H63 UNL     1      -0.094   3.731  13.058  1.00  0.00     0.274 HD
ATOM     28  H62 UNL     1      -0.391   4.691  14.235  1.00  0.00     0.274 HD
ATOM     29  H61 UNL     1      -1.687   3.806  13.612  1.00  0.00     0.274 HD
ENDBRANCH  25  26
ENDBRANCH  23  25
ENDBRANCH  20  22
ENDBRANCH  19  20
ENDBRANCH  17  19
ENDBRANCH   1  17
TORSDOF 8
ENDMDL
MODEL 5
REMARK VINA RESULT: -5.878612197      1.647      2.721
REMARK  8 active torsions:
REMARK  status: ('A' for Active; 'I' for Inactive)
REMARK       I    between atoms: C2_4  and  N2_5 
REMARK       I    between atoms: C2_4  and  N7_24 
REMARK    1  A    between atoms: N2_5  and  N3_7 
REMARK    2  A    between atoms: N3_7  and  C3_9 
REMARK    3  A    between atoms: C3_9  and  N4_11 
REMARK    4  A    between atoms: N4_11  and  C4_13 
REMARK    5  A    between atoms: C4_13  and  C5_14 
REMARK    6  A    between atoms: C5_14  and  N5_16 
REMARK    7  A    between atoms: C6_18  and  C7_19 
REMARK    8  A    between atoms: C7_19  and  N6_20 
ROOT
HETATM    1  C3  UNL     1      -2.671   4.921  14.438  1.00  0.00     0.187 C 
HETATM    2  S1  UNL     1      -3.244   6.459  14.589  1.00  0.00    -0.040 SA
ENDROOT
BRANCH   1   3
HETATM    3  N3  UNL     1      -1.302   4.671  14.182  1.00  0.00    -0.262 N 
ATOM      4  H3  UNL     1      -0.742   4.124  14.836  1.00  0.00     0.190 HD
BRANCH   3   5
HETATM    5  N2  UNL     1      -0.734   5.186  13.020  1.00  0.00    -0.130 N 
HETATM    6  C2  UNL     1      -0.493   4.401  11.842  1.00  0.00     0.690 C 
HETATM    7  N1  UNL     1       0.711   4.396  11.411  1.00  0.00    -0.229 N 
HETATM    8  N7  UNL     1      -1.570   3.697  11.245  1.00  0.00    -0.217 N 
HETATM    9  C1  UNL     1       1.192   3.692  10.263  1.00  0.00     0.165 C 
ATOM     10  H1  UNL     1       1.392   4.945  11.936  1.00  0.00     0.177 HD
HETATM   11  C8  UNL     1      -1.559   2.256  11.304  1.00  0.00     0.141 C 
HETATM   12  C12 UNL     1      -2.612   4.432  10.613  1.00  0.00     0.141 C 
HETATM   13  C9  UNL     1      -2.952   1.802  11.711  1.00  0.00     0.020 C 
HETATM   14  C10 UNL     1      -3.890   2.264  10.620  1.00  0.00     0.003 C 
HETATM   15  C11 UNL     1      -3.930   3.751  10.526  1.00  0.00     0.020 C 
ATOM     16  H2  UNL     1      -0.476   6.173  13.005  1.00  0.00     0.205 HD
ENDBRANCH   3   5
ENDBRANCH   1   3
BRANCH   1  17
HETATM   17  N4  UNL     1      -3.551   3.811  14.544  1.00  0.00    -0.360 N 
ATOM     18  H4  UNL     1      -3.768   3.272  13.706  1.00  0.00     0.162 HD
BRANCH  17  19
HETATM   19  C4  UNL     1      -4.147   3.420  15.800  1.00  0.00     0.191 C 
BRANCH  19  20
HETATM   20  C5  UNL     1      -5.609   3.599  15.705  1.00  0.00     0.095 C 
HETATM   21  S2  UNL     1      -6.296   3.914  14.274  1.00  0.00    -0.064 SA
BRANCH  20  22
HETATM   22  N5  UNL     1      -6.382   3.509  16.869  1.00  0.00    -0.361 N 
HETATM   23  C6  UNL     1      -6.910   2.515  17.429  1.00  0.00     0.088 C 
ATOM     24  H5  UNL     1      -6.544   4.399  17.342  1.00  0.00     0.165 HD
BRANCH  23  25
HETATM   25  C7  UNL     1      -6.851   1.111  16.986  1.00  0.00     0.274 C 
BRANCH  25  26
HETATM   26  N6  UNL     1      -5.725   0.423  17.600  1.00  0.00    -0.075 N 
ATOM     27  H63 UNL     1      -5.030   1.079  17.954  1.00  0.00     0.274 HD
ATOM     28  H62 UNL     1      -5.987  -0.015  18.483  1.00  0.00     0.274 HD
ATOM     29  H61 UNL     1      -5.315  -0.249  16.952  1.00  0.00     0.274 HD
ENDBRANCH  25  26
ENDBRANCH  23  25
ENDBRANCH  20  22
ENDBRANCH  19  20
ENDBRANCH  17  19
ENDBRANCH   1  17
TORSDOF 8
ENDMDL
