MODEL 1
REMARK VINA RESULT: -6.730343152      0.000      0.000
REMARK  5 active torsions:
REMARK  status: ('A' for Active; 'I' for Inactive)
REMARK       I    between atoms: C2_2  and  N1_4 
REMARK    1  A    between atoms: N1_4  and  C3_6 
REMARK    2  A    between atoms: C3_6  and  C4_7 
REMARK       I    between atoms: C4_7  and  N2_9 
REMARK    3  A    between atoms: N2_9  and  C5_11 
REMARK    4  A    between atoms: C8_14  and  O3_15 
REMARK       I    between atoms: N3_20  and  C12_21 
REMARK       I    between atoms: C12_21  and  N5_25 
REMARK    5  A    between atoms: N5_25  and  C13_27 
ROOT
HETATM    1  C5  UNL     1      -3.546   3.173  12.073  1.00  0.00     0.092 C 
HETATM    2  C6  UNL     1      -3.794   2.574  10.722  1.00  0.00     0.054 C 
HETATM    3  C7  UNL     1      -2.563   2.793   9.835  1.00  0.00     0.132 C 
HETATM    4  C8  UNL     1      -1.352   2.118  10.451  1.00  0.00     0.142 C 
HETATM    5  C9  UNL     1      -1.076   2.813  11.746  1.00  0.00     0.042 C 
HETATM    6  C10 UNL     1      -2.173   3.759  12.160  1.00  0.00     0.029 C 
HETATM    7  C11 UNL     1      -2.139   4.887  11.112  1.00  0.00     0.148 C 
HETATM    8  N3  UNL     1      -2.314   4.221   9.837  1.00  0.00    -0.211 N 
HETATM    9  C12 UNL     1      -2.256   4.880   8.580  1.00  0.00     0.670 C 
HETATM   10  N4  UNL     1      -3.096   5.839   8.381  1.00  0.00    -0.235 N 
ATOM     11  H41 UNL     1      -3.056   6.313   7.478  1.00  0.00     0.174 HD
ATOM     12  H42 UNL     1      -3.782   6.131   9.077  1.00  0.00     0.174 HD
HETATM   13  N5  UNL     1      -1.309   4.477   7.618  1.00  0.00    -0.218 N 
ATOM     14  H5  UNL     1      -0.956   3.522   7.662  1.00  0.00     0.178 HD
ENDROOT
BRANCH   1  15
HETATM   15  N2  UNL     1      -3.884   2.301  13.164  1.00  0.00    -0.355 N 
HETATM   16  C4  UNL     1      -4.697   2.693  14.260  1.00  0.00     0.235 C 
HETATM   17  O2  UNL     1      -5.156   3.879  14.289  1.00  0.00    -0.272 OA
ATOM     18  H2  UNL     1      -3.520   1.348  13.149  1.00  0.00     0.162 HD
BRANCH  16  19
HETATM   19  C3  UNL     1      -5.053   1.820  15.380  1.00  0.00     0.225 C 
BRANCH  19  20
HETATM   20  N1  UNL     1      -5.562   2.518  16.519  1.00  0.00    -0.353 N 
HETATM   21  C2  UNL     1      -5.710   1.823  17.745  1.00  0.00     0.213 C 
HETATM   22  C1  UNL     1      -6.229   2.458  18.975  1.00  0.00     0.117 C 
HETATM   23  O1  UNL     1      -5.390   0.614  17.803  1.00  0.00    -0.274 OA
ATOM     24  H1  UNL     1      -5.816   3.504  16.449  1.00  0.00     0.162 HD
ENDBRANCH  19  20
ENDBRANCH  16  19
ENDBRANCH   1  15
BRANCH   4  25
HETATM   25  O3  UNL     1      -1.591   0.756  10.600  1.00  0.00    -0.393 OA
ATOM     26  H3  UNL     1      -1.734   0.356   9.750  1.00  0.00     0.210 HD
ENDBRANCH   4  25
BRANCH  13  27
HETATM   27  C13 UNL     1      -0.809   5.337   6.577  1.00  0.00     0.036 C 
HETATM   28  C14 UNL     1       0.323   4.661   5.837  1.00  0.00     0.038 C 
HETATM   29  C15 UNL     1      -1.882   5.624   5.532  1.00  0.00     0.038 C 
HETATM   30  C16 UNL     1      -0.332   6.656   7.185  1.00  0.00     0.038 C 
ENDBRANCH  13  27
TORSDOF 5
ENDMDL
MODEL 2
REMARK VINA RESULT: -6.496758558      1.994      2.614
REMARK  5 active torsions:
REMARK  status: ('A' for Active; 'I' for Inactive)
REMARK       I    between atoms: C2_2  and  N1_4 
REMARK    1  A    between atoms: N1_4  and  C3_6 
REMARK    2  A    between atoms: C3_6  and  C4_7 
REMARK       I    between atoms: C4_7  and  N2_9 
REMARK    3  A    between atoms: N2_9  and  C5_11 
REMARK    4  A    between atoms: C8_14  and  O3_15 
REMARK       I    between atoms: N3_20  and  C12_21 
REMARK       I    between atoms: C12_21  and  N5_25 
REMARK    5  A    between atoms: N5_25  and  C13_27 
ROOT
HETATM    1  C5  UNL     1      -3.245   3.440  12.823  1.00  0.00     0.092 C 
HETATM    2  C6  UNL     1      -2.982   4.844  12.369  1.00  0.00     0.054 C 
HETATM    3  C7  UNL     1      -2.406   4.820  10.949  1.00  0.00     0.132 C 
HETATM    4  C8  UNL     1      -3.398   4.180   9.996  1.00  0.00     0.142 C 
HETATM    5  C9  UNL     1      -3.552   2.754  10.419  1.00  0.00     0.042 C 
HETATM    6  C10 UNL     1      -2.909   2.454  11.749  1.00  0.00     0.029 C 
HETATM    7  C11 UNL     1      -1.398   2.613  11.502  1.00  0.00     0.148 C 
HETATM    8  N3  UNL     1      -1.237   3.964  11.002  1.00  0.00    -0.211 N 
HETATM    9  C12 UNL     1      -0.003   4.507  10.558  1.00  0.00     0.670 C 
HETATM   10  N4  UNL     1       0.968   4.531  11.407  1.00  0.00    -0.235 N 
ATOM     11  H41 UNL     1       1.855   4.921  11.088  1.00  0.00     0.174 HD
ATOM     12  H42 UNL     1       0.880   4.182  12.361  1.00  0.00     0.174 HD
HETATM   13  N5  UNL     1       0.119   4.989   9.239  1.00  0.00    -0.218 N 
ATOM     14  H5  UNL     1      -0.727   5.296   8.760  1.00  0.00     0.178 HD
ENDROOT
BRANCH   1  15
HETATM   15  N2  UNL     1      -4.544   3.254  13.406  1.00  0.00    -0.355 N 
HETATM   16  C4  UNL     1      -4.799   3.345  14.801  1.00  0.00     0.235 C 
HETATM   17  O2  UNL     1      -3.831   3.603  15.584  1.00  0.00    -0.272 OA
ATOM     18  H2  UNL     1      -5.327   3.046  12.786  1.00  0.00     0.162 HD
BRANCH  16  19
HETATM   19  C3  UNL     1      -6.115   3.159  15.415  1.00  0.00     0.225 C 
BRANCH  19  20
HETATM   20  N1  UNL     1      -6.126   3.360  16.830  1.00  0.00    -0.353 N 
HETATM   21  C2  UNL     1      -6.194   2.234  17.687  1.00  0.00     0.213 C 
HETATM   22  C1  UNL     1      -6.212   2.340  19.162  1.00  0.00     0.117 C 
HETATM   23  O1  UNL     1      -6.244   1.088  17.184  1.00  0.00    -0.274 OA
ATOM     24  H1  UNL     1      -6.084   4.303  17.219  1.00  0.00     0.162 HD
ENDBRANCH  19  20
ENDBRANCH  16  19
ENDBRANCH   1  15
BRANCH   4  25
HETATM   25  O3  UNL     1      -4.595   4.888  10.009  1.00  0.00    -0.393 OA
ATOM     26  H3  UNL     1      -4.930   4.976   9.124  1.00  0.00     0.210 HD
ENDBRANCH   4  25
BRANCH  13  27
HETATM   27  C13 UNL     1       1.368   5.073   8.529  1.00  0.00     0.036 C 
HETATM   28  C14 UNL     1       2.221   3.860   8.823  1.00  0.00     0.038 C 
HETATM   29  C15 UNL     1       1.149   5.079   7.020  1.00  0.00     0.038 C 
HETATM   30  C16 UNL     1       2.104   6.350   8.936  1.00  0.00     0.038 C 
ENDBRANCH  13  27
TORSDOF 5
ENDMDL
MODEL 3
REMARK VINA RESULT: -6.482782324      3.588      8.799
REMARK  5 active torsions:
REMARK  status: ('A' for Active; 'I' for Inactive)
REMARK       I    between atoms: C2_2  and  N1_4 
REMARK    1  A    between atoms: N1_4  and  C3_6 
REMARK    2  A    between atoms: C3_6  and  C4_7 
REMARK       I    between atoms: C4_7  and  N2_9 
REMARK    3  A    between atoms: N2_9  and  C5_11 
REMARK    4  A    between atoms: C8_14  and  O3_15 
REMARK       I    between atoms: N3_20  and  C12_21 
REMARK       I    between atoms: C12_21  and  N5_25 
REMARK    5  A    between atoms: N5_25  and  C13_27 
ROOT
HETATM    1  C5  UNL     1       0.118   4.463   9.512  1.00  0.00     0.092 C 
HETATM    2  C6  UNL     1      -0.854   3.383   9.880  1.00  0.00     0.054 C 
HETATM    3  C7  UNL     1      -2.122   4.017  10.463  1.00  0.00     0.132 C 
HETATM    4  C8  UNL     1      -2.770   4.924   9.435  1.00  0.00     0.142 C 
HETATM    5  C9  UNL     1      -1.813   6.043   9.173  1.00  0.00     0.042 C 
HETATM    6  C10 UNL     1      -0.453   5.818   9.783  1.00  0.00     0.029 C 
HETATM    7  C11 UNL     1      -0.688   5.870  11.304  1.00  0.00     0.148 C 
HETATM    8  N3  UNL     1      -1.685   4.851  11.566  1.00  0.00    -0.211 N 
HETATM    9  C12 UNL     1      -2.265   4.615  12.840  1.00  0.00     0.670 C 
HETATM   10  N4  UNL     1      -1.463   4.311  13.804  1.00  0.00    -0.235 N 
ATOM     11  H41 UNL     1      -1.880   4.140  14.720  1.00  0.00     0.174 HD
ATOM     12  H42 UNL     1      -0.453   4.236  13.684  1.00  0.00     0.174 HD
HETATM   13  N5  UNL     1      -3.661   4.717  13.006  1.00  0.00    -0.218 N 
ATOM     14  H5  UNL     1      -4.254   4.578  12.189  1.00  0.00     0.178 HD
ENDROOT
BRANCH   1  15
HETATM   15  N2  UNL     1       0.679   4.313   8.198  1.00  0.00    -0.355 N 
HETATM   16  C4  UNL     1       1.973   3.779   7.953  1.00  0.00     0.235 C 
HETATM   17  O2  UNL     1       2.682   3.413   8.943  1.00  0.00    -0.272 OA
ATOM     18  H2  UNL     1       0.118   4.604   7.398  1.00  0.00     0.162 HD
BRANCH  16  19
HETATM   19  C3  UNL     1       2.563   3.618   6.623  1.00  0.00     0.225 C 
BRANCH  19  20
HETATM   20  N1  UNL     1       1.617   3.260   5.612  1.00  0.00    -0.353 N 
HETATM   21  C2  UNL     1       1.515   4.062   4.448  1.00  0.00     0.213 C 
HETATM   22  C1  UNL     1       0.568   3.774   3.350  1.00  0.00     0.117 C 
HETATM   23  O1  UNL     1       2.254   5.066   4.333  1.00  0.00    -0.274 OA
ATOM     24  H1  UNL     1       1.025   2.437   5.727  1.00  0.00     0.162 HD
ENDBRANCH  19  20
ENDBRANCH  16  19
ENDBRANCH   1  15
BRANCH   4  25
HETATM   25  O3  UNL     1      -3.088   4.197   8.292  1.00  0.00    -0.393 OA
ATOM     26  H3  UNL     1      -3.933   3.776   8.400  1.00  0.00     0.210 HD
ENDBRANCH   4  25
BRANCH  13  27
HETATM   27  C13 UNL     1      -4.298   5.009  14.264  1.00  0.00     0.036 C 
HETATM   28  C14 UNL     1      -5.777   5.251  14.058  1.00  0.00     0.038 C 
HETATM   29  C15 UNL     1      -4.194   3.829  15.225  1.00  0.00     0.038 C 
HETATM   30  C16 UNL     1      -3.644   6.235  14.899  1.00  0.00     0.038 C 
ENDBRANCH  13  27
TORSDOF 5
ENDMDL
MODEL 4
REMARK VINA RESULT: -6.476013477      2.136      2.693
REMARK  5 active torsions:
REMARK  status: ('A' for Active; 'I' for Inactive)
REMARK       I    between atoms: C2_2  and  N1_4 
REMARK    1  A    between atoms: N1_4  and  C3_6 
REMARK    2  A    between atoms: C3_6  and  C4_7 
REMARK       I    between atoms: C4_7  and  N2_9 
REMARK    3  A    between atoms: N2_9  and  C5_11 
REMARK    4  A    between atoms: C8_14  and  O3_15 
REMARK       I    between atoms: N3_20  and  C12_21 
REMARK       I    between atoms: C12_21  and  N5_25 
REMARK    5  A    between atoms: N5_25  and  C13_27 
ROOT
HETATM    1  C5  UNL     1      -3.110   4.586  12.891  1.00  0.00     0.092 C 
HETATM    2  C6  UNL     1      -2.934   5.735  11.945  1.00  0.00     0.054 C 
HETATM    3  C7  UNL     1      -2.450   5.208  10.589  1.00  0.00     0.132 C 
HETATM    4  C8  UNL     1      -3.475   4.253  10.007  1.00  0.00     0.142 C 
HETATM    5  C9  UNL     1      -3.544   3.075  10.924  1.00  0.00     0.042 C 
HETATM    6  C10 UNL     1      -2.805   3.284  12.221  1.00  0.00     0.029 C 
HETATM    7  C11 UNL     1      -1.321   3.364  11.821  1.00  0.00     0.148 C 
HETATM    8  N3  UNL     1      -1.247   4.445  10.859  1.00  0.00    -0.211 N 
HETATM    9  C12 UNL     1      -0.066   4.809  10.159  1.00  0.00     0.670 C 
HETATM   10  N4  UNL     1       0.955   5.151  10.868  1.00  0.00    -0.235 N 
ATOM     11  H41 UNL     1       1.804   5.413  10.365  1.00  0.00     0.174 HD
ATOM     12  H42 UNL     1       0.943   5.169  11.888  1.00  0.00     0.174 HD
HETATM   13  N5  UNL     1      -0.049   4.784   8.750  1.00  0.00    -0.218 N 
ATOM     14  H5  UNL     1      -0.936   4.885   8.257  1.00  0.00     0.178 HD
ENDROOT
BRANCH   1  15
HETATM   15  N2  UNL     1      -4.361   4.605  13.597  1.00  0.00    -0.355 N 
HETATM   16  C4  UNL     1      -4.504   4.200  14.951  1.00  0.00     0.235 C 
HETATM   17  O2  UNL     1      -3.477   3.795  15.581  1.00  0.00    -0.272 OA
ATOM     18  H2  UNL     1      -5.191   4.928  13.100  1.00  0.00     0.162 HD
BRANCH  16  19
HETATM   19  C3  UNL     1      -5.769   4.212  15.689  1.00  0.00     0.225 C 
BRANCH  19  20
HETATM   20  N1  UNL     1      -6.382   2.926  15.806  1.00  0.00    -0.353 N 
HETATM   21  C2  UNL     1      -6.521   2.343  17.090  1.00  0.00     0.213 C 
HETATM   22  C1  UNL     1      -7.140   1.018  17.313  1.00  0.00     0.117 C 
HETATM   23  O1  UNL     1      -6.104   2.967  18.091  1.00  0.00    -0.274 OA
ATOM     24  H1  UNL     1      -6.715   2.435  14.976  1.00  0.00     0.162 HD
ENDBRANCH  19  20
ENDBRANCH  16  19
ENDBRANCH   1  15
BRANCH   4  25
HETATM   25  O3  UNL     1      -4.696   4.901   9.853  1.00  0.00    -0.393 OA
ATOM     26  H3  UNL     1      -5.342   4.298   9.505  1.00  0.00     0.210 HD
ENDBRANCH   4  25
BRANCH  13  27
HETATM   27  C13 UNL     1       1.147   4.623   7.966  1.00  0.00     0.036 C 
HETATM   28  C14 UNL     1       2.168   3.809   8.728  1.00  0.00     0.038 C 
HETATM   29  C15 UNL     1       0.868   3.853   6.680  1.00  0.00     0.038 C 
HETATM   30  C16 UNL     1       1.719   5.997   7.616  1.00  0.00     0.038 C 
ENDBRANCH  13  27
TORSDOF 5
ENDMDL
MODEL 5
REMARK VINA RESULT: -6.475929306      3.208      8.586
REMARK  5 active torsions:
REMARK  status: ('A' for Active; 'I' for Inactive)
REMARK       I    between atoms: C2_2  and  N1_4 
REMARK    1  A    between atoms: N1_4  and  C3_6 
REMARK    2  A    between atoms: C3_6  and  C4_7 
REMARK       I    between atoms: C4_7  and  N2_9 
REMARK    3  A    between atoms: N2_9  and  C5_11 
REMARK    4  A    between atoms: C8_14  and  O3_15 
REMARK       I    between atoms: N3_20  and  C12_21 
REMARK       I    between atoms: C12_21  and  N5_25 
REMARK    5  A    between atoms: N5_25  and  C13_27 
ROOT
HETATM    1  C5  UNL     1       0.173   4.283  10.512  1.00  0.00     0.092 C 
HETATM    2  C6  UNL     1      -0.130   3.095  11.373  1.00  0.00     0.054 C 
HETATM    3  C7  UNL     1      -1.634   3.051  11.669  1.00  0.00     0.132 C 
HETATM    4  C8  UNL     1      -2.414   2.924  10.374  1.00  0.00     0.142 C 
HETATM    5  C9  UNL     1      -2.169   4.174   9.592  1.00  0.00     0.042 C 
HETATM    6  C10 UNL     1      -1.075   5.035  10.171  1.00  0.00     0.029 C 
HETATM    7  C11 UNL     1      -1.636   5.535  11.515  1.00  0.00     0.148 C 
HETATM    8  N3  UNL     1      -1.968   4.334  12.255  1.00  0.00    -0.211 N 
HETATM    9  C12 UNL     1      -2.602   4.332  13.526  1.00  0.00     0.670 C 
HETATM   10  N4  UNL     1      -2.002   4.953  14.483  1.00  0.00    -0.235 N 
ATOM     11  H41 UNL     1      -2.457   4.952  15.396  1.00  0.00     0.174 HD
ATOM     12  H42 UNL     1      -1.110   5.434  14.361  1.00  0.00     0.174 HD
HETATM   13  N5  UNL     1      -3.834   3.669  13.694  1.00  0.00    -0.218 N 
ATOM     14  H5  UNL     1      -4.061   2.907  13.057  1.00  0.00     0.178 HD
ENDROOT
BRANCH   1  15
HETATM   15  N2  UNL     1       1.006   3.981   9.382  1.00  0.00    -0.355 N 
HETATM   16  C4  UNL     1       2.416   4.151   9.378  1.00  0.00     0.235 C 
HETATM   17  O2  UNL     1       2.982   4.594  10.427  1.00  0.00    -0.272 OA
ATOM     18  H2  UNL     1       0.560   3.625   8.536  1.00  0.00     0.162 HD
BRANCH  16  19
HETATM   19  C3  UNL     1       3.282   3.849   8.237  1.00  0.00     0.225 C 
BRANCH  19  20
HETATM   20  N1  UNL     1       2.840   4.427   7.007  1.00  0.00    -0.353 N 
HETATM   21  C2  UNL     1       2.715   3.602   5.862  1.00  0.00     0.213 C 
HETATM   22  C1  UNL     1       2.266   4.108   4.547  1.00  0.00     0.117 C 
HETATM   23  O1  UNL     1       2.994   2.385   5.954  1.00  0.00    -0.274 OA
ATOM     24  H1  UNL     1       2.617   5.422   6.955  1.00  0.00     0.162 HD
ENDBRANCH  19  20
ENDBRANCH  16  19
ENDBRANCH   1  15
BRANCH   4  25
HETATM   25  O3  UNL     1      -2.032   1.770   9.698  1.00  0.00    -0.393 OA
ATOM     26  H3  UNL     1      -1.585   1.999   8.892  1.00  0.00     0.210 HD
ENDBRANCH   4  25
BRANCH  13  27
HETATM   27  C13 UNL     1      -4.792   4.006  14.715  1.00  0.00     0.036 C 
HETATM   28  C14 UNL     1      -4.690   5.473  15.066  1.00  0.00     0.038 C 
HETATM   29  C15 UNL     1      -6.221   3.788  14.229  1.00  0.00     0.038 C 
HETATM   30  C16 UNL     1      -4.545   3.146  15.954  1.00  0.00     0.038 C 
ENDBRANCH  13  27
TORSDOF 5
ENDMDL
