MODEL 1
REMARK VINA RESULT: -7.680842730      0.000      0.000
REMARK  4 active torsions:
REMARK  status: ('A' for Active; 'I' for Inactive)
REMARK    1  A    between atoms: C4_4  and  C5_5 
REMARK    2  A    between atoms: C5_5  and  C6_6 
REMARK    3  A    between atoms: C8_8  and  C10_10 
REMARK    4  A    between atoms: C10_10  and  O1_11 
ROOT
HETATM    1  C6  UNL     1      40.369   1.434  92.766  1.00  0.00     0.191 C 
HETATM    2  C7  UNL     1      41.669   0.709  92.730  1.00  0.00     0.047 C 
HETATM    3  C8  UNL     1      41.396  -0.502  91.831  1.00  0.00     0.012 C 
HETATM    4  C9  UNL     1      41.530  -1.745  92.694  1.00  0.00     0.020 C 
HETATM    5  C11 UNL     1      40.021  -0.305  91.310  1.00  0.00     0.128 C 
HETATM    6  C12 UNL     1      39.841  -0.711  89.873  1.00  0.00     0.046 C 
HETATM    7  C13 UNL     1      38.984  -1.111  92.105  1.00  0.00     0.046 C 
HETATM    8  N1  UNL     1      39.714   1.084  91.533  1.00  0.00    -0.062 N 
ATOM      9  H11 UNL     1      39.964   1.690  90.751  1.00  0.00     0.278 HD
ATOM     10  H12 UNL     1      38.714   1.287  91.529  1.00  0.00     0.278 HD
ENDROOT
BRANCH   1  11
HETATM   11  C5  UNL     1      40.502   2.926  92.946  1.00  0.00     0.060 C 
BRANCH  11  12
HETATM   12  C4  UNL     1      41.810   3.457  92.546  1.00  0.00    -0.023 C 
HETATM   13  C2  UNL     1      42.454   4.395  93.225  1.00  0.00    -0.091 C 
HETATM   14  C1  UNL     1      41.792   4.921  94.455  1.00  0.00     0.042 C 
HETATM   15  C3  UNL     1      43.773   4.925  92.814  1.00  0.00     0.042 C 
ENDBRANCH  11  12
ENDBRANCH   1  11
BRANCH   3  16
HETATM   16  C10 UNL     1      42.462  -0.542  90.788  1.00  0.00     0.175 C 
BRANCH  16  17
HETATM   17  O1  UNL     1      42.924   0.688  90.388  1.00  0.00    -0.400 OA
ATOM     18  H1  UNL     1      43.184   0.739  89.476  1.00  0.00     0.209 HD
ENDBRANCH  16  17
ENDBRANCH   3  16
TORSDOF 4
ENDMDL
MODEL 2
REMARK VINA RESULT: -7.418885649      0.617      1.038
REMARK  4 active torsions:
REMARK  status: ('A' for Active; 'I' for Inactive)
REMARK    1  A    between atoms: C4_4  and  C5_5 
REMARK    2  A    between atoms: C5_5  and  C6_6 
REMARK    3  A    between atoms: C8_8  and  C10_10 
REMARK    4  A    between atoms: C10_10  and  O1_11 
ROOT
HETATM    1  C6  UNL     1      40.742   1.736  92.368  1.00  0.00     0.191 C 
HETATM    2  C7  UNL     1      41.980   0.909  92.342  1.00  0.00     0.047 C 
HETATM    3  C8  UNL     1      41.529  -0.417  91.719  1.00  0.00     0.012 C 
HETATM    4  C9  UNL     1      41.677  -1.490  92.784  1.00  0.00     0.020 C 
HETATM    5  C11 UNL     1      40.120  -0.202  91.308  1.00  0.00     0.128 C 
HETATM    6  C12 UNL     1      39.752  -0.844  89.999  1.00  0.00     0.046 C 
HETATM    7  C13 UNL     1      39.128  -0.760  92.340  1.00  0.00     0.046 C 
HETATM    8  N1  UNL     1      39.931   1.226  91.294  1.00  0.00    -0.062 N 
ATOM      9  H11 UNL     1      40.130   1.656  90.391  1.00  0.00     0.278 HD
ATOM     10  H12 UNL     1      38.953   1.509  91.351  1.00  0.00     0.278 HD
ENDROOT
BRANCH   1  11
HETATM   11  C5  UNL     1      40.991   3.219  92.249  1.00  0.00     0.060 C 
BRANCH  11  12
HETATM   12  C4  UNL     1      41.334   3.866  93.522  1.00  0.00    -0.023 C 
HETATM   13  C2  UNL     1      42.472   4.513  93.726  1.00  0.00    -0.091 C 
HETATM   14  C1  UNL     1      43.437   4.571  92.588  1.00  0.00     0.042 C 
HETATM   15  C3  UNL     1      42.810   5.162  95.012  1.00  0.00     0.042 C 
ENDBRANCH  11  12
ENDBRANCH   1  11
BRANCH   3  16
HETATM   16  C10 UNL     1      42.466  -0.736  90.603  1.00  0.00     0.175 C 
BRANCH  16  17
HETATM   17  O1  UNL     1      42.942   0.356  89.921  1.00  0.00    -0.400 OA
ATOM     18  H1  UNL     1      42.568   0.480  89.056  1.00  0.00     0.209 HD
ENDBRANCH  16  17
ENDBRANCH   3  16
TORSDOF 4
ENDMDL
MODEL 3
REMARK VINA RESULT: -6.679043299      2.171      5.163
REMARK  4 active torsions:
REMARK  status: ('A' for Active; 'I' for Inactive)
REMARK    1  A    between atoms: C4_4  and  C5_5 
REMARK    2  A    between atoms: C5_5  and  C6_6 
REMARK    3  A    between atoms: C8_8  and  C10_10 
REMARK    4  A    between atoms: C10_10  and  O1_11 
ROOT
HETATM    1  C6  UNL     1      40.420   0.097  92.377  1.00  0.00     0.191 C 
HETATM    2  C7  UNL     1      39.234   0.939  92.691  1.00  0.00     0.047 C 
HETATM    3  C8  UNL     1      39.804   2.356  92.817  1.00  0.00     0.012 C 
HETATM    4  C9  UNL     1      39.618   2.793  94.260  1.00  0.00     0.020 C 
HETATM    5  C11 UNL     1      41.231   2.244  92.427  1.00  0.00     0.128 C 
HETATM    6  C12 UNL     1      41.745   3.401  91.617  1.00  0.00     0.046 C 
HETATM    7  C13 UNL     1      42.155   2.148  93.650  1.00  0.00     0.046 C 
HETATM    8  N1  UNL     1      41.348   0.988  91.731  1.00  0.00    -0.062 N 
ATOM      9  H11 UNL     1      41.207   1.065  90.723  1.00  0.00     0.278 HD
ATOM     10  H12 UNL     1      42.302   0.629  91.693  1.00  0.00     0.278 HD
ENDROOT
BRANCH   1  11
HETATM   11  C5  UNL     1      40.108  -1.117  91.539  1.00  0.00     0.060 C 
BRANCH  11  12
HETATM   12  C4  UNL     1      41.279  -1.687  90.862  1.00  0.00    -0.023 C 
HETATM   13  C2  UNL     1      42.079  -2.584  91.421  1.00  0.00    -0.091 C 
HETATM   14  C1  UNL     1      41.749  -3.019  92.811  1.00  0.00     0.042 C 
HETATM   15  C3  UNL     1      43.258  -3.153  90.732  1.00  0.00     0.042 C 
ENDBRANCH  11  12
ENDBRANCH   1  11
BRANCH   3  16
HETATM   16  C10 UNL     1      38.986   3.253  91.950  1.00  0.00     0.175 C 
BRANCH  16  17
HETATM   17  O1  UNL     1      37.818   2.699  91.489  1.00  0.00    -0.400 OA
ATOM     18  H1  UNL     1      37.923   2.080  90.777  1.00  0.00     0.209 HD
ENDBRANCH  16  17
ENDBRANCH   3  16
TORSDOF 4
ENDMDL
MODEL 4
REMARK VINA RESULT: -6.654447488      2.684      3.713
REMARK  4 active torsions:
REMARK  status: ('A' for Active; 'I' for Inactive)
REMARK    1  A    between atoms: C4_4  and  C5_5 
REMARK    2  A    between atoms: C5_5  and  C6_6 
REMARK    3  A    between atoms: C8_8  and  C10_10 
REMARK    4  A    between atoms: C10_10  and  O1_11 
ROOT
HETATM    1  C6  UNL     1      43.408   2.526  91.911  1.00  0.00     0.191 C 
HETATM    2  C7  UNL     1      44.421   2.843  90.866  1.00  0.00     0.047 C 
HETATM    3  C8  UNL     1      44.815   1.473  90.302  1.00  0.00     0.012 C 
HETATM    4  C9  UNL     1      46.276   1.244  90.650  1.00  0.00     0.020 C 
HETATM    5  C11 UNL     1      43.906   0.500  90.955  1.00  0.00     0.128 C 
HETATM    6  C12 UNL     1      43.428  -0.603  90.052  1.00  0.00     0.046 C 
HETATM    7  C13 UNL     1      44.573  -0.198  92.149  1.00  0.00     0.046 C 
HETATM    8  N1  UNL     1      42.822   1.279  91.495  1.00  0.00    -0.062 N 
ATOM      9  H11 UNL     1      42.038   1.391  90.851  1.00  0.00     0.278 HD
ATOM     10  H12 UNL     1      42.305   0.804  92.234  1.00  0.00     0.278 HD
ENDROOT
BRANCH   1  11
HETATM   11  C5  UNL     1      42.378   3.608  92.117  1.00  0.00     0.060 C 
BRANCH  11  12
HETATM   12  C4  UNL     1      41.213   3.176  92.899  1.00  0.00    -0.023 C 
HETATM   13  C2  UNL     1      40.833   3.763  94.024  1.00  0.00    -0.091 C 
HETATM   14  C1  UNL     1      41.648   4.920  94.499  1.00  0.00     0.042 C 
HETATM   15  C3  UNL     1      39.657   3.320  94.806  1.00  0.00     0.042 C 
ENDBRANCH  11  12
ENDBRANCH   1  11
BRANCH   3  16
HETATM   16  C10 UNL     1      44.696   1.543  88.817  1.00  0.00     0.175 C 
BRANCH  16  17
HETATM   17  O1  UNL     1      44.266   2.753  88.330  1.00  0.00    -0.400 OA
ATOM     18  H1  UNL     1      44.939   3.275  87.909  1.00  0.00     0.209 HD
ENDBRANCH  16  17
ENDBRANCH   3  16
TORSDOF 4
ENDMDL
MODEL 5
REMARK VINA RESULT: -6.650390420      1.573      1.957
REMARK  4 active torsions:
REMARK  status: ('A' for Active; 'I' for Inactive)
REMARK    1  A    between atoms: C4_4  and  C5_5 
REMARK    2  A    between atoms: C5_5  and  C6_6 
REMARK    3  A    between atoms: C8_8  and  C10_10 
REMARK    4  A    between atoms: C10_10  and  O1_11 
ROOT
HETATM    1  C6  UNL     1      40.184   0.815  92.247  1.00  0.00     0.191 C 
HETATM    2  C7  UNL     1      41.299   0.513  93.187  1.00  0.00     0.047 C 
HETATM    3  C8  UNL     1      42.200  -0.445  92.401  1.00  0.00     0.012 C 
HETATM    4  C9  UNL     1      42.170  -1.785  93.118  1.00  0.00     0.020 C 
HETATM    5  C11 UNL     1      41.619  -0.507  91.038  1.00  0.00     0.128 C 
HETATM    6  C12 UNL     1      42.638  -0.554  89.933  1.00  0.00     0.046 C 
HETATM    7  C13 UNL     1      40.736  -1.748  90.845  1.00  0.00     0.046 C 
HETATM    8  N1  UNL     1      40.746   0.634  90.934  1.00  0.00    -0.062 N 
ATOM      9  H11 UNL     1      41.204   1.468  90.566  1.00  0.00     0.278 HD
ATOM     10  H12 UNL     1      40.045   0.546  90.198  1.00  0.00     0.278 HD
ENDROOT
BRANCH   1  11
HETATM   11  C5  UNL     1      39.577   2.183  92.431  1.00  0.00     0.060 C 
BRANCH  11  12
HETATM   12  C4  UNL     1      40.558   3.230  92.742  1.00  0.00    -0.023 C 
HETATM   13  C2  UNL     1      40.633   3.830  93.920  1.00  0.00    -0.091 C 
HETATM   14  C1  UNL     1      39.658   3.402  94.968  1.00  0.00     0.042 C 
HETATM   15  C3  UNL     1      41.625   4.885  94.225  1.00  0.00     0.042 C 
ENDBRANCH  11  12
ENDBRANCH   1  11
BRANCH   3  16
HETATM   16  C10 UNL     1      43.593   0.086  92.466  1.00  0.00     0.175 C 
BRANCH  16  17
HETATM   17  O1  UNL     1      43.952   0.611  93.683  1.00  0.00    -0.400 OA
ATOM     18  H1  UNL     1      44.814   0.355  93.989  1.00  0.00     0.209 HD
ENDBRANCH  16  17
ENDBRANCH   3  16
TORSDOF 4
ENDMDL
