MODEL 1
REMARK VINA RESULT: -6.616827762      0.000      0.000
REMARK  3 active torsions:
REMARK  status: ('A' for Active; 'I' for Inactive)
REMARK    1  A    between atoms: C5_7  and  C6_8 
REMARK    2  A    between atoms: C6_8  and  N2_9 
REMARK    3  A    between atoms: N2_9  and  C7_11 
ROOT
HETATM    1  C1  UNL     1      43.624  -3.912  91.254  1.00  0.00     0.068 C 
HETATM    2  C2  UNL     1      43.399  -2.469  91.560  1.00  0.00     0.013 A 
HETATM    3  N1  UNL     1      44.276  -1.452  91.348  1.00  0.00    -0.358 N 
ATOM      4  H1  UNL     1      45.224  -1.567  90.990  1.00  0.00     0.166 HD
HETATM    5  C3  UNL     1      43.707  -0.248  91.683  1.00  0.00     0.051 A 
HETATM    6  C4  UNL     1      44.042   1.068  91.654  1.00  0.00     0.051 A 
HETATM    7  C5  UNL     1      43.120   1.989  92.058  1.00  0.00     0.023 A 
HETATM    8  S1  UNL     1      41.778   0.950  92.475  1.00  0.00    -0.086 SA
HETATM    9  C10 UNL     1      42.462  -0.555  92.107  1.00  0.00     0.040 A 
HETATM   10  C11 UNL     1      42.235  -1.924  92.044  1.00  0.00    -0.020 A 
HETATM   11  C12 UNL     1      41.000  -2.638  92.408  1.00  0.00     0.052 C 
ENDROOT
BRANCH   7  12
HETATM   12  C6  UNL     1      43.025   3.447  92.072  1.00  0.00     0.102 C 
BRANCH  12  13
HETATM   13  N2  UNL     1      42.111   4.088  92.926  1.00  0.00    -0.394 N 
ATOM     14  H2  UNL     1      41.166   3.757  93.123  1.00  0.00     0.159 HD
BRANCH  13  15
HETATM   15  C7  UNL     1      42.712   5.298  93.492  1.00  0.00     0.072 C 
HETATM   16  C8  UNL     1      42.977   5.244  94.954  1.00  0.00     0.031 C 
HETATM   17  C9  UNL     1      44.115   5.402  92.832  1.00  0.00     0.031 C 
ENDBRANCH  13  15
ENDBRANCH  12  13
ENDBRANCH   7  12
TORSDOF 3
ENDMDL
MODEL 2
REMARK VINA RESULT: -6.564405027      1.505      6.253
REMARK  3 active torsions:
REMARK  status: ('A' for Active; 'I' for Inactive)
REMARK    1  A    between atoms: C5_7  and  C6_8 
REMARK    2  A    between atoms: C6_8  and  N2_9 
REMARK    3  A    between atoms: N2_9  and  C7_11 
ROOT
HETATM    1  C1  UNL     1      42.117   5.259  94.657  1.00  0.00     0.068 C 
HETATM    2  C2  UNL     1      42.170   4.048  93.788  1.00  0.00     0.013 A 
HETATM    3  N1  UNL     1      43.206   3.670  92.991  1.00  0.00    -0.358 N 
ATOM      4  H1  UNL     1      44.064   4.206  92.860  1.00  0.00     0.166 HD
HETATM    5  C3  UNL     1      42.936   2.466  92.388  1.00  0.00     0.051 A 
HETATM    6  C4  UNL     1      43.562   1.591  91.560  1.00  0.00     0.051 A 
HETATM    7  C5  UNL     1      42.922   0.434  91.223  1.00  0.00     0.023 A 
HETATM    8  S1  UNL     1      41.424   0.619  92.103  1.00  0.00    -0.086 SA
HETATM    9  C10 UNL     1      41.709   2.120  92.834  1.00  0.00     0.040 A 
HETATM   10  C11 UNL     1      41.203   3.076  93.704  1.00  0.00    -0.020 A 
HETATM   11  C12 UNL     1      39.907   3.048  94.402  1.00  0.00     0.052 C 
ENDROOT
BRANCH   7  12
HETATM   12  C6  UNL     1      43.264  -0.784  90.491  1.00  0.00     0.102 C 
BRANCH  12  13
HETATM   13  N2  UNL     1      43.869  -1.862  91.157  1.00  0.00    -0.394 N 
ATOM     14  H2  UNL     1      44.761  -1.818  91.651  1.00  0.00     0.159 HD
BRANCH  13  15
HETATM   15  C7  UNL     1      43.034  -3.060  91.042  1.00  0.00     0.072 C 
HETATM   16  C8  UNL     1      43.778  -4.347  91.017  1.00  0.00     0.031 C 
HETATM   17  C9  UNL     1      42.200  -3.102  92.354  1.00  0.00     0.031 C 
ENDBRANCH  13  15
ENDBRANCH  12  13
ENDBRANCH   7  12
TORSDOF 3
ENDMDL
MODEL 3
REMARK VINA RESULT: -6.506845525      2.674      6.537
REMARK  3 active torsions:
REMARK  status: ('A' for Active; 'I' for Inactive)
REMARK    1  A    between atoms: C5_7  and  C6_8 
REMARK    2  A    between atoms: C6_8  and  N2_9 
REMARK    3  A    between atoms: N2_9  and  C7_11 
ROOT
HETATM    1  C1  UNL     1      38.050   3.056  91.854  1.00  0.00     0.068 C 
HETATM    2  C2  UNL     1      38.955   1.890  92.073  1.00  0.00     0.013 A 
HETATM    3  N1  UNL     1      38.656   0.582  91.849  1.00  0.00    -0.358 N 
ATOM      4  H1  UNL     1      37.746   0.237  91.542  1.00  0.00     0.166 HD
HETATM    5  C3  UNL     1      39.751  -0.211  92.093  1.00  0.00     0.051 A 
HETATM    6  C4  UNL     1      40.082  -1.525  92.010  1.00  0.00     0.051 A 
HETATM    7  C5  UNL     1      41.356  -1.902  92.322  1.00  0.00     0.023 A 
HETATM    8  S1  UNL     1      42.065  -0.357  92.730  1.00  0.00    -0.086 SA
HETATM    9  C10 UNL     1      40.724   0.645  92.474  1.00  0.00     0.040 A 
HETATM   10  C11 UNL     1      40.267   1.956  92.473  1.00  0.00    -0.020 A 
HETATM   11  C12 UNL     1      41.034   3.165  92.816  1.00  0.00     0.052 C 
ENDROOT
BRANCH   7  12
HETATM   12  C6  UNL     1      42.135  -3.136  92.255  1.00  0.00     0.102 C 
BRANCH  12  13
HETATM   13  N2  UNL     1      43.524  -3.108  92.464  1.00  0.00    -0.394 N 
ATOM     14  H2  UNL     1      43.977  -2.837  93.337  1.00  0.00     0.159 HD
BRANCH  13  15
HETATM   15  C7  UNL     1      44.226  -3.525  91.248  1.00  0.00     0.072 C 
HETATM   16  C8  UNL     1      43.683  -4.744  90.593  1.00  0.00     0.031 C 
HETATM   17  C9  UNL     1      43.984  -2.378  90.226  1.00  0.00     0.031 C 
ENDBRANCH  13  15
ENDBRANCH  12  13
ENDBRANCH   7  12
TORSDOF 3
ENDMDL
MODEL 4
REMARK VINA RESULT: -6.505960602      1.584      6.207
REMARK  3 active torsions:
REMARK  status: ('A' for Active; 'I' for Inactive)
REMARK    1  A    between atoms: C5_7  and  C6_8 
REMARK    2  A    between atoms: C6_8  and  N2_9 
REMARK    3  A    between atoms: N2_9  and  C7_11 
ROOT
HETATM    1  C1  UNL     1      42.317   5.163  94.602  1.00  0.00     0.068 C 
HETATM    2  C2  UNL     1      42.157   3.917  93.798  1.00  0.00     0.013 A 
HETATM    3  N1  UNL     1      43.089   3.356  92.982  1.00  0.00    -0.358 N 
ATOM      4  H1  UNL     1      44.007   3.755  92.787  1.00  0.00     0.166 HD
HETATM    5  C3  UNL     1      42.621   2.176  92.457  1.00  0.00     0.051 A 
HETATM    6  C4  UNL     1      43.076   1.180  91.652  1.00  0.00     0.051 A 
HETATM    7  C5  UNL     1      42.263   0.113  91.405  1.00  0.00     0.023 A 
HETATM    8  S1  UNL     1      40.851   0.554  92.334  1.00  0.00    -0.086 SA
HETATM    9  C10 UNL     1      41.381   2.032  92.970  1.00  0.00     0.040 A 
HETATM   10  C11 UNL     1      41.058   3.092  93.807  1.00  0.00    -0.020 A 
HETATM   11  C12 UNL     1      39.806   3.283  94.557  1.00  0.00     0.052 C 
ENDROOT
BRANCH   7  12
HETATM   12  C6  UNL     1      42.394  -1.175  90.727  1.00  0.00     0.102 C 
BRANCH  12  13
HETATM   13  N2  UNL     1      43.607  -1.881  90.778  1.00  0.00    -0.394 N 
ATOM     14  H2  UNL     1      44.438  -1.654  90.231  1.00  0.00     0.159 HD
BRANCH  13  15
HETATM   15  C7  UNL     1      43.507  -2.990  91.729  1.00  0.00     0.072 C 
HETATM   16  C8  UNL     1      42.163  -3.179  92.337  1.00  0.00     0.031 C 
HETATM   17  C9  UNL     1      43.751  -4.273  90.885  1.00  0.00     0.031 C 
ENDBRANCH  13  15
ENDBRANCH  12  13
ENDBRANCH   7  12
TORSDOF 3
ENDMDL
MODEL 5
REMARK VINA RESULT: -6.477597442      2.118      6.392
REMARK  3 active torsions:
REMARK  status: ('A' for Active; 'I' for Inactive)
REMARK    1  A    between atoms: C5_7  and  C6_8 
REMARK    2  A    between atoms: C6_8  and  N2_9 
REMARK    3  A    between atoms: N2_9  and  C7_11 
ROOT
HETATM    1  C1  UNL     1      41.209   4.711  93.826  1.00  0.00     0.068 C 
HETATM    2  C2  UNL     1      41.162   3.285  93.390  1.00  0.00     0.013 A 
HETATM    3  N1  UNL     1      42.104   2.334  93.634  1.00  0.00    -0.358 N 
ATOM      4  H1  UNL     1      42.989   2.502  94.114  1.00  0.00     0.166 HD
HETATM    5  C3  UNL     1      41.698   1.117  93.144  1.00  0.00     0.051 A 
HETATM    6  C4  UNL     1      42.154  -0.162  93.117  1.00  0.00     0.051 A 
HETATM    7  C5  UNL     1      41.379  -1.123  92.536  1.00  0.00     0.023 A 
HETATM    8  S1  UNL     1      40.000  -0.174  92.034  1.00  0.00    -0.086 SA
HETATM    9  C10 UNL     1      40.487   1.349  92.593  1.00  0.00     0.040 A 
HETATM   10  C11 UNL     1      40.122   2.682  92.726  1.00  0.00    -0.020 A 
HETATM   11  C12 UNL     1      38.874   3.313  92.267  1.00  0.00     0.052 C 
ENDROOT
BRANCH   7  12
HETATM   12  C6  UNL     1      41.429  -2.577  92.404  1.00  0.00     0.102 C 
BRANCH  12  13
HETATM   13  N2  UNL     1      42.666  -3.238  92.326  1.00  0.00    -0.394 N 
ATOM     14  H2  UNL     1      43.175  -3.619  93.124  1.00  0.00     0.159 HD
BRANCH  13  15
HETATM   15  C7  UNL     1      43.118  -3.302  90.934  1.00  0.00     0.072 C 
HETATM   16  C8  UNL     1      44.013  -2.192  90.511  1.00  0.00     0.031 C 
HETATM   17  C9  UNL     1      43.997  -4.582  90.851  1.00  0.00     0.031 C 
ENDBRANCH  13  15
ENDBRANCH  12  13
ENDBRANCH   7  12
TORSDOF 3
ENDMDL
