MODEL 1
REMARK VINA RESULT: -8.215406800      0.000      0.000
REMARK  8 active torsions:
REMARK  status: ('A' for Active; 'I' for Inactive)
REMARK    1  A    between atoms: N1_1  and  C1_4 
REMARK    2  A    between atoms: C4_10  and  N3_11 
REMARK    3  A    between atoms: N5_17  and  C6_19 
REMARK    4  A    between atoms: C6_19  and  C7_20 
REMARK    5  A    between atoms: C7_20  and  O2_21 
REMARK    6  A    between atoms: O2_21  and  C8_22 
REMARK    7  A    between atoms: C8_22  and  C9_23 
REMARK    8  A    between atoms: C9_23  and  O3_24 
ROOT
HETATM    1  C1  UNL     1      12.652  -9.607 -12.269  1.00  0.00     0.679 A 
HETATM    2  N2  UNL     1      13.311  -8.501 -12.655  1.00  0.00    -0.155 N 
ATOM      3  H2  UNL     1      14.299  -8.412 -12.418  1.00  0.00     0.187 HD
HETATM    4  C2  UNL     1      12.722  -7.509 -13.341  1.00  0.00     0.276 A 
HETATM    5  O1  UNL     1      13.321  -6.471 -13.709  1.00  0.00    -0.267 OA
HETATM    6  C3  UNL     1      11.390  -7.616 -13.668  1.00  0.00     0.109 A 
HETATM    7  C4  UNL     1      10.897  -6.541 -14.371  1.00  0.00     0.133 C 
HETATM    8  N4  UNL     1       9.634  -6.380 -14.833  1.00  0.00    -0.176 N 
ATOM      9  H4  UNL     1       9.338  -5.426 -15.038  1.00  0.00     0.186 HD
HETATM   10  C5  UNL     1       8.732  -7.354 -15.048  1.00  0.00     0.682 C 
HETATM   11  N5  UNL     1       7.931  -7.194 -16.012  1.00  0.00    -0.224 N 
ATOM     12  H5  UNL     1       7.252  -7.940 -16.162  1.00  0.00     0.177 HD
HETATM   13  N6  UNL     1       8.543  -8.525 -14.368  1.00  0.00    -0.154 N 
ATOM     14  H6  UNL     1       7.675  -9.032 -14.545  1.00  0.00     0.187 HD
HETATM   15  C10 UNL     1       9.401  -9.064 -13.486  1.00  0.00     0.288 C 
HETATM   16  O4  UNL     1       8.967  -9.984 -12.724  1.00  0.00    -0.265 OA
HETATM   17  C11 UNL     1      10.740  -8.782 -13.249  1.00  0.00     0.137 A 
HETATM   18  N7  UNL     1      11.348  -9.760 -12.563  1.00  0.00    -0.185 N 
ATOM     19  H7  UNL     1      10.839 -10.595 -12.274  1.00  0.00     0.184 HD
ENDROOT
BRANCH  11  20
HETATM   20  C6  UNL     1       7.863  -6.092 -16.916  1.00  0.00     0.164 C 
BRANCH  20  21
HETATM   21  C7  UNL     1       7.111  -6.505 -18.182  1.00  0.00     0.188 C 
BRANCH  21  22
HETATM   22  O2  UNL     1       6.707  -7.772 -18.116  1.00  0.00    -0.387 OA
BRANCH  22  23
HETATM   23  C8  UNL     1       7.079  -8.661 -19.041  1.00  0.00     0.193 C 
BRANCH  23  24
HETATM   24  C9  UNL     1       7.511  -9.998 -18.537  1.00  0.00     0.190 C 
BRANCH  24  25
HETATM   25  O3  UNL     1       8.172  -9.948 -17.354  1.00  0.00    -0.399 OA
ATOM     26  H3  UNL     1       7.925 -10.638 -16.749  1.00  0.00     0.209 HD
ENDBRANCH  24  25
ENDBRANCH  23  24
ENDBRANCH  22  23
ENDBRANCH  21  22
ENDBRANCH  20  21
ENDBRANCH  11  20
BRANCH   7  27
HETATM   27  N3  UNL     1      11.732  -5.608 -14.599  1.00  0.00    -0.384 N 
ATOM     28  H32 UNL     1      12.581  -5.849 -15.109  1.00  0.00     0.157 HD
ATOM     29  H31 UNL     1      11.469  -4.689 -14.244  1.00  0.00     0.157 HD
ENDBRANCH   7  27
BRANCH   1  30
HETATM   30  N1  UNL     1      13.295 -10.533 -11.600  1.00  0.00    -0.234 N 
ATOM     31  H12 UNL     1      14.197 -10.876 -11.931  1.00  0.00     0.174 HD
ATOM     32  H11 UNL     1      12.881 -10.908 -10.746  1.00  0.00     0.174 HD
ENDBRANCH   1  30
TORSDOF 8
ENDMDL
MODEL 2
REMARK VINA RESULT: -8.209464520      3.624      5.646
REMARK  8 active torsions:
REMARK  status: ('A' for Active; 'I' for Inactive)
REMARK    1  A    between atoms: N1_1  and  C1_4 
REMARK    2  A    between atoms: C4_10  and  N3_11 
REMARK    3  A    between atoms: N5_17  and  C6_19 
REMARK    4  A    between atoms: C6_19  and  C7_20 
REMARK    5  A    between atoms: C7_20  and  O2_21 
REMARK    6  A    between atoms: O2_21  and  C8_22 
REMARK    7  A    between atoms: C8_22  and  C9_23 
REMARK    8  A    between atoms: C9_23  and  O3_24 
ROOT
HETATM    1  C1  UNL     1      13.995  -2.974 -12.350  1.00  0.00     0.679 A 
HETATM    2  N2  UNL     1      14.587  -3.730 -11.408  1.00  0.00    -0.155 N 
ATOM      3  H2  UNL     1      15.077  -3.265 -10.644  1.00  0.00     0.187 HD
HETATM    4  C2  UNL     1      14.556  -5.071 -11.432  1.00  0.00     0.276 A 
HETATM    5  O1  UNL     1      15.102  -5.791 -10.563  1.00  0.00    -0.267 OA
HETATM    6  C3  UNL     1      13.898  -5.711 -12.456  1.00  0.00     0.109 A 
HETATM    7  C4  UNL     1      13.934  -7.084 -12.375  1.00  0.00     0.133 C 
HETATM    8  N4  UNL     1      13.364  -7.966 -13.230  1.00  0.00    -0.176 N 
ATOM      9  H4  UNL     1      13.739  -8.915 -13.229  1.00  0.00     0.186 HD
HETATM   10  C5  UNL     1      12.353  -7.715 -14.081  1.00  0.00     0.682 C 
HETATM   11  N5  UNL     1      11.540  -8.656 -14.303  1.00  0.00    -0.224 N 
ATOM     12  H5  UNL     1      10.780  -8.450 -14.952  1.00  0.00     0.177 HD
HETATM   13  N6  UNL     1      12.060  -6.565 -14.762  1.00  0.00    -0.154 N 
ATOM     14  H6  UNL     1      11.381  -6.633 -15.521  1.00  0.00     0.187 HD
HETATM   15  C10 UNL     1      12.590  -5.355 -14.517  1.00  0.00     0.288 C 
HETATM   16  O4  UNL     1      12.449  -4.457 -15.405  1.00  0.00    -0.265 OA
HETATM   17  C11 UNL     1      13.296  -4.890 -13.415  1.00  0.00     0.137 A 
HETATM   18  N7  UNL     1      13.339  -3.551 -13.372  1.00  0.00    -0.185 N 
ATOM     19  H7  UNL     1      12.888  -2.987 -14.092  1.00  0.00     0.184 HD
ENDROOT
BRANCH  11  20
HETATM   20  C6  UNL     1      11.559  -9.972 -13.754  1.00  0.00     0.164 C 
BRANCH  20  21
HETATM   21  C7  UNL     1      10.624 -10.044 -12.547  1.00  0.00     0.188 C 
BRANCH  21  22
HETATM   22  O2  UNL     1       9.346 -10.029 -12.920  1.00  0.00    -0.387 OA
BRANCH  22  23
HETATM   23  C8  UNL     1       8.532  -9.039 -12.543  1.00  0.00     0.193 C 
BRANCH  23  24
HETATM   24  C9  UNL     1       7.608  -9.338 -11.408  1.00  0.00     0.190 C 
BRANCH  24  25
HETATM   25  O3  UNL     1       7.398 -10.664 -11.211  1.00  0.00    -0.399 OA
ATOM     26  H3  UNL     1       7.852 -11.014 -10.453  1.00  0.00     0.209 HD
ENDBRANCH  24  25
ENDBRANCH  23  24
ENDBRANCH  22  23
ENDBRANCH  21  22
ENDBRANCH  20  21
ENDBRANCH  11  20
BRANCH   7  27
HETATM   27  N3  UNL     1      14.578  -7.556 -11.384  1.00  0.00    -0.384 N 
ATOM     28  H32 UNL     1      15.345  -8.199 -11.581  1.00  0.00     0.157 HD
ATOM     29  H31 UNL     1      14.262  -7.240 -10.467  1.00  0.00     0.157 HD
ENDBRANCH   7  27
BRANCH   1  30
HETATM   30  N1  UNL     1      14.068  -1.668 -12.259  1.00  0.00    -0.234 N 
ATOM     31  H12 UNL     1      14.839  -1.227 -11.758  1.00  0.00     0.174 HD
ATOM     32  H11 UNL     1      13.343  -1.099 -12.695  1.00  0.00     0.174 HD
ENDBRANCH   1  30
TORSDOF 8
ENDMDL
MODEL 3
REMARK VINA RESULT: -7.964717783      2.650      4.083
REMARK  8 active torsions:
REMARK  status: ('A' for Active; 'I' for Inactive)
REMARK    1  A    between atoms: N1_1  and  C1_4 
REMARK    2  A    between atoms: C4_10  and  N3_11 
REMARK    3  A    between atoms: N5_17  and  C6_19 
REMARK    4  A    between atoms: C6_19  and  C7_20 
REMARK    5  A    between atoms: C7_20  and  O2_21 
REMARK    6  A    between atoms: O2_21  and  C8_22 
REMARK    7  A    between atoms: C8_22  and  C9_23 
REMARK    8  A    between atoms: C9_23  and  O3_24 
ROOT
HETATM    1  C1  UNL     1      13.692 -10.251 -10.051  1.00  0.00     0.679 A 
HETATM    2  N2  UNL     1      13.213 -11.126 -10.952  1.00  0.00    -0.155 N 
ATOM      3  H2  UNL     1      13.262 -12.123 -10.741  1.00  0.00     0.187 HD
HETATM    4  C2  UNL     1      12.673 -10.742 -12.118  1.00  0.00     0.276 A 
HETATM    5  O1  UNL     1      12.222 -11.543 -12.970  1.00  0.00    -0.267 OA
HETATM    6  C3  UNL     1      12.600  -9.401 -12.416  1.00  0.00     0.109 A 
HETATM    7  C4  UNL     1      12.027  -9.127 -13.637  1.00  0.00     0.133 C 
HETATM    8  N4  UNL     1      11.814  -7.906 -14.182  1.00  0.00    -0.176 N 
ATOM      9  H4  UNL     1      11.690  -7.870 -15.194  1.00  0.00     0.186 HD
HETATM   10  C5  UNL     1      11.751  -6.736 -13.522  1.00  0.00     0.682 C 
HETATM   11  N5  UNL     1      10.959  -5.862 -13.974  1.00  0.00    -0.224 N 
ATOM     12  H5  UNL     1      10.924  -4.980 -13.463  1.00  0.00     0.177 HD
HETATM   13  N6  UNL     1      12.429  -6.336 -12.403  1.00  0.00    -0.154 N 
ATOM     14  H6  UNL     1      12.407  -5.341 -12.176  1.00  0.00     0.187 HD
HETATM   15  C10 UNL     1      13.121  -7.140 -11.578  1.00  0.00     0.288 C 
HETATM   16  O4  UNL     1      13.930  -6.596 -10.763  1.00  0.00    -0.265 OA
HETATM   17  C11 UNL     1      13.108  -8.523 -11.453  1.00  0.00     0.137 A 
HETATM   18  N7  UNL     1      13.645  -8.929 -10.294  1.00  0.00    -0.185 N 
ATOM     19  H7  UNL     1      14.006  -8.257  -9.618  1.00  0.00     0.184 HD
ENDROOT
BRANCH  11  20
HETATM   20  C6  UNL     1      10.110  -5.961 -15.115  1.00  0.00     0.164 C 
BRANCH  20  21
HETATM   21  C7  UNL     1       8.756  -6.543 -14.705  1.00  0.00     0.188 C 
BRANCH  21  22
HETATM   22  O2  UNL     1       8.774  -7.874 -14.721  1.00  0.00    -0.387 OA
BRANCH  22  23
HETATM   23  C8  UNL     1       7.996  -8.581 -13.897  1.00  0.00     0.193 C 
BRANCH  23  24
HETATM   24  C9  UNL     1       8.588  -8.940 -12.573  1.00  0.00     0.190 C 
BRANCH  24  25
HETATM   25  O3  UNL     1       9.014 -10.225 -12.496  1.00  0.00    -0.399 OA
ATOM     26  H3  UNL     1       8.441 -10.788 -11.989  1.00  0.00     0.209 HD
ENDBRANCH  24  25
ENDBRANCH  23  24
ENDBRANCH  22  23
ENDBRANCH  21  22
ENDBRANCH  20  21
ENDBRANCH  11  20
BRANCH   7  27
HETATM   27  N3  UNL     1      11.667 -10.145 -14.311  1.00  0.00    -0.384 N 
ATOM     28  H32 UNL     1      12.034 -11.053 -14.028  1.00  0.00     0.157 HD
ATOM     29  H31 UNL     1      11.031  -9.954 -15.086  1.00  0.00     0.157 HD
ENDBRANCH   7  27
BRANCH   1  30
HETATM   30  N1  UNL     1      14.206 -10.703  -8.933  1.00  0.00    -0.234 N 
ATOM     31  H12 UNL     1      14.948 -10.188  -8.460  1.00  0.00     0.174 HD
ATOM     32  H11 UNL     1      13.855 -11.578  -8.543  1.00  0.00     0.174 HD
ENDBRANCH   1  30
TORSDOF 8
ENDMDL
MODEL 4
REMARK VINA RESULT: -7.899976864      3.244      5.644
REMARK  8 active torsions:
REMARK  status: ('A' for Active; 'I' for Inactive)
REMARK    1  A    between atoms: N1_1  and  C1_4 
REMARK    2  A    between atoms: C4_10  and  N3_11 
REMARK    3  A    between atoms: N5_17  and  C6_19 
REMARK    4  A    between atoms: C6_19  and  C7_20 
REMARK    5  A    between atoms: C7_20  and  O2_21 
REMARK    6  A    between atoms: O2_21  and  C8_22 
REMARK    7  A    between atoms: C8_22  and  C9_23 
REMARK    8  A    between atoms: C9_23  and  O3_24 
ROOT
HETATM    1  C1  UNL     1       8.038  -9.649 -11.467  1.00  0.00     0.679 A 
HETATM    2  N2  UNL     1       7.433  -8.453 -11.572  1.00  0.00    -0.155 N 
ATOM      3  H2  UNL     1       6.567  -8.295 -11.055  1.00  0.00     0.187 HD
HETATM    4  C2  UNL     1       7.923  -7.458 -12.327  1.00  0.00     0.276 A 
HETATM    5  O1  UNL     1       7.372  -6.337 -12.436  1.00  0.00    -0.267 OA
HETATM    6  C3  UNL     1       9.089  -7.657 -13.028  1.00  0.00     0.109 A 
HETATM    7  C4  UNL     1       9.493  -6.567 -13.765  1.00  0.00     0.133 C 
HETATM    8  N4  UNL     1      10.602  -6.471 -14.536  1.00  0.00    -0.176 N 
ATOM      9  H4  UNL     1      10.600  -5.750 -15.257  1.00  0.00     0.186 HD
HETATM   10  C5  UNL     1      11.707  -7.233 -14.445  1.00  0.00     0.682 C 
HETATM   11  N5  UNL     1      12.811  -6.680 -14.711  1.00  0.00    -0.224 N 
ATOM     12  H5  UNL     1      13.639  -7.271 -14.639  1.00  0.00     0.177 HD
HETATM   13  N6  UNL     1      11.824  -8.551 -14.098  1.00  0.00    -0.154 N 
ATOM     14  H6  UNL     1      12.715  -9.007 -14.292  1.00  0.00     0.187 HD
HETATM   15  C10 UNL     1      10.865  -9.296 -13.522  1.00  0.00     0.288 C 
HETATM   16  O4  UNL     1      11.012 -10.558 -13.529  1.00  0.00    -0.265 OA
HETATM   17  C11 UNL     1       9.688  -8.913 -12.892  1.00  0.00     0.137 A 
HETATM   18  N7  UNL     1       9.181  -9.895 -12.133  1.00  0.00    -0.185 N 
ATOM     19  H7  UNL     1       9.647 -10.798 -12.061  1.00  0.00     0.184 HD
ENDROOT
BRANCH  11  20
HETATM   20  C6  UNL     1      13.037  -5.327 -15.101  1.00  0.00     0.164 C 
BRANCH  20  21
HETATM   21  C7  UNL     1      13.425  -4.493 -13.880  1.00  0.00     0.188 C 
BRANCH  21  22
HETATM   22  O2  UNL     1      14.284  -5.145 -13.099  1.00  0.00    -0.387 OA
BRANCH  22  23
HETATM   23  C8  UNL     1      14.030  -5.329 -11.800  1.00  0.00     0.193 C 
BRANCH  23  24
HETATM   24  C9  UNL     1      14.067  -6.740 -11.312  1.00  0.00     0.190 C 
BRANCH  24  25
HETATM   25  O3  UNL     1      14.355  -7.645 -12.281  1.00  0.00    -0.399 OA
ATOM     26  H3  UNL     1      14.972  -7.327 -12.929  1.00  0.00     0.209 HD
ENDBRANCH  24  25
ENDBRANCH  23  24
ENDBRANCH  22  23
ENDBRANCH  21  22
ENDBRANCH  20  21
ENDBRANCH  11  20
BRANCH   7  27
HETATM   27  N3  UNL     1       8.728  -5.552 -13.704  1.00  0.00    -0.384 N 
ATOM     28  H32 UNL     1       7.726  -5.721 -13.613  1.00  0.00     0.157 HD
ATOM     29  H31 UNL     1       9.197  -4.647 -13.750  1.00  0.00     0.157 HD
ENDBRANCH   7  27
BRANCH   1  30
HETATM   30  N1  UNL     1       7.499 -10.573 -10.710  1.00  0.00    -0.234 N 
ATOM     31  H12 UNL     1       6.496 -10.756 -10.752  1.00  0.00     0.174 HD
ATOM     32  H11 UNL     1       8.095 -11.106 -10.076  1.00  0.00     0.174 HD
ENDBRANCH   1  30
TORSDOF 8
ENDMDL
MODEL 5
REMARK VINA RESULT: -7.889769630      3.725      5.975
REMARK  8 active torsions:
REMARK  status: ('A' for Active; 'I' for Inactive)
REMARK    1  A    between atoms: N1_1  and  C1_4 
REMARK    2  A    between atoms: C4_10  and  N3_11 
REMARK    3  A    between atoms: N5_17  and  C6_19 
REMARK    4  A    between atoms: C6_19  and  C7_20 
REMARK    5  A    between atoms: C7_20  and  O2_21 
REMARK    6  A    between atoms: O2_21  and  C8_22 
REMARK    7  A    between atoms: C8_22  and  C9_23 
REMARK    8  A    between atoms: C9_23  and  O3_24 
ROOT
HETATM    1  C1  UNL     1      14.211  -3.010 -12.210  1.00  0.00     0.679 A 
HETATM    2  N2  UNL     1      14.751  -3.883 -11.341  1.00  0.00    -0.155 N 
ATOM      3  H2  UNL     1      15.351  -3.525 -10.598  1.00  0.00     0.187 HD
HETATM    4  C2  UNL     1      14.531  -5.204 -11.411  1.00  0.00     0.276 A 
HETATM    5  O1  UNL     1      15.027  -6.032 -10.610  1.00  0.00    -0.267 OA
HETATM    6  C3  UNL     1      13.723  -5.700 -12.408  1.00  0.00     0.109 A 
HETATM    7  C4  UNL     1      13.572  -7.067 -12.380  1.00  0.00     0.133 C 
HETATM    8  N4  UNL     1      12.829  -7.822 -13.223  1.00  0.00    -0.176 N 
ATOM      9  H4  UNL     1      13.066  -8.813 -13.283  1.00  0.00     0.186 HD
HETATM   10  C5  UNL     1      11.809  -7.395 -13.990  1.00  0.00     0.682 C 
HETATM   11  N5  UNL     1      10.859  -8.204 -14.187  1.00  0.00    -0.224 N 
ATOM     12  H5  UNL     1      10.094  -7.867 -14.771  1.00  0.00     0.177 HD
HETATM   13  N6  UNL     1      11.636  -6.187 -14.606  1.00  0.00    -0.154 N 
ATOM     14  H6  UNL     1      10.906  -6.125 -15.316  1.00  0.00     0.187 HD
HETATM   15  C10 UNL     1      12.346  -5.073 -14.356  1.00  0.00     0.288 C 
HETATM   16  O4  UNL     1      12.274  -4.125 -15.199  1.00  0.00    -0.265 OA
HETATM   17  C11 UNL     1      13.181  -4.761 -13.291  1.00  0.00     0.137 A 
HETATM   18  N7  UNL     1      13.414  -3.444 -13.203  1.00  0.00    -0.185 N 
ATOM     19  H7  UNL     1      13.000  -2.791 -13.868  1.00  0.00     0.184 HD
ENDROOT
BRANCH  11  20
HETATM   20  C6  UNL     1      10.729  -9.534 -13.689  1.00  0.00     0.164 C 
BRANCH  20  21
HETATM   21  C7  UNL     1       9.789  -9.548 -12.483  1.00  0.00     0.188 C 
BRANCH  21  22
HETATM   22  O2  UNL     1      10.331 -10.194 -11.452  1.00  0.00    -0.387 OA
BRANCH  22  23
HETATM   23  C8  UNL     1      11.481  -9.784 -10.912  1.00  0.00     0.193 C 
BRANCH  23  24
HETATM   24  C9  UNL     1      12.604 -10.769 -10.920  1.00  0.00     0.190 C 
BRANCH  24  25
HETATM   25  O3  UNL     1      13.427 -10.649 -11.992  1.00  0.00    -0.399 OA
ATOM     26  H3  UNL     1      13.270 -11.297 -12.668  1.00  0.00     0.209 HD
ENDBRANCH  24  25
ENDBRANCH  23  24
ENDBRANCH  22  23
ENDBRANCH  21  22
ENDBRANCH  20  21
ENDBRANCH  11  20
BRANCH   7  27
HETATM   27  N3  UNL     1      14.207  -7.668 -11.455  1.00  0.00    -0.384 N 
ATOM     28  H32 UNL     1      14.103  -8.681 -11.392  1.00  0.00     0.157 HD
ATOM     29  H31 UNL     1      14.772  -7.070 -10.852  1.00  0.00     0.157 HD
ENDBRANCH   7  27
BRANCH   1  30
HETATM   30  N1  UNL     1      14.472  -1.733 -12.077  1.00  0.00    -0.234 N 
ATOM     31  H12 UNL     1      13.833  -1.125 -11.564  1.00  0.00     0.174 HD
ATOM     32  H11 UNL     1      15.322  -1.353 -12.495  1.00  0.00     0.174 HD
ENDBRANCH   1  30
TORSDOF 8
ENDMDL
