MODEL 1
REMARK VINA RESULT: -8.131324079      0.000      0.000
REMARK  9 active torsions:
REMARK  status: ('A' for Active; 'I' for Inactive)
REMARK    1  A    between atoms: O1_2  and  C2_3 
REMARK    2  A    between atoms: C3_6  and  N2_7 
REMARK    3  A    between atoms: C4_12  and  N4_13 
REMARK       I    between atoms: N4_13  and  C5_15 
REMARK       I    between atoms: C5_15  and  N7_20 
REMARK    4  A    between atoms: N7_20  and  C7_22 
REMARK    5  A    between atoms: C7_22  and  N8_23 
REMARK    6  A    between atoms: C7_22  and  C8_27 
REMARK    7  A    between atoms: C7_22  and  C9_30 
REMARK    8  A    between atoms: C8_27  and  O2_28 
REMARK    9  A    between atoms: C9_30  and  O3_31 
ROOT
HETATM    1  N4  UNL     1      10.001  -6.652 -12.822  1.00  0.00    -0.174 N 
ATOM      2  H4  UNL     1       9.393  -5.840 -12.725  1.00  0.00     0.186 HD
HETATM    3  C5  UNL     1       9.216  -7.754 -12.801  1.00  0.00     0.691 C 
HETATM    4  N5  UNL     1       8.907  -8.354 -11.710  1.00  0.00    -0.126 N 
ATOM      5  H5  UNL     1       9.277  -7.970 -10.841  1.00  0.00     0.197 HD
HETATM    6  C6  UNL     1       8.116  -9.472 -11.620  1.00  0.00     0.196 C 
HETATM    7  N6  UNL     1       7.458 -10.413 -11.558  1.00  0.00    -0.171 NA
HETATM    8  N7  UNL     1       8.666  -8.289 -13.996  1.00  0.00    -0.186 N 
ATOM      9  H7  UNL     1       8.720  -9.295 -14.153  1.00  0.00     0.180 HD
ENDROOT
BRANCH   1  10
HETATM   10  C4  UNL     1      11.155  -6.240 -12.912  1.00  0.00     0.161 A 
HETATM   11  N3  UNL     1      11.431  -5.231 -13.810  1.00  0.00    -0.175 N 
HETATM   12  C3  UNL     1      12.629  -4.714 -13.988  1.00  0.00     0.679 A 
ATOM     13  H3  UNL     1      10.662  -4.863 -14.369  1.00  0.00     0.186 HD
HETATM   14  N1  UNL     1      13.650  -5.167 -13.280  1.00  0.00    -0.169 N 
HETATM   15  C2  UNL     1      13.465  -6.182 -12.354  1.00  0.00     0.181 A 
ATOM     16  H1  UNL     1      14.579  -4.767 -13.417  1.00  0.00     0.186 HD
HETATM   17  C10 UNL     1      12.204  -6.725 -12.167  1.00  0.00     0.141 A 
HETATM   18  C11 UNL     1      11.993  -7.798 -11.202  1.00  0.00     0.108 C 
HETATM   19  N9  UNL     1      11.801  -8.663 -10.436  1.00  0.00    -0.191 NA
BRANCH  12  20
HETATM   20  N2  UNL     1      12.866  -3.754 -14.849  1.00  0.00    -0.234 N 
ATOM     21  H22 UNL     1      12.744  -3.873 -15.854  1.00  0.00     0.174 HD
ATOM     22  H21 UNL     1      13.188  -2.859 -14.480  1.00  0.00     0.174 HD
ENDBRANCH  12  20
BRANCH  15  23
HETATM   23  O1  UNL     1      14.554  -6.589 -11.672  1.00  0.00    -0.339 OA
HETATM   24  C1  UNL     1      15.637  -6.029 -11.105  1.00  0.00     0.211 C 
ENDBRANCH  15  23
ENDBRANCH   1  10
BRANCH   8  25
HETATM   25  C7  UNL     1       8.034  -7.460 -15.000  1.00  0.00     0.251 C 
BRANCH  25  26
HETATM   26  N8  UNL     1       8.992  -6.760 -15.814  1.00  0.00    -0.048 N 
ATOM     27  H83 UNL     1       9.318  -5.911 -15.351  1.00  0.00     0.277 HD
ATOM     28  H82 UNL     1       9.875  -7.268 -15.863  1.00  0.00     0.277 HD
ATOM     29  H81 UNL     1       8.633  -6.555 -16.746  1.00  0.00     0.277 HD
ENDBRANCH  25  26
BRANCH  25  30
HETATM   30  C8  UNL     1       7.017  -6.525 -14.411  1.00  0.00     0.228 C 
BRANCH  30  31
HETATM   31  O2  UNL     1       7.628  -5.355 -14.011  1.00  0.00    -0.397 OA
ATOM     32  H2  UNL     1       8.388  -5.183 -14.554  1.00  0.00     0.209 HD
ENDBRANCH  30  31
ENDBRANCH  25  30
BRANCH  25  33
HETATM   33  C9  UNL     1       7.274  -8.407 -15.933  1.00  0.00     0.228 C 
BRANCH  33  34
HETATM   34  O3  UNL     1       8.130  -9.360 -16.468  1.00  0.00    -0.397 OA
ATOM     35  H3  UNL     1       7.976 -10.209 -16.071  1.00  0.00     0.209 HD
ENDBRANCH  33  34
ENDBRANCH  25  33
ENDBRANCH   8  25
TORSDOF 9
ENDMDL
MODEL 2
REMARK VINA RESULT: -7.872316462      2.309      3.358
REMARK  9 active torsions:
REMARK  status: ('A' for Active; 'I' for Inactive)
REMARK    1  A    between atoms: O1_2  and  C2_3 
REMARK    2  A    between atoms: C3_6  and  N2_7 
REMARK    3  A    between atoms: C4_12  and  N4_13 
REMARK       I    between atoms: N4_13  and  C5_15 
REMARK       I    between atoms: C5_15  and  N7_20 
REMARK    4  A    between atoms: N7_20  and  C7_22 
REMARK    5  A    between atoms: C7_22  and  N8_23 
REMARK    6  A    between atoms: C7_22  and  C8_27 
REMARK    7  A    between atoms: C7_22  and  C9_30 
REMARK    8  A    between atoms: C8_27  and  O2_28 
REMARK    9  A    between atoms: C9_30  and  O3_31 
ROOT
HETATM    1  N4  UNL     1      10.060  -6.561 -12.800  1.00  0.00    -0.174 N 
ATOM      2  H4  UNL     1      10.445  -5.892 -13.466  1.00  0.00     0.186 HD
HETATM    3  C5  UNL     1       8.721  -6.373 -12.764  1.00  0.00     0.691 C 
HETATM    4  N5  UNL     1       8.167  -5.542 -11.958  1.00  0.00    -0.126 N 
ATOM      5  H5  UNL     1       8.777  -5.017 -11.332  1.00  0.00     0.197 HD
HETATM    6  C6  UNL     1       6.819  -5.304 -11.872  1.00  0.00     0.196 C 
HETATM    7  N6  UNL     1       5.686  -5.118 -11.803  1.00  0.00    -0.171 NA
HETATM    8  N7  UNL     1       7.854  -7.072 -13.646  1.00  0.00    -0.186 N 
ATOM      9  H7  UNL     1       7.010  -7.501 -13.267  1.00  0.00     0.180 HD
ENDROOT
BRANCH   1  10
HETATM   10  C4  UNL     1      10.997  -7.218 -12.352  1.00  0.00     0.161 A 
HETATM   11  N3  UNL     1      12.182  -6.573 -12.068  1.00  0.00    -0.175 N 
HETATM   12  C3  UNL     1      13.248  -7.176 -11.586  1.00  0.00     0.679 A 
ATOM     13  H3  UNL     1      12.236  -5.570 -12.243  1.00  0.00     0.186 HD
HETATM   14  N1  UNL     1      13.214  -8.476 -11.348  1.00  0.00    -0.169 N 
HETATM   15  C2  UNL     1      12.063  -9.206 -11.605  1.00  0.00     0.181 A 
ATOM     16  H1  UNL     1      14.040  -8.945 -10.974  1.00  0.00     0.186 HD
HETATM   17  C10 UNL     1      10.942  -8.570 -12.113  1.00  0.00     0.141 A 
HETATM   18  C11 UNL     1       9.725  -9.324 -12.396  1.00  0.00     0.108 C 
HETATM   19  N9  UNL     1       8.739  -9.909 -12.634  1.00  0.00    -0.191 NA
BRANCH  12  20
HETATM   20  N2  UNL     1      14.365  -6.541 -11.324  1.00  0.00    -0.234 N 
ATOM     21  H22 UNL     1      14.783  -6.521 -10.395  1.00  0.00     0.174 HD
ATOM     22  H21 UNL     1      14.819  -6.050 -12.095  1.00  0.00     0.174 HD
ENDBRANCH  12  20
BRANCH  15  23
HETATM   23  O1  UNL     1      12.107 -10.526 -11.337  1.00  0.00    -0.339 OA
HETATM   24  C1  UNL     1      12.896 -11.574 -11.633  1.00  0.00     0.211 C 
ENDBRANCH  15  23
ENDBRANCH   1  10
BRANCH   8  25
HETATM   25  C7  UNL     1       8.125  -7.198 -15.062  1.00  0.00     0.251 C 
BRANCH  25  26
HETATM   26  N8  UNL     1       8.463  -8.546 -15.436  1.00  0.00    -0.048 N 
ATOM     27  H83 UNL     1       9.415  -8.599 -15.799  1.00  0.00     0.277 HD
ATOM     28  H82 UNL     1       8.570  -9.141 -14.614  1.00  0.00     0.277 HD
ATOM     29  H81 UNL     1       7.795  -8.946 -16.095  1.00  0.00     0.277 HD
ENDBRANCH  25  26
BRANCH  25  30
HETATM   30  C8  UNL     1       9.155  -6.215 -15.538  1.00  0.00     0.228 C 
BRANCH  30  31
HETATM   31  O2  UNL     1       8.679  -5.529 -16.637  1.00  0.00    -0.397 OA
ATOM     32  H2  UNL     1       8.539  -6.130 -17.359  1.00  0.00     0.209 HD
ENDBRANCH  30  31
ENDBRANCH  25  30
BRANCH  25  33
HETATM   33  C9  UNL     1       6.820  -6.857 -15.788  1.00  0.00     0.228 C 
BRANCH  33  34
HETATM   34  O3  UNL     1       6.108  -5.890 -15.090  1.00  0.00    -0.397 OA
ATOM     35  H3  UNL     1       6.647  -5.124 -14.935  1.00  0.00     0.209 HD
ENDBRANCH  33  34
ENDBRANCH  25  33
ENDBRANCH   8  25
TORSDOF 9
ENDMDL
MODEL 3
REMARK VINA RESULT: -7.835808393      2.471      5.680
REMARK  9 active torsions:
REMARK  status: ('A' for Active; 'I' for Inactive)
REMARK    1  A    between atoms: O1_2  and  C2_3 
REMARK    2  A    between atoms: C3_6  and  N2_7 
REMARK    3  A    between atoms: C4_12  and  N4_13 
REMARK       I    between atoms: N4_13  and  C5_15 
REMARK       I    between atoms: C5_15  and  N7_20 
REMARK    4  A    between atoms: N7_20  and  C7_22 
REMARK    5  A    between atoms: C7_22  and  N8_23 
REMARK    6  A    between atoms: C7_22  and  C8_27 
REMARK    7  A    between atoms: C7_22  and  C9_30 
REMARK    8  A    between atoms: C8_27  and  O2_28 
REMARK    9  A    between atoms: C9_30  and  O3_31 
ROOT
HETATM    1  N4  UNL     1      11.129  -6.936 -13.041  1.00  0.00    -0.174 N 
ATOM      2  H4  UNL     1      10.477  -7.166 -12.292  1.00  0.00     0.186 HD
HETATM    3  C5  UNL     1      12.381  -7.105 -12.557  1.00  0.00     0.691 C 
HETATM    4  N5  UNL     1      13.021  -6.162 -11.968  1.00  0.00    -0.126 N 
ATOM      5  H5  UNL     1      12.551  -5.262 -11.874  1.00  0.00     0.197 HD
HETATM    6  C6  UNL     1      14.289  -6.268 -11.455  1.00  0.00     0.196 C 
HETATM    7  N6  UNL     1      15.355  -6.366 -11.034  1.00  0.00    -0.171 NA
HETATM    8  N7  UNL     1      13.044  -8.357 -12.651  1.00  0.00    -0.186 N 
ATOM      9  H7  UNL     1      14.014  -8.376 -12.967  1.00  0.00     0.180 HD
ENDROOT
BRANCH   1  10
HETATM   10  C4  UNL     1      10.465  -6.616 -14.024  1.00  0.00     0.161 A 
HETATM   11  N3  UNL     1      10.998  -5.714 -14.920  1.00  0.00    -0.175 N 
HETATM   12  C3  UNL     1      10.375  -5.301 -16.004  1.00  0.00     0.679 A 
ATOM     13  H3  UNL     1      11.929  -5.343 -14.731  1.00  0.00     0.186 HD
HETATM   14  N1  UNL     1       9.166  -5.759 -16.280  1.00  0.00    -0.169 N 
HETATM   15  C2  UNL     1       8.551  -6.670 -15.434  1.00  0.00     0.181 A 
ATOM     16  H1  UNL     1       8.683  -5.441 -17.120  1.00  0.00     0.186 HD
HETATM   17  C10 UNL     1       9.208  -7.103 -14.293  1.00  0.00     0.141 A 
HETATM   18  C11 UNL     1       8.573  -8.056 -13.388  1.00  0.00     0.108 C 
HETATM   19  N9  UNL     1       8.082  -8.816 -12.645  1.00  0.00    -0.191 NA
BRANCH  12  20
HETATM   20  N2  UNL     1      10.903  -4.441 -16.841  1.00  0.00    -0.234 N 
ATOM     21  H22 UNL     1      10.440  -4.157 -17.704  1.00  0.00     0.174 HD
ATOM     22  H21 UNL     1      11.816  -4.052 -16.603  1.00  0.00     0.174 HD
ENDBRANCH  12  20
BRANCH  15  23
HETATM   23  O1  UNL     1       7.320  -7.091 -15.783  1.00  0.00    -0.339 OA
HETATM   24  C1  UNL     1       6.773  -7.906 -16.702  1.00  0.00     0.211 C 
ENDBRANCH  15  23
ENDBRANCH   1  10
BRANCH   8  25
HETATM   25  C7  UNL     1      12.396  -9.607 -12.316  1.00  0.00     0.251 C 
BRANCH  25  26
HETATM   26  N8  UNL     1      13.327 -10.594 -11.837  1.00  0.00    -0.048 N 
ATOM     27  H83 UNL     1      14.214 -10.166 -11.572  1.00  0.00     0.277 HD
ATOM     28  H82 UNL     1      13.043 -10.957 -10.926  1.00  0.00     0.277 HD
ATOM     29  H81 UNL     1      13.469 -11.351 -12.507  1.00  0.00     0.277 HD
ENDBRANCH  25  26
BRANCH  25  30
HETATM   30  C8  UNL     1      11.556 -10.136 -13.443  1.00  0.00     0.228 C 
BRANCH  30  31
HETATM   31  O2  UNL     1      11.718 -11.502 -13.550  1.00  0.00    -0.397 OA
ATOM     32  H2  UNL     1      12.642 -11.715 -13.605  1.00  0.00     0.209 HD
ENDBRANCH  30  31
ENDBRANCH  25  30
BRANCH  25  33
HETATM   33  C9  UNL     1      11.440  -9.306 -11.157  1.00  0.00     0.228 C 
BRANCH  33  34
HETATM   34  O3  UNL     1      10.327 -10.134 -11.211  1.00  0.00    -0.397 OA
ATOM     35  H3  UNL     1       9.552  -9.638 -11.444  1.00  0.00     0.209 HD
ENDBRANCH  33  34
ENDBRANCH  25  33
ENDBRANCH   8  25
TORSDOF 9
ENDMDL
MODEL 4
REMARK VINA RESULT: -7.764791789      2.379      3.273
REMARK  9 active torsions:
REMARK  status: ('A' for Active; 'I' for Inactive)
REMARK    1  A    between atoms: O1_2  and  C2_3 
REMARK    2  A    between atoms: C3_6  and  N2_7 
REMARK    3  A    between atoms: C4_12  and  N4_13 
REMARK       I    between atoms: N4_13  and  C5_15 
REMARK       I    between atoms: C5_15  and  N7_20 
REMARK    4  A    between atoms: N7_20  and  C7_22 
REMARK    5  A    between atoms: C7_22  and  N8_23 
REMARK    6  A    between atoms: C7_22  and  C8_27 
REMARK    7  A    between atoms: C7_22  and  C9_30 
REMARK    8  A    between atoms: C8_27  and  O2_28 
REMARK    9  A    between atoms: C9_30  and  O3_31 
ROOT
HETATM    1  N4  UNL     1      10.044  -6.867 -12.088  1.00  0.00    -0.174 N 
ATOM      2  H4  UNL     1      10.368  -6.000 -12.516  1.00  0.00     0.186 HD
HETATM    3  C5  UNL     1       8.699  -6.783 -11.968  1.00  0.00     0.691 C 
HETATM    4  N5  UNL     1       8.133  -6.282 -10.932  1.00  0.00    -0.126 N 
ATOM      5  H5  UNL     1       8.737  -5.942 -10.184  1.00  0.00     0.197 HD
HETATM    6  C6  UNL     1       6.777  -6.168 -10.749  1.00  0.00     0.196 C 
HETATM    7  N6  UNL     1       5.640  -6.083 -10.604  1.00  0.00    -0.171 NA
HETATM    8  N7  UNL     1       7.838  -7.224 -13.008  1.00  0.00    -0.186 N 
ATOM      9  H7  UNL     1       7.033  -7.802 -12.767  1.00  0.00     0.180 HD
ENDROOT
BRANCH   1  10
HETATM   10  C4  UNL     1      11.031  -7.570 -11.886  1.00  0.00     0.161 A 
HETATM   11  N3  UNL     1      12.252  -6.959 -11.692  1.00  0.00    -0.175 N 
HETATM   12  C3  UNL     1      13.372  -7.613 -11.468  1.00  0.00     0.679 A 
ATOM     13  H3  UNL     1      12.289  -5.940 -11.724  1.00  0.00     0.186 HD
HETATM   14  N1  UNL     1      13.361  -8.935 -11.422  1.00  0.00    -0.169 N 
HETATM   15  C2  UNL     1      12.178  -9.633 -11.607  1.00  0.00     0.181 A 
ATOM     16  H1  UNL     1      14.229  -9.443 -11.248  1.00  0.00     0.186 HD
HETATM   17  C10 UNL     1      10.999  -8.943 -11.842  1.00  0.00     0.141 A 
HETATM   18  C11 UNL     1       9.746  -9.662 -12.046  1.00  0.00     0.108 C 
HETATM   19  N9  UNL     1       8.729 -10.218 -12.217  1.00  0.00    -0.191 NA
BRANCH  12  20
HETATM   20  N2  UNL     1      14.522  -7.010 -11.287  1.00  0.00    -0.234 N 
ATOM     21  H22 UNL     1      15.387  -7.330 -11.721  1.00  0.00     0.174 HD
ATOM     22  H21 UNL     1      14.532  -6.188 -10.683  1.00  0.00     0.174 HD
ENDBRANCH  12  20
BRANCH  15  23
HETATM   23  O1  UNL     1      12.248 -10.977 -11.544  1.00  0.00    -0.339 OA
HETATM   24  C1  UNL     1      12.991 -11.959 -12.085  1.00  0.00     0.211 C 
ENDBRANCH  15  23
ENDBRANCH   1  10
BRANCH   8  25
HETATM   25  C7  UNL     1       8.061  -6.886 -14.397  1.00  0.00     0.251 C 
BRANCH  25  26
HETATM   26  N8  UNL     1       9.117  -5.922 -14.563  1.00  0.00    -0.048 N 
ATOM     27  H83 UNL     1       8.768  -4.970 -14.452  1.00  0.00     0.277 HD
ATOM     28  H82 UNL     1       9.768  -5.950 -13.777  1.00  0.00     0.277 HD
ATOM     29  H81 UNL     1       9.608  -6.033 -15.451  1.00  0.00     0.277 HD
ENDBRANCH  25  26
BRANCH  25  30
HETATM   30  C8  UNL     1       6.801  -6.452 -15.089  1.00  0.00     0.228 C 
BRANCH  30  31
HETATM   31  O2  UNL     1       6.938  -6.602 -16.454  1.00  0.00    -0.397 OA
ATOM     32  H2  UNL     1       7.856  -6.691 -16.681  1.00  0.00     0.209 HD
ENDBRANCH  30  31
ENDBRANCH  25  30
BRANCH  25  33
HETATM   33  C9  UNL     1       8.526  -8.170 -15.091  1.00  0.00     0.228 C 
BRANCH  33  34
HETATM   34  O3  UNL     1       7.605  -9.191 -14.901  1.00  0.00    -0.397 OA
ATOM     35  H3  UNL     1       6.877  -8.892 -14.370  1.00  0.00     0.209 HD
ENDBRANCH  33  34
ENDBRANCH  25  33
ENDBRANCH   8  25
TORSDOF 9
ENDMDL
MODEL 5
REMARK VINA RESULT: -7.643961601      2.104      3.178
REMARK  9 active torsions:
REMARK  status: ('A' for Active; 'I' for Inactive)
REMARK    1  A    between atoms: O1_2  and  C2_3 
REMARK    2  A    between atoms: C3_6  and  N2_7 
REMARK    3  A    between atoms: C4_12  and  N4_13 
REMARK       I    between atoms: N4_13  and  C5_15 
REMARK       I    between atoms: C5_15  and  N7_20 
REMARK    4  A    between atoms: N7_20  and  C7_22 
REMARK    5  A    between atoms: C7_22  and  N8_23 
REMARK    6  A    between atoms: C7_22  and  C8_27 
REMARK    7  A    between atoms: C7_22  and  C9_30 
REMARK    8  A    between atoms: C8_27  and  O2_28 
REMARK    9  A    between atoms: C9_30  and  O3_31 
ROOT
HETATM    1  N4  UNL     1      11.073  -6.718 -13.477  1.00  0.00    -0.174 N 
ATOM      2  H4  UNL     1      11.425  -7.575 -13.904  1.00  0.00     0.186 HD
HETATM    3  C5  UNL     1       9.734  -6.690 -13.665  1.00  0.00     0.691 C 
HETATM    4  N5  UNL     1       9.199  -6.165 -14.706  1.00  0.00    -0.126 N 
ATOM      5  H5  UNL     1       9.824  -5.760 -15.402  1.00  0.00     0.197 HD
HETATM    6  C6  UNL     1       7.851  -6.105 -14.957  1.00  0.00     0.196 C 
HETATM    7  N6  UNL     1       6.719  -6.054 -15.154  1.00  0.00    -0.171 NA
HETATM    8  N7  UNL     1       8.845  -7.274 -12.723  1.00  0.00    -0.186 N 
ATOM      9  H7  UNL     1       8.022  -6.747 -12.434  1.00  0.00     0.180 HD
ENDROOT
BRANCH   1  10
HETATM   10  C4  UNL     1      12.035  -6.124 -12.996  1.00  0.00     0.161 A 
HETATM   11  N3  UNL     1      12.120  -4.757 -13.162  1.00  0.00    -0.175 N 
HETATM   12  C3  UNL     1      13.104  -4.021 -12.690  1.00  0.00     0.679 A 
ATOM     13  H3  UNL     1      11.377  -4.290 -13.681  1.00  0.00     0.186 HD
HETATM   14  N1  UNL     1      14.085  -4.593 -12.013  1.00  0.00    -0.169 N 
HETATM   15  C2  UNL     1      14.082  -5.964 -11.798  1.00  0.00     0.181 A 
ATOM     16  H1  UNL     1      14.848  -4.024 -11.647  1.00  0.00     0.186 HD
HETATM   17  C10 UNL     1      13.046  -6.737 -12.295  1.00  0.00     0.141 A 
HETATM   18  C11 UNL     1      13.030  -8.181 -12.085  1.00  0.00     0.108 C 
HETATM   19  N9  UNL     1      12.999  -9.342 -11.932  1.00  0.00    -0.191 NA
BRANCH  12  20
HETATM   20  N2  UNL     1      13.163  -2.723 -12.862  1.00  0.00    -0.234 N 
ATOM     21  H22 UNL     1      13.703  -2.110 -12.251  1.00  0.00     0.174 HD
ATOM     22  H21 UNL     1      12.640  -2.326 -13.643  1.00  0.00     0.174 HD
ENDBRANCH  12  20
BRANCH  15  23
HETATM   23  O1  UNL     1      15.116  -6.472 -11.099  1.00  0.00    -0.339 OA
HETATM   24  C1  UNL     1      16.396  -6.151 -10.846  1.00  0.00     0.211 C 
ENDBRANCH  15  23
ENDBRANCH   1  10
BRANCH   8  25
HETATM   25  C7  UNL     1       9.065  -8.588 -12.158  1.00  0.00     0.251 C 
BRANCH  25  26
HETATM   26  N8  UNL     1       9.942  -8.553 -11.018  1.00  0.00    -0.048 N 
ATOM     27  H83 UNL     1      10.699  -9.230 -11.114  1.00  0.00     0.277 HD
ATOM     28  H82 UNL     1      10.493  -7.694 -11.003  1.00  0.00     0.277 HD
ATOM     29  H81 UNL     1       9.441  -8.685 -10.139  1.00  0.00     0.277 HD
ENDBRANCH  25  26
BRANCH  25  30
HETATM   30  C8  UNL     1       9.528  -9.581 -13.184  1.00  0.00     0.228 C 
BRANCH  30  31
HETATM   31  O2  UNL     1      10.493 -10.405 -12.641  1.00  0.00    -0.397 OA
ATOM     32  H2  UNL     1      11.297 -10.336 -13.141  1.00  0.00     0.209 HD
ENDBRANCH  30  31
ENDBRANCH  25  30
BRANCH  25  33
HETATM   33  C9  UNL     1       7.706  -9.079 -11.651  1.00  0.00     0.228 C 
BRANCH  33  34
HETATM   34  O3  UNL     1       7.750 -10.435 -11.362  1.00  0.00    -0.397 OA
ATOM     35  H3  UNL     1       6.995 -10.694 -10.847  1.00  0.00     0.209 HD
ENDBRANCH  33  34
ENDBRANCH  25  33
ENDBRANCH   8  25
TORSDOF 9
ENDMDL
