MODEL 1
REMARK VINA RESULT: -7.427016486      0.000      0.000
REMARK  10 active torsions:
REMARK  status: ('A' for Active; 'I' for Inactive)
REMARK    1  A    between atoms: S1_3  and  N1_5 
REMARK    2  A    between atoms: S1_3  and  N3_13 
REMARK    3  A    between atoms: N1_5  and  C3_7 
REMARK    4  A    between atoms: C3_7  and  C4_8 
REMARK    5  A    between atoms: C4_8  and  N2_9 
REMARK    6  A    between atoms: C5_14  and  C6_15 
REMARK    7  A    between atoms: C6_15  and  O2_16 
REMARK    8  A    between atoms: C7_18  and  O3_19 
REMARK    9  A    between atoms: C9_25  and  N5_26 
REMARK   10  A    between atoms: N5_26  and  N6_28 
ROOT
HETATM    1  C1  UNL     1       7.537  -5.826 -11.688  1.00  0.00     0.115 C 
HETATM    2  C2  UNL     1       8.349  -6.263 -12.517  1.00  0.00    -0.056 C 
HETATM    3  S1  UNL     1       9.626  -7.021 -13.936  1.00  0.00     0.176 S 
HETATM    4  O1  UNL     1      10.030  -6.315 -14.638  1.00  0.00    -0.215 OA
ENDROOT
BRANCH   3   5
HETATM    5  N1  UNL     1       8.458  -8.102 -15.031  1.00  0.00    -0.325 N 
ATOM      6  H1  UNL     1       8.338  -9.115 -15.012  1.00  0.00     0.171 HD
BRANCH   5   7
HETATM    7  C3  UNL     1       7.805  -7.158 -15.870  1.00  0.00     0.158 C 
BRANCH   7   8
HETATM    8  C4  UNL     1       7.024  -7.894 -16.977  1.00  0.00     0.249 C 
BRANCH   8   9
HETATM    9  N2  UNL     1       7.618  -9.208 -17.030  1.00  0.00    -0.078 N 
ATOM     10  H23 UNL     1       8.169  -9.449 -16.206  1.00  0.00     0.274 HD
ATOM     11  H22 UNL     1       6.947  -9.972 -16.944  1.00  0.00     0.274 HD
ATOM     12  H21 UNL     1       8.148  -9.217 -17.901  1.00  0.00     0.274 HD
ENDBRANCH   8   9
ENDBRANCH   7   8
ENDBRANCH   5   7
ENDBRANCH   3   5
BRANCH   3  13
HETATM   13  N3  UNL     1      11.097  -7.881 -13.096  1.00  0.00    -0.223 N 
HETATM   14  C5  UNL     1      12.251  -7.319 -12.889  1.00  0.00     0.103 A 
HETATM   15  C7  UNL     1      13.274  -8.028 -12.272  1.00  0.00     0.169 A 
HETATM   16  N4  UNL     1      13.140  -9.305 -11.869  1.00  0.00    -0.299 N 
HETATM   17  C8  UNL     1      11.977  -9.895 -12.087  1.00  0.00     0.294 A 
ATOM     18  H4  UNL     1      13.906  -9.799 -11.413  1.00  0.00     0.171 HD
HETATM   19  O4  UNL     1      11.889 -11.077 -11.705  1.00  0.00    -0.264 OA
HETATM   20  C9  UNL     1      10.970  -9.188 -12.695  1.00  0.00     0.216 A 
BRANCH  14  21
HETATM   21  C6  UNL     1      12.801  -6.142 -13.650  1.00  0.00     0.227 C 
BRANCH  21  22
HETATM   22  O2  UNL     1      13.188  -6.365 -14.893  1.00  0.00    -0.395 OA
ATOM     23  H2  UNL     1      13.025  -5.673 -15.523  1.00  0.00     0.209 HD
ENDBRANCH  21  22
ENDBRANCH  14  21
BRANCH  15  24
HETATM   24  O3  UNL     1      14.503  -7.364 -12.053  1.00  0.00    -0.344 OA
ATOM     25  H3  UNL     1      15.298  -7.787 -12.355  1.00  0.00     0.219 HD
ENDBRANCH  15  24
BRANCH  20  26
HETATM   26  N5  UNL     1       9.855  -9.799 -13.023  1.00  0.00    -0.214 N 
ATOM     27  H5  UNL     1       9.800 -10.214 -13.953  1.00  0.00     0.203 HD
BRANCH  26  28
HETATM   28  N6  UNL     1       8.807  -9.915 -12.241  1.00  0.00    -0.348 NA
HETATM   29  C10 UNL     1       7.891  -9.764 -11.497  1.00  0.00     0.258 C 
ENDBRANCH  26  28
ENDBRANCH  20  26
ENDBRANCH   3  13
TORSDOF 10
ENDMDL
MODEL 2
REMARK VINA RESULT: -7.370339384      2.374      5.540
REMARK  10 active torsions:
REMARK  status: ('A' for Active; 'I' for Inactive)
REMARK    1  A    between atoms: S1_3  and  N1_5 
REMARK    2  A    between atoms: S1_3  and  N3_13 
REMARK    3  A    between atoms: N1_5  and  C3_7 
REMARK    4  A    between atoms: C3_7  and  C4_8 
REMARK    5  A    between atoms: C4_8  and  N2_9 
REMARK    6  A    between atoms: C5_14  and  C6_15 
REMARK    7  A    between atoms: C6_15  and  O2_16 
REMARK    8  A    between atoms: C7_18  and  O3_19 
REMARK    9  A    between atoms: C9_25  and  N5_26 
REMARK   10  A    between atoms: N5_26  and  N6_28 
ROOT
HETATM    1  C1  UNL     1       7.546  -9.538 -11.260  1.00  0.00     0.115 C 
HETATM    2  C2  UNL     1       8.659  -9.473 -11.803  1.00  0.00    -0.056 C 
HETATM    3  S1  UNL     1      10.539  -9.384 -12.625  1.00  0.00     0.176 S 
HETATM    4  O1  UNL     1      10.834 -10.223 -13.228  1.00  0.00    -0.215 OA
ENDROOT
BRANCH   3   5
HETATM    5  N1  UNL     1      11.690  -9.536 -11.081  1.00  0.00    -0.325 N 
ATOM      6  H1  UNL     1      11.784  -8.885 -10.300  1.00  0.00     0.171 HD
BRANCH   5   7
HETATM    7  C3  UNL     1      12.375 -10.765 -11.285  1.00  0.00     0.158 C 
BRANCH   7   8
HETATM    8  C4  UNL     1      13.415 -10.977 -10.165  1.00  0.00     0.249 C 
BRANCH   8   9
HETATM    9  N2  UNL     1      13.774  -9.643  -9.745  1.00  0.00    -0.078 N 
ATOM     10  H23 UNL     1      14.375  -9.147 -10.404  1.00  0.00     0.274 HD
ATOM     11  H22 UNL     1      13.002  -8.977  -9.772  1.00  0.00     0.274 HD
ATOM     12  H21 UNL     1      14.185  -9.767  -8.820  1.00  0.00     0.274 HD
ENDBRANCH   8   9
ENDBRANCH   7   8
ENDBRANCH   5   7
ENDBRANCH   3   5
BRANCH   3  13
HETATM   13  N3  UNL     1      10.706  -7.830 -13.703  1.00  0.00    -0.223 N 
HETATM   14  C5  UNL     1       9.715  -7.258 -14.322  1.00  0.00     0.103 A 
HETATM   15  C7  UNL     1       9.932  -6.125 -15.096  1.00  0.00     0.169 A 
HETATM   16  N4  UNL     1      11.148  -5.570 -15.254  1.00  0.00    -0.299 N 
HETATM   17  C8  UNL     1      12.168  -6.149 -14.644  1.00  0.00     0.294 A 
ATOM     18  H4  UNL     1      11.276  -4.735 -15.824  1.00  0.00     0.171 HD
HETATM   19  O4  UNL     1      13.277  -5.610 -14.816  1.00  0.00    -0.264 OA
HETATM   20  C9  UNL     1      11.946  -7.266 -13.880  1.00  0.00     0.216 A 
BRANCH  14  21
HETATM   21  C6  UNL     1       8.420  -7.926 -14.703  1.00  0.00     0.227 C 
BRANCH  21  22
HETATM   22  O2  UNL     1       8.510  -9.079 -15.341  1.00  0.00    -0.395 OA
ATOM     23  H2  UNL     1       9.340  -9.537 -15.281  1.00  0.00     0.209 HD
ENDBRANCH  21  22
ENDBRANCH  14  21
BRANCH  15  24
HETATM   24  O3  UNL     1       8.818  -5.532 -15.731  1.00  0.00    -0.344 OA
ATOM     25  H3  UNL     1       8.914  -4.650 -16.068  1.00  0.00     0.219 HD
ENDBRANCH  15  24
BRANCH  20  26
HETATM   26  N5  UNL     1      12.966  -7.916 -13.369  1.00  0.00    -0.214 N 
ATOM     27  H5  UNL     1      13.219  -8.808 -13.794  1.00  0.00     0.203 HD
BRANCH  26  28
HETATM   28  N6  UNL     1      13.685  -7.501 -12.351  1.00  0.00    -0.348 NA
HETATM   29  C10 UNL     1      14.221  -6.896 -11.478  1.00  0.00     0.258 C 
ENDBRANCH  26  28
ENDBRANCH  20  26
ENDBRANCH   3  13
TORSDOF 10
ENDMDL
MODEL 3
REMARK VINA RESULT: -7.342659842      1.361      3.464
REMARK  10 active torsions:
REMARK  status: ('A' for Active; 'I' for Inactive)
REMARK    1  A    between atoms: S1_3  and  N1_5 
REMARK    2  A    between atoms: S1_3  and  N3_13 
REMARK    3  A    between atoms: N1_5  and  C3_7 
REMARK    4  A    between atoms: C3_7  and  C4_8 
REMARK    5  A    between atoms: C4_8  and  N2_9 
REMARK    6  A    between atoms: C5_14  and  C6_15 
REMARK    7  A    between atoms: C6_15  and  O2_16 
REMARK    8  A    between atoms: C7_18  and  O3_19 
REMARK    9  A    between atoms: C9_25  and  N5_26 
REMARK   10  A    between atoms: N5_26  and  N6_28 
ROOT
HETATM    1  C1  UNL     1       7.452  -5.631 -11.644  1.00  0.00     0.115 C 
HETATM    2  C2  UNL     1       8.281  -6.118 -12.427  1.00  0.00    -0.056 C 
HETATM    3  S1  UNL     1       9.589  -6.960 -13.768  1.00  0.00     0.176 S 
HETATM    4  O1  UNL     1      10.028  -6.293 -14.487  1.00  0.00    -0.215 OA
ENDROOT
BRANCH   3   5
HETATM    5  N1  UNL     1       8.436  -8.067 -14.854  1.00  0.00    -0.325 N 
ATOM      6  H1  UNL     1       8.255  -9.067 -14.761  1.00  0.00     0.171 HD
BRANCH   5   7
HETATM    7  C3  UNL     1       7.898  -7.164 -15.812  1.00  0.00     0.158 C 
BRANCH   7   8
HETATM    8  C4  UNL     1       7.073  -7.941 -16.858  1.00  0.00     0.249 C 
BRANCH   8   9
HETATM    9  N2  UNL     1       7.730  -9.222 -16.961  1.00  0.00    -0.078 N 
ATOM     10  H23 UNL     1       8.716  -9.165 -17.218  1.00  0.00     0.274 HD
ATOM     11  H22 UNL     1       7.873  -9.691 -16.066  1.00  0.00     0.274 HD
ATOM     12  H21 UNL     1       7.159  -9.752 -17.621  1.00  0.00     0.274 HD
ENDBRANCH   8   9
ENDBRANCH   7   8
ENDBRANCH   5   7
ENDBRANCH   3   5
BRANCH   3  13
HETATM   13  N3  UNL     1      11.014  -7.809 -12.844  1.00  0.00    -0.223 N 
HETATM   14  C5  UNL     1      10.900  -8.929 -12.193  1.00  0.00     0.103 A 
HETATM   15  C7  UNL     1      11.997  -9.475 -11.539  1.00  0.00     0.169 A 
HETATM   16  N4  UNL     1      13.210  -8.890 -11.533  1.00  0.00    -0.299 N 
HETATM   17  C8  UNL     1      13.338  -7.743 -12.178  1.00  0.00     0.294 A 
ATOM     18  H4  UNL     1      13.999  -9.317 -11.050  1.00  0.00     0.171 HD
HETATM   19  O4  UNL     1      14.472  -7.229 -12.148  1.00  0.00    -0.264 OA
HETATM   20  C9  UNL     1      12.250  -7.211 -12.823  1.00  0.00     0.216 A 
BRANCH  14  21
HETATM   21  C6  UNL     1       9.616  -9.496 -11.646  1.00  0.00     0.227 C 
BRANCH  21  22
HETATM   22  O2  UNL     1       8.902 -10.247 -12.465  1.00  0.00    -0.395 OA
ATOM     23  H2  UNL     1       8.792 -11.158 -12.223  1.00  0.00     0.209 HD
ENDBRANCH  21  22
ENDBRANCH  14  21
BRANCH  15  24
HETATM   24  O3  UNL     1      11.824 -10.703 -10.863  1.00  0.00    -0.344 OA
ATOM     25  H3  UNL     1      11.495 -10.679  -9.972  1.00  0.00     0.219 HD
ENDBRANCH  15  24
BRANCH  20  26
HETATM   26  N5  UNL     1      12.336  -6.017 -13.363  1.00  0.00    -0.214 N 
ATOM     27  H5  UNL     1      12.095  -5.926 -14.350  1.00  0.00     0.203 HD
BRANCH  26  28
HETATM   28  N6  UNL     1      12.709  -4.932 -12.724  1.00  0.00    -0.348 NA
HETATM   29  C10 UNL     1      13.247  -3.954 -12.311  1.00  0.00     0.258 C 
ENDBRANCH  26  28
ENDBRANCH  20  26
ENDBRANCH   3  13
TORSDOF 10
ENDMDL
MODEL 4
REMARK VINA RESULT: -7.250679250      2.578      4.422
REMARK  10 active torsions:
REMARK  status: ('A' for Active; 'I' for Inactive)
REMARK    1  A    between atoms: S1_3  and  N1_5 
REMARK    2  A    between atoms: S1_3  and  N3_13 
REMARK    3  A    between atoms: N1_5  and  C3_7 
REMARK    4  A    between atoms: C3_7  and  C4_8 
REMARK    5  A    between atoms: C4_8  and  N2_9 
REMARK    6  A    between atoms: C5_14  and  C6_15 
REMARK    7  A    between atoms: C6_15  and  O2_16 
REMARK    8  A    between atoms: C7_18  and  O3_19 
REMARK    9  A    between atoms: C9_25  and  N5_26 
REMARK   10  A    between atoms: N5_26  and  N6_28 
ROOT
HETATM    1  C1  UNL     1       7.690 -10.073 -11.527  1.00  0.00     0.115 C 
HETATM    2  C2  UNL     1       8.106  -8.905 -11.511  1.00  0.00    -0.056 C 
HETATM    3  S1  UNL     1       8.713  -6.943 -11.492  1.00  0.00     0.176 S 
HETATM    4  O1  UNL     1       8.993  -6.541 -10.536  1.00  0.00    -0.215 OA
ENDROOT
BRANCH   3   5
HETATM    5  N1  UNL     1       7.086  -5.987 -11.904  1.00  0.00    -0.325 N 
ATOM      6  H1  UNL     1       6.653  -5.846 -12.817  1.00  0.00     0.171 HD
BRANCH   5   7
HETATM    7  C3  UNL     1       6.631  -5.525 -10.638  1.00  0.00     0.158 C 
BRANCH   7   8
HETATM    8  C4  UNL     1       5.154  -5.094 -10.738  1.00  0.00     0.249 C 
BRANCH   8   9
HETATM    9  N2  UNL     1       5.191  -3.652 -10.669  1.00  0.00    -0.078 N 
ATOM     10  H23 UNL     1       5.564  -3.204 -11.506  1.00  0.00     0.274 HD
ATOM     11  H22 UNL     1       4.271  -3.210 -10.704  1.00  0.00     0.274 HD
ATOM     12  H21 UNL     1       5.717  -3.449  -9.819  1.00  0.00     0.274 HD
ENDBRANCH   8   9
ENDBRANCH   7   8
ENDBRANCH   5   7
ENDBRANCH   3   5
BRANCH   3  13
HETATM   13  N3  UNL     1      10.195  -6.708 -12.657  1.00  0.00    -0.223 N 
HETATM   14  C5  UNL     1      10.105  -6.259 -13.874  1.00  0.00     0.103 A 
HETATM   15  C7  UNL     1      11.244  -6.125 -14.658  1.00  0.00     0.169 A 
HETATM   16  N4  UNL     1      12.474  -6.450 -14.220  1.00  0.00    -0.299 N 
HETATM   17  C8  UNL     1      12.581  -6.924 -12.990  1.00  0.00     0.294 A 
ATOM     18  H4  UNL     1      13.294  -6.336 -14.816  1.00  0.00     0.171 HD
HETATM   19  O4  UNL     1      13.733  -7.217 -12.621  1.00  0.00    -0.264 OA
HETATM   20  C9  UNL     1      11.451  -7.051 -12.221  1.00  0.00     0.216 A 
BRANCH  14  21
HETATM   21  C6  UNL     1       8.868  -6.298 -14.732  1.00  0.00     0.227 C 
BRANCH  21  22
HETATM   22  O2  UNL     1       7.993  -5.323 -14.561  1.00  0.00    -0.395 OA
ATOM     23  H2  UNL     1       7.122  -5.464 -14.911  1.00  0.00     0.209 HD
ENDBRANCH  21  22
ENDBRANCH  14  21
BRANCH  15  24
HETATM   24  O3  UNL     1      11.092  -5.613 -15.966  1.00  0.00    -0.344 OA
ATOM     25  H3  UNL     1      11.494  -4.776 -16.167  1.00  0.00     0.219 HD
ENDBRANCH  15  24
BRANCH  20  26
HETATM   26  N5  UNL     1      11.529  -7.630 -11.046  1.00  0.00    -0.214 N 
ATOM     27  H5  UNL     1      11.461  -7.035 -10.220  1.00  0.00     0.203 HD
BRANCH  26  28
HETATM   28  N6  UNL     1      11.688  -8.920 -10.856  1.00  0.00    -0.348 NA
HETATM   29  C10 UNL     1      11.891 -10.089 -10.937  1.00  0.00     0.258 C 
ENDBRANCH  26  28
ENDBRANCH  20  26
ENDBRANCH   3  13
TORSDOF 10
ENDMDL
MODEL 5
REMARK VINA RESULT: -7.168917111      2.120      3.498
REMARK  10 active torsions:
REMARK  status: ('A' for Active; 'I' for Inactive)
REMARK    1  A    between atoms: S1_3  and  N1_5 
REMARK    2  A    between atoms: S1_3  and  N3_13 
REMARK    3  A    between atoms: N1_5  and  C3_7 
REMARK    4  A    between atoms: C3_7  and  C4_8 
REMARK    5  A    between atoms: C4_8  and  N2_9 
REMARK    6  A    between atoms: C5_14  and  C6_15 
REMARK    7  A    between atoms: C6_15  and  O2_16 
REMARK    8  A    between atoms: C7_18  and  O3_19 
REMARK    9  A    between atoms: C9_25  and  N5_26 
REMARK   10  A    between atoms: N5_26  and  N6_28 
ROOT
HETATM    1  C1  UNL     1       7.850  -6.668 -11.306  1.00  0.00     0.115 C 
HETATM    2  C2  UNL     1       9.030  -6.743 -11.677  1.00  0.00    -0.056 C 
HETATM    3  S1  UNL     1      10.964  -6.824 -12.364  1.00  0.00     0.176 S 
HETATM    4  O1  UNL     1      11.663  -6.156 -11.896  1.00  0.00    -0.215 OA
ENDROOT
BRANCH   3   5
HETATM    5  N1  UNL     1      10.814  -6.109 -14.152  1.00  0.00    -0.325 N 
ATOM      6  H1  UNL     1       9.969  -5.815 -14.643  1.00  0.00     0.171 HD
BRANCH   5   7
HETATM    7  C3  UNL     1      12.156  -6.087 -14.625  1.00  0.00     0.158 C 
BRANCH   7   8
HETATM    8  C4  UNL     1      12.590  -4.633 -14.900  1.00  0.00     0.249 C 
BRANCH   8   9
HETATM    9  N2  UNL     1      13.342  -4.250 -13.729  1.00  0.00    -0.078 N 
ATOM     10  H23 UNL     1      13.362  -3.244 -13.557  1.00  0.00     0.274 HD
ATOM     11  H22 UNL     1      12.898  -4.507 -12.847  1.00  0.00     0.274 HD
ATOM     12  H21 UNL     1      14.263  -4.666 -13.867  1.00  0.00     0.274 HD
ENDBRANCH   8   9
ENDBRANCH   7   8
ENDBRANCH   5   7
ENDBRANCH   3   5
BRANCH   3  13
HETATM   13  N3  UNL     1      11.652  -8.584 -12.170  1.00  0.00    -0.223 N 
HETATM   14  C5  UNL     1      12.396  -8.973 -11.177  1.00  0.00     0.103 A 
HETATM   15  C7  UNL     1      12.861 -10.281 -11.121  1.00  0.00     0.169 A 
HETATM   16  N4  UNL     1      12.584 -11.196 -12.067  1.00  0.00    -0.299 N 
HETATM   17  C8  UNL     1      11.841 -10.812 -13.091  1.00  0.00     0.294 A 
ATOM     18  H4  UNL     1      12.934 -12.151 -11.996  1.00  0.00     0.171 HD
HETATM   19  O4  UNL     1      11.608 -11.684 -13.949  1.00  0.00    -0.264 OA
HETATM   20  C9  UNL     1      11.384  -9.519 -13.139  1.00  0.00     0.216 A 
BRANCH  14  21
HETATM   21  C6  UNL     1      13.227  -8.073 -10.300  1.00  0.00     0.227 C 
BRANCH  21  22
HETATM   22  O2  UNL     1      14.305  -7.540 -10.846  1.00  0.00    -0.395 OA
ATOM     23  H2  UNL     1      14.473  -6.625 -10.657  1.00  0.00     0.209 HD
ENDBRANCH  21  22
ENDBRANCH  14  21
BRANCH  15  24
HETATM   24  O3  UNL     1      13.650 -10.657 -10.010  1.00  0.00    -0.344 OA
ATOM     25  H3  UNL     1      13.823 -11.582  -9.879  1.00  0.00     0.219 HD
ENDBRANCH  15  24
BRANCH  20  26
HETATM   26  N5  UNL     1      10.748  -9.095 -14.207  1.00  0.00    -0.214 N 
ATOM     27  H5  UNL     1      11.310  -8.782 -14.999  1.00  0.00     0.203 HD
BRANCH  26  28
HETATM   28  N6  UNL     1       9.442  -9.045 -14.330  1.00  0.00    -0.348 NA
HETATM   29  C10 UNL     1       8.301  -8.747 -14.491  1.00  0.00     0.258 C 
ENDBRANCH  26  28
ENDBRANCH  20  26
ENDBRANCH   3  13
TORSDOF 10
ENDMDL
