MODEL 1
REMARK VINA RESULT: -8.050720908      0.000      0.000
REMARK  9 active torsions:
REMARK  status: ('A' for Active; 'I' for Inactive)
REMARK    1  A    between atoms: N1_1  and  C1_4 
REMARK    2  A    between atoms: C2_7  and  C3_8 
REMARK    3  A    between atoms: C3_8  and  O1_9 
REMARK    4  A    between atoms: O1_9  and  N3_10 
REMARK    5  A    between atoms: C5_15  and  N6_16 
REMARK    6  A    between atoms: N6_16  and  N7_18 
REMARK    7  A    between atoms: C6_21  and  N8_22 
REMARK    8  A    between atoms: N8_22  and  S1_24 
REMARK    9  A    between atoms: S1_24  and  C7_27 
ROOT
HETATM    1  C1  UNL     1       9.468  -6.424 -14.811  1.00  0.00     0.677 A 
HETATM    2  N2  UNL     1      10.601  -5.773 -15.160  1.00  0.00    -0.191 N 
ATOM      3  H2  UNL     1      10.526  -4.882 -15.650  1.00  0.00     0.184 HD
HETATM    4  C2  UNL     1      11.820  -6.258 -14.883  1.00  0.00     0.084 A 
HETATM    5  C5  UNL     1      11.925  -7.483 -14.207  1.00  0.00     0.118 A 
HETATM    6  C6  UNL     1      10.775  -8.144 -13.853  1.00  0.00     0.161 A 
HETATM    7  N9  UNL     1       9.593  -7.591 -14.167  1.00  0.00    -0.174 N 
ATOM      8  H9  UNL     1       8.743  -8.088 -13.900  1.00  0.00     0.186 HD
ENDROOT
BRANCH   4   9
HETATM    9  C3  UNL     1      13.106  -5.616 -15.215  1.00  0.00     0.261 C 
BRANCH   9  10
HETATM   10  O1  UNL     1      13.792  -5.136 -14.117  1.00  0.00    -0.272 OA
BRANCH  10  11
HETATM   11  N3  UNL     1      13.491  -4.047 -13.359  1.00  0.00    -0.240 N 
HETATM   12  C4  UNL     1      13.854  -3.940 -12.133  1.00  0.00     0.221 C 
HETATM   13  N4  UNL     1      13.476  -2.747 -11.444  1.00  0.00    -0.065 NA
HETATM   14  N5  UNL     1      14.605  -4.943 -11.450  1.00  0.00    -0.065 NA
ATOM     15  H3  UNL     1      12.955  -3.288 -13.781  1.00  0.00     0.196 HD
ENDBRANCH  10  11
ENDBRANCH   9  10
ENDBRANCH   4   9
BRANCH   5  16
HETATM   16  N6  UNL     1      13.185  -8.025 -13.893  1.00  0.00    -0.302 N 
ATOM     17  H6  UNL     1      13.706  -8.552 -14.593  1.00  0.00     0.186 HD
BRANCH  16  18
HETATM   18  N7  UNL     1      13.713  -7.836 -12.618  1.00  0.00    -0.345 N 
ATOM     19  H72 UNL     1      14.375  -8.516 -12.245  1.00  0.00     0.176 HD
ATOM     20  H71 UNL     1      13.431  -7.021 -12.074  1.00  0.00     0.176 HD
ENDBRANCH  16  18
ENDBRANCH   5  16
BRANCH   1  21
HETATM   21  N1  UNL     1       8.293  -5.934 -15.091  1.00  0.00    -0.234 N 
ATOM     22  H12 UNL     1       7.996  -5.034 -14.715  1.00  0.00     0.174 HD
ATOM     23  H11 UNL     1       7.640  -6.435 -15.693  1.00  0.00     0.174 HD
ENDBRANCH   1  21
BRANCH   6  24
HETATM   24  N8  UNL     1      10.903  -9.267 -13.233  1.00  0.00    -0.262 N 
ATOM     25  H8  UNL     1      11.241 -10.082 -13.747  1.00  0.00     0.180 HD
BRANCH  24  26
HETATM   26  S1  UNL     1      10.518  -9.430 -11.559  1.00  0.00     0.289 S 
HETATM   27  O2  UNL     1      11.460 -10.405 -10.887  1.00  0.00    -0.198 OA
HETATM   28  O3  UNL     1       9.137  -9.998 -11.377  1.00  0.00    -0.198 OA
BRANCH  26  29
HETATM   29  C7  UNL     1      10.672  -7.883 -10.764  1.00  0.00     0.389 C 
HETATM   30  O4  UNL     1       9.796  -7.061 -10.883  1.00  0.00    -0.288 OA
ENDBRANCH  26  29
ENDBRANCH  24  26
ENDBRANCH   6  24
TORSDOF 9
ENDMDL
MODEL 2
REMARK VINA RESULT: -8.020116429      0.745      1.209
REMARK  9 active torsions:
REMARK  status: ('A' for Active; 'I' for Inactive)
REMARK    1  A    between atoms: N1_1  and  C1_4 
REMARK    2  A    between atoms: C2_7  and  C3_8 
REMARK    3  A    between atoms: C3_8  and  O1_9 
REMARK    4  A    between atoms: O1_9  and  N3_10 
REMARK    5  A    between atoms: C5_15  and  N6_16 
REMARK    6  A    between atoms: N6_16  and  N7_18 
REMARK    7  A    between atoms: C6_21  and  N8_22 
REMARK    8  A    between atoms: N8_22  and  S1_24 
REMARK    9  A    between atoms: S1_24  and  C7_27 
ROOT
HETATM    1  C1  UNL     1       9.488  -6.534 -14.813  1.00  0.00     0.677 A 
HETATM    2  N2  UNL     1      10.596  -5.838 -15.155  1.00  0.00    -0.191 N 
ATOM      3  H2  UNL     1      10.489  -4.954 -15.652  1.00  0.00     0.184 HD
HETATM    4  C2  UNL     1      11.832  -6.271 -14.864  1.00  0.00     0.084 A 
HETATM    5  C5  UNL     1      11.982  -7.486 -14.180  1.00  0.00     0.118 A 
HETATM    6  C6  UNL     1      10.857  -8.192 -13.832  1.00  0.00     0.161 A 
HETATM    7  N9  UNL     1       9.656  -7.691 -14.160  1.00  0.00    -0.174 N 
ATOM      8  H9  UNL     1       8.825  -8.221 -13.898  1.00  0.00     0.186 HD
ENDROOT
BRANCH   4   9
HETATM    9  C3  UNL     1      13.093  -5.578 -15.189  1.00  0.00     0.261 C 
BRANCH   9  10
HETATM   10  O1  UNL     1      13.769  -5.098 -14.084  1.00  0.00    -0.272 OA
BRANCH  10  11
HETATM   11  N3  UNL     1      13.464  -4.007 -13.331  1.00  0.00    -0.240 N 
HETATM   12  C4  UNL     1      13.846  -3.884 -12.112  1.00  0.00     0.221 C 
HETATM   13  N4  UNL     1      13.461  -2.690 -11.428  1.00  0.00    -0.065 NA
HETATM   14  N5  UNL     1      14.620  -4.870 -11.431  1.00  0.00    -0.065 NA
ATOM     15  H3  UNL     1      12.912  -3.260 -13.751  1.00  0.00     0.196 HD
ENDBRANCH  10  11
ENDBRANCH   9  10
ENDBRANCH   4   9
BRANCH   5  16
HETATM   16  N6  UNL     1      13.260  -7.973 -13.850  1.00  0.00    -0.302 N 
ATOM     17  H6  UNL     1      13.830  -8.438 -14.557  1.00  0.00     0.186 HD
BRANCH  16  18
HETATM   18  N7  UNL     1      13.739  -7.814 -12.553  1.00  0.00    -0.345 N 
ATOM     19  H72 UNL     1      13.474  -6.986 -12.020  1.00  0.00     0.176 HD
ATOM     20  H71 UNL     1      14.349  -8.526 -12.153  1.00  0.00     0.176 HD
ENDBRANCH  16  18
ENDBRANCH   5  16
BRANCH   1  21
HETATM   21  N1  UNL     1       8.297  -6.095 -15.107  1.00  0.00    -0.234 N 
ATOM     22  H12 UNL     1       8.157  -5.408 -15.847  1.00  0.00     0.174 HD
ATOM     23  H11 UNL     1       7.473  -6.426 -14.606  1.00  0.00     0.174 HD
ENDBRANCH   1  21
BRANCH   6  24
HETATM   24  N8  UNL     1      11.026  -9.305 -13.204  1.00  0.00    -0.262 N 
ATOM     25  H8  UNL     1      11.417 -10.103 -13.705  1.00  0.00     0.180 HD
BRANCH  24  26
HETATM   26  S1  UNL     1      10.608  -9.482 -11.539  1.00  0.00     0.289 S 
HETATM   27  O2  UNL     1      11.039  -8.266 -10.748  1.00  0.00    -0.198 OA
HETATM   28  O3  UNL     1      11.328 -10.652 -10.925  1.00  0.00    -0.198 OA
BRANCH  26  29
HETATM   29  C7  UNL     1       8.878  -9.655 -11.379  1.00  0.00     0.389 C 
HETATM   30  O4  UNL     1       8.232 -10.083 -12.305  1.00  0.00    -0.288 OA
ENDBRANCH  26  29
ENDBRANCH  24  26
ENDBRANCH   6  24
TORSDOF 9
ENDMDL
MODEL 3
REMARK VINA RESULT: -7.931476865      1.704      3.159
REMARK  9 active torsions:
REMARK  status: ('A' for Active; 'I' for Inactive)
REMARK    1  A    between atoms: N1_1  and  C1_4 
REMARK    2  A    between atoms: C2_7  and  C3_8 
REMARK    3  A    between atoms: C3_8  and  O1_9 
REMARK    4  A    between atoms: O1_9  and  N3_10 
REMARK    5  A    between atoms: C5_15  and  N6_16 
REMARK    6  A    between atoms: N6_16  and  N7_18 
REMARK    7  A    between atoms: C6_21  and  N8_22 
REMARK    8  A    between atoms: N8_22  and  S1_24 
REMARK    9  A    between atoms: S1_24  and  C7_27 
ROOT
HETATM    1  C1  UNL     1      12.413  -8.766 -12.776  1.00  0.00     0.677 A 
HETATM    2  N2  UNL     1      12.930  -7.826 -13.599  1.00  0.00    -0.191 N 
ATOM      3  H2  UNL     1      13.940  -7.796 -13.740  1.00  0.00     0.184 HD
HETATM    4  C2  UNL     1      12.162  -6.930 -14.237  1.00  0.00     0.084 A 
HETATM    5  C5  UNL     1      10.773  -6.971 -14.046  1.00  0.00     0.118 A 
HETATM    6  C6  UNL     1      10.247  -7.925 -13.211  1.00  0.00     0.161 A 
HETATM    7  N9  UNL     1      11.084  -8.785 -12.609  1.00  0.00    -0.174 N 
ATOM      8  H9  UNL     1      10.686  -9.491 -11.990  1.00  0.00     0.186 HD
ENDROOT
BRANCH   4   9
HETATM    9  C3  UNL     1      12.636  -5.879 -15.157  1.00  0.00     0.261 C 
BRANCH   9  10
HETATM   10  O1  UNL     1      13.584  -5.039 -14.606  1.00  0.00    -0.272 OA
BRANCH  10  11
HETATM   11  N3  UNL     1      13.393  -4.069 -13.672  1.00  0.00    -0.240 N 
HETATM   12  C4  UNL     1      13.782  -4.199 -12.456  1.00  0.00     0.221 C 
HETATM   13  N4  UNL     1      13.524  -3.107 -11.571  1.00  0.00    -0.065 NA
HETATM   14  N5  UNL     1      14.448  -5.362 -11.968  1.00  0.00    -0.065 NA
ATOM     15  H3  UNL     1      12.924  -3.206 -13.948  1.00  0.00     0.196 HD
ENDBRANCH  10  11
ENDBRANCH   9  10
ENDBRANCH   4   9
BRANCH   5  16
HETATM   16  N6  UNL     1       9.931  -6.054 -14.701  1.00  0.00    -0.302 N 
ATOM     17  H6  UNL     1       9.905  -5.078 -14.404  1.00  0.00     0.186 HD
BRANCH  16  18
HETATM   18  N7  UNL     1       9.132  -6.489 -15.756  1.00  0.00    -0.345 N 
ATOM     19  H72 UNL     1       9.077  -7.487 -15.961  1.00  0.00     0.176 HD
ATOM     20  H71 UNL     1       8.615  -5.806 -16.308  1.00  0.00     0.176 HD
ENDBRANCH  16  18
ENDBRANCH   5  16
BRANCH   1  21
HETATM   21  N1  UNL     1      13.178  -9.625 -12.166  1.00  0.00    -0.234 N 
ATOM     22  H12 UNL     1      14.190  -9.498 -12.132  1.00  0.00     0.174 HD
ATOM     23  H11 UNL     1      12.789 -10.448 -11.705  1.00  0.00     0.174 HD
ENDBRANCH   1  21
BRANCH   6  24
HETATM   24  N8  UNL     1       8.968  -7.937 -13.055  1.00  0.00    -0.262 N 
ATOM     25  H8  UNL     1       8.387  -8.405 -13.752  1.00  0.00     0.180 HD
BRANCH  24  26
HETATM   26  S1  UNL     1       8.210  -7.184 -11.700  1.00  0.00     0.289 S 
HETATM   27  O2  UNL     1       9.246  -6.702 -10.708  1.00  0.00    -0.198 OA
HETATM   28  O3  UNL     1       7.347  -8.164 -10.953  1.00  0.00    -0.198 OA
BRANCH  26  29
HETATM   29  C7  UNL     1       7.279  -5.806 -12.233  1.00  0.00     0.389 C 
HETATM   30  O4  UNL     1       7.262  -5.515 -13.405  1.00  0.00    -0.288 OA
ENDBRANCH  26  29
ENDBRANCH  24  26
ENDBRANCH   6  24
TORSDOF 9
ENDMDL
MODEL 4
REMARK VINA RESULT: -7.803275397      2.868      5.079
REMARK  9 active torsions:
REMARK  status: ('A' for Active; 'I' for Inactive)
REMARK    1  A    between atoms: N1_1  and  C1_4 
REMARK    2  A    between atoms: C2_7  and  C3_8 
REMARK    3  A    between atoms: C3_8  and  O1_9 
REMARK    4  A    between atoms: O1_9  and  N3_10 
REMARK    5  A    between atoms: C5_15  and  N6_16 
REMARK    6  A    between atoms: N6_16  and  N7_18 
REMARK    7  A    between atoms: C6_21  and  N8_22 
REMARK    8  A    between atoms: N8_22  and  S1_24 
REMARK    9  A    between atoms: S1_24  and  C7_27 
ROOT
HETATM    1  C1  UNL     1      12.415  -6.114 -14.404  1.00  0.00     0.677 A 
HETATM    2  N2  UNL     1      12.965  -6.711 -13.322  1.00  0.00    -0.191 N 
ATOM      3  H2  UNL     1      13.976  -6.839 -13.292  1.00  0.00     0.184 HD
HETATM    4  C2  UNL     1      12.228  -7.140 -12.288  1.00  0.00     0.084 A 
HETATM    5  C5  UNL     1      10.836  -6.962 -12.327  1.00  0.00     0.118 A 
HETATM    6  C6  UNL     1      10.278  -6.356 -13.425  1.00  0.00     0.161 A 
HETATM    7  N9  UNL     1      11.085  -5.956 -14.419  1.00  0.00    -0.174 N 
ATOM      8  H9  UNL     1      10.662  -5.506 -15.231  1.00  0.00     0.186 HD
ENDROOT
BRANCH   4   9
HETATM    9  C3  UNL     1      12.740  -7.791 -11.067  1.00  0.00     0.261 C 
BRANCH   9  10
HETATM   10  O1  UNL     1      12.378  -9.119 -10.947  1.00  0.00    -0.272 OA
BRANCH  10  11
HETATM   11  N3  UNL     1      13.014 -10.204 -11.466  1.00  0.00    -0.240 N 
HETATM   12  C4  UNL     1      12.519 -10.897 -12.425  1.00  0.00     0.221 C 
HETATM   13  N4  UNL     1      13.285 -12.014 -12.882  1.00  0.00    -0.065 NA
HETATM   14  N5  UNL     1      11.265 -10.602 -13.038  1.00  0.00    -0.065 NA
ATOM     15  H3  UNL     1      13.917 -10.476 -11.078  1.00  0.00     0.196 HD
ENDBRANCH  10  11
ENDBRANCH   9  10
ENDBRANCH   4   9
BRANCH   5  16
HETATM   16  N6  UNL     1      10.027  -7.393 -11.260  1.00  0.00    -0.302 N 
ATOM     17  H6  UNL     1       9.839  -6.770 -10.474  1.00  0.00     0.186 HD
BRANCH  16  18
HETATM   18  N7  UNL     1       9.484  -8.675 -11.286  1.00  0.00    -0.345 N 
ATOM     19  H72 UNL     1       9.224  -9.089 -12.182  1.00  0.00     0.176 HD
ATOM     20  H71 UNL     1       9.353  -9.182 -10.412  1.00  0.00     0.176 HD
ENDBRANCH  16  18
ENDBRANCH   5  16
BRANCH   1  21
HETATM   21  N1  UNL     1      13.151  -5.706 -15.399  1.00  0.00    -0.234 N 
ATOM     22  H12 UNL     1      14.165  -5.813 -15.381  1.00  0.00     0.174 HD
ATOM     23  H11 UNL     1      12.735  -5.269 -16.221  1.00  0.00     0.174 HD
ENDBRANCH   1  21
BRANCH   6  24
HETATM   24  N8  UNL     1       8.997  -6.207 -13.433  1.00  0.00    -0.262 N 
ATOM     25  H8  UNL     1       8.539  -5.812 -12.611  1.00  0.00     0.180 HD
BRANCH  24  26
HETATM   26  S1  UNL     1       8.038  -6.659 -14.794  1.00  0.00     0.289 S 
HETATM   27  O2  UNL     1       8.617  -6.087 -16.069  1.00  0.00    -0.198 OA
HETATM   28  O3  UNL     1       6.647  -6.095 -14.682  1.00  0.00    -0.198 OA
BRANCH  26  29
HETATM   29  C7  UNL     1       8.001  -8.398 -14.941  1.00  0.00     0.389 C 
HETATM   30  O4  UNL     1       8.049  -9.083 -13.947  1.00  0.00    -0.288 OA
ENDBRANCH  26  29
ENDBRANCH  24  26
ENDBRANCH   6  24
TORSDOF 9
ENDMDL
MODEL 5
REMARK VINA RESULT: -7.738498357      2.872      4.758
REMARK  9 active torsions:
REMARK  status: ('A' for Active; 'I' for Inactive)
REMARK    1  A    between atoms: N1_1  and  C1_4 
REMARK    2  A    between atoms: C2_7  and  C3_8 
REMARK    3  A    between atoms: C3_8  and  O1_9 
REMARK    4  A    between atoms: O1_9  and  N3_10 
REMARK    5  A    between atoms: C5_15  and  N6_16 
REMARK    6  A    between atoms: N6_16  and  N7_18 
REMARK    7  A    between atoms: C6_21  and  N8_22 
REMARK    8  A    between atoms: N8_22  and  S1_24 
REMARK    9  A    between atoms: S1_24  and  C7_27 
ROOT
HETATM    1  C1  UNL     1      12.514  -6.199 -14.737  1.00  0.00     0.677 A 
HETATM    2  N2  UNL     1      11.232  -5.821 -14.534  1.00  0.00    -0.191 N 
ATOM      3  H2  UNL     1      10.876  -5.001 -15.025  1.00  0.00     0.184 HD
HETATM    4  C2  UNL     1      10.410  -6.487 -13.708  1.00  0.00     0.084 A 
HETATM    5  C5  UNL     1      10.898  -7.616 -13.033  1.00  0.00     0.118 A 
HETATM    6  C6  UNL     1      12.199  -8.000 -13.239  1.00  0.00     0.161 A 
HETATM    7  N9  UNL     1      12.957  -7.280 -14.082  1.00  0.00    -0.174 N 
ATOM      8  H9  UNL     1      13.922  -7.572 -14.230  1.00  0.00     0.186 HD
ENDROOT
BRANCH   4   9
HETATM    9  C3  UNL     1       9.000  -6.154 -13.432  1.00  0.00     0.261 C 
BRANCH   9  10
HETATM   10  O1  UNL     1       8.756  -5.792 -12.121  1.00  0.00    -0.272 OA
BRANCH  10  11
HETATM   11  N3  UNL     1       7.555  -5.525 -11.542  1.00  0.00    -0.240 N 
HETATM   12  C4  UNL     1       6.842  -6.435 -10.986  1.00  0.00     0.221 C 
HETATM   13  N4  UNL     1       5.598  -6.027 -10.412  1.00  0.00    -0.065 NA
HETATM   14  N5  UNL     1       7.234  -7.805 -10.920  1.00  0.00    -0.065 NA
ATOM     15  H3  UNL     1       7.208  -4.566 -11.550  1.00  0.00     0.196 HD
ENDBRANCH  10  11
ENDBRANCH   9  10
ENDBRANCH   4   9
BRANCH   5  16
HETATM   16  N6  UNL     1      10.068  -8.346 -12.162  1.00  0.00    -0.302 N 
ATOM     17  H6  UNL     1       9.411  -9.032 -12.534  1.00  0.00     0.186 HD
BRANCH  16  18
HETATM   18  N7  UNL     1      10.151  -8.123 -10.790  1.00  0.00    -0.345 N 
ATOM     19  H72 UNL     1      10.446  -7.208 -10.449  1.00  0.00     0.176 HD
ATOM     20  H71 UNL     1       9.918  -8.877 -10.144  1.00  0.00     0.176 HD
ENDBRANCH  16  18
ENDBRANCH   5  16
BRANCH   1  21
HETATM   21  N1  UNL     1      13.294  -5.536 -15.543  1.00  0.00    -0.234 N 
ATOM     22  H12 UNL     1      14.030  -4.930 -15.182  1.00  0.00     0.174 HD
ATOM     23  H11 UNL     1      13.191  -5.606 -16.556  1.00  0.00     0.174 HD
ENDBRANCH   1  21
BRANCH   6  24
HETATM   24  N8  UNL     1      12.619  -9.041 -12.605  1.00  0.00    -0.262 N 
ATOM     25  H8  UNL     1      13.143  -8.916 -11.738  1.00  0.00     0.180 HD
BRANCH  24  26
HETATM   26  S1  UNL     1      12.318 -10.639 -13.182  1.00  0.00     0.289 S 
HETATM   27  O2  UNL     1      12.854 -10.810 -14.586  1.00  0.00    -0.198 OA
HETATM   28  O3  UNL     1      10.840 -10.911 -13.267  1.00  0.00    -0.198 OA
BRANCH  26  29
HETATM   29  C7  UNL     1      13.112 -11.800 -12.147  1.00  0.00     0.389 C 
HETATM   30  O4  UNL     1      14.002 -12.484 -12.591  1.00  0.00    -0.288 OA
ENDBRANCH  26  29
ENDBRANCH  24  26
ENDBRANCH   6  24
TORSDOF 9
ENDMDL
