MODEL 1
REMARK VINA RESULT: -6.723385067      0.000      0.000
REMARK  17 active torsions:
REMARK  status: ('A' for Active; 'I' for Inactive)
REMARK    1  A    between atoms: C2_2  and  O2_4 
REMARK    2  A    between atoms: O2_4  and  C3_5 
REMARK    3  A    between atoms: C4_6  and  N1_7 
REMARK    4  A    between atoms: C5_11  and  O3_12 
REMARK    5  A    between atoms: O3_12  and  C6_13 
REMARK    6  A    between atoms: C8_16  and  O5_17 
REMARK    7  A    between atoms: O5_17  and  C9_18 
REMARK    8  A    between atoms: C9_18  and  C10_20 
REMARK    9  A    between atoms: C10_20  and  O7_21 
REMARK   10  A    between atoms: C10_20  and  C21_37 
REMARK   11  A    between atoms: O7_21  and  C11_22 
REMARK   12  A    between atoms: C11_22  and  C12_24 
REMARK   13  A    between atoms: C21_37  and  O9_39 
REMARK   14  A    between atoms: C23_41  and  O10_42 
REMARK   15  A    between atoms: O10_42  and  C24_43 
REMARK   16  A    between atoms: C26_46  and  O12_47 
REMARK   17  A    between atoms: O12_47  and  C27_48 
ROOT
HETATM    1  C12 UNL     1      22.252   4.478  29.869  1.00  0.00     0.072 A 
HETATM    2  C13 UNL     1      23.284   5.269  29.469  1.00  0.00    -0.021 A 
HETATM    3  C14 UNL     1      23.165   6.748  29.465  1.00  0.00     0.051 C 
HETATM    4  C15 UNL     1      24.482   4.727  29.052  1.00  0.00     0.077 A 
HETATM    5  C16 UNL     1      25.561   5.581  28.634  1.00  0.00     0.102 C 
HETATM    6  N2  UNL     1      26.417   6.279  28.299  1.00  0.00    -0.191 NA
HETATM    7  C17 UNL     1      24.701   3.367  29.017  1.00  0.00     0.090 A 
HETATM    8  N3  UNL     1      25.935   2.805  28.588  1.00  0.00    -0.099 NA
HETATM    9  C18 UNL     1      23.646   2.556  29.425  1.00  0.00     0.095 A 
HETATM   10  C19 UNL     1      23.850   1.138  29.397  1.00  0.00     0.103 C 
HETATM   11  N4  UNL     1      24.016  -0.006  29.355  1.00  0.00    -0.191 NA
HETATM   12  C20 UNL     1      22.464   3.099  29.836  1.00  0.00     0.086 A 
HETATM   13  N5  UNL     1      21.387   2.268  30.254  1.00  0.00    -0.100 NA
ENDROOT
BRANCH   1  14
HETATM   14  C11 UNL     1      20.977   5.027  30.312  1.00  0.00     0.296 C 
HETATM   15  O8  UNL     1      20.658   5.175  31.515  1.00  0.00    -0.259 OA
BRANCH  14  16
HETATM   16  O7  UNL     1      20.023   5.426  29.383  1.00  0.00    -0.299 OA
BRANCH  16  17
HETATM   17  C10 UNL     1      18.789   4.758  29.211  1.00  0.00     0.259 C 
BRANCH  17  18
HETATM   18  C9  UNL     1      18.596   4.316  27.805  1.00  0.00     0.291 C 
HETATM   19  O6  UNL     1      17.540   3.711  27.541  1.00  0.00    -0.262 OA
BRANCH  18  20
HETATM   20  O5  UNL     1      19.497   4.535  26.807  1.00  0.00    -0.308 OA
BRANCH  20  21
HETATM   21  C8  UNL     1      19.633   5.741  26.081  1.00  0.00     0.195 C 
HETATM   22  C5  UNL     1      18.300   6.315  25.795  1.00  0.00     0.197 C 
HETATM   23  C4  UNL     1      17.687   5.909  24.494  1.00  0.00     0.247 C 
HETATM   24  C3  UNL     1      18.632   5.851  23.343  1.00  0.00     0.197 C 
HETATM   25  C26 UNL     1      19.888   5.104  23.652  1.00  0.00     0.195 C 
HETATM   26  C23 UNL     1      20.551   5.624  24.901  1.00  0.00     0.196 C 
BRANCH  22  27
HETATM   27  O3  UNL     1      18.340   7.721  25.969  1.00  0.00    -0.311 OA
BRANCH  27  28
HETATM   28  C6  UNL     1      17.306   8.476  26.443  1.00  0.00     0.255 C 
HETATM   29  C7  UNL     1      17.280   9.955  26.503  1.00  0.00     0.126 C 
HETATM   30  O4  UNL     1      16.281   7.883  26.870  1.00  0.00    -0.266 OA
ENDBRANCH  27  28
ENDBRANCH  22  27
BRANCH  23  31
HETATM   31  N1  UNL     1      17.042   4.590  24.594  1.00  0.00    -0.070 N 
ATOM     32  H13 UNL     1      17.408   3.914  23.924  1.00  0.00     0.274 HD
ATOM     33  H12 UNL     1      17.296   4.084  25.442  1.00  0.00     0.274 HD
ATOM     34  H11 UNL     1      16.037   4.739  24.503  1.00  0.00     0.274 HD
ENDBRANCH  23  31
BRANCH  24  35
HETATM   35  O2  UNL     1      18.995   7.128  22.853  1.00  0.00    -0.311 OA
BRANCH  35  36
HETATM   36  C2  UNL     1      18.137   7.959  22.175  1.00  0.00     0.255 C 
HETATM   37  C1  UNL     1      18.148   9.411  22.537  1.00  0.00     0.126 C 
HETATM   38  O1  UNL     1      17.391   7.482  21.296  1.00  0.00    -0.266 OA
ENDBRANCH  35  36
ENDBRANCH  24  35
BRANCH  25  39
HETATM   39  O12 UNL     1      19.722   3.711  23.738  1.00  0.00    -0.311 OA
BRANCH  39  40
HETATM   40  C27 UNL     1      20.815   2.866  23.812  1.00  0.00     0.255 C 
HETATM   41  C28 UNL     1      21.041   1.913  24.923  1.00  0.00     0.126 C 
HETATM   42  O13 UNL     1      21.656   2.939  22.853  1.00  0.00    -0.266 OA
ENDBRANCH  39  40
ENDBRANCH  25  39
BRANCH  26  43
HETATM   43  O10 UNL     1      21.123   6.893  24.633  1.00  0.00    -0.311 OA
BRANCH  43  44
HETATM   44  C24 UNL     1      22.229   7.394  25.305  1.00  0.00     0.255 C 
HETATM   45  C25 UNL     1      22.587   8.838  25.324  1.00  0.00     0.126 C 
HETATM   46  O11 UNL     1      22.939   6.547  25.920  1.00  0.00    -0.266 OA
ENDBRANCH  43  44
ENDBRANCH  26  43
ENDBRANCH  20  21
ENDBRANCH  18  20
ENDBRANCH  17  18
BRANCH  17  47
HETATM   47  C21 UNL     1      17.639   5.629  29.678  1.00  0.00     0.153 C 
HETATM   48  C22 UNL     1      17.004   4.933  30.869  1.00  0.00     0.042 C 
BRANCH  47  49
HETATM   49  O9  UNL     1      16.720   5.862  28.684  1.00  0.00    -0.393 OA
ATOM     50  H9  UNL     1      16.503   6.783  28.599  1.00  0.00     0.210 HD
ENDBRANCH  47  49
ENDBRANCH  17  47
ENDBRANCH  16  17
ENDBRANCH  14  16
ENDBRANCH   1  14
TORSDOF 17
ENDMDL
MODEL 2
REMARK VINA RESULT: -6.464643182      2.504      4.731
REMARK  17 active torsions:
REMARK  status: ('A' for Active; 'I' for Inactive)
REMARK    1  A    between atoms: C2_2  and  O2_4 
REMARK    2  A    between atoms: O2_4  and  C3_5 
REMARK    3  A    between atoms: C4_6  and  N1_7 
REMARK    4  A    between atoms: C5_11  and  O3_12 
REMARK    5  A    between atoms: O3_12  and  C6_13 
REMARK    6  A    between atoms: C8_16  and  O5_17 
REMARK    7  A    between atoms: O5_17  and  C9_18 
REMARK    8  A    between atoms: C9_18  and  C10_20 
REMARK    9  A    between atoms: C10_20  and  O7_21 
REMARK   10  A    between atoms: C10_20  and  C21_37 
REMARK   11  A    between atoms: O7_21  and  C11_22 
REMARK   12  A    between atoms: C11_22  and  C12_24 
REMARK   13  A    between atoms: C21_37  and  O9_39 
REMARK   14  A    between atoms: C23_41  and  O10_42 
REMARK   15  A    between atoms: O10_42  and  C24_43 
REMARK   16  A    between atoms: C26_46  and  O12_47 
REMARK   17  A    between atoms: O12_47  and  C27_48 
ROOT
HETATM    1  C12 UNL     1      25.816   4.791  29.421  1.00  0.00     0.072 A 
HETATM    2  C13 UNL     1      26.612   4.795  30.523  1.00  0.00    -0.021 A 
HETATM    3  C14 UNL     1      26.984   3.533  31.211  1.00  0.00     0.051 C 
HETATM    4  C15 UNL     1      27.106   5.972  31.047  1.00  0.00     0.077 A 
HETATM    5  C16 UNL     1      27.947   5.954  32.213  1.00  0.00     0.102 C 
HETATM    6  N2  UNL     1      28.619   5.924  33.152  1.00  0.00    -0.191 NA
HETATM    7  C17 UNL     1      26.825   7.200  30.489  1.00  0.00     0.090 A 
HETATM    8  N3  UNL     1      27.332   8.414  31.025  1.00  0.00    -0.099 NA
HETATM    9  C18 UNL     1      26.010   7.197  29.360  1.00  0.00     0.095 A 
HETATM   10  C19 UNL     1      25.702   8.463  28.762  1.00  0.00     0.103 C 
HETATM   11  N4  UNL     1      25.445   9.490  28.294  1.00  0.00    -0.191 NA
HETATM   12  C20 UNL     1      25.525   6.030  28.849  1.00  0.00     0.086 A 
HETATM   13  N5  UNL     1      24.692   6.031  27.695  1.00  0.00    -0.100 NA
ENDROOT
BRANCH   1  14
HETATM   14  C11 UNL     1      25.282   3.560  28.851  1.00  0.00     0.296 C 
HETATM   15  O8  UNL     1      25.883   2.863  28.001  1.00  0.00    -0.259 OA
BRANCH  14  16
HETATM   16  O7  UNL     1      24.033   3.091  29.241  1.00  0.00    -0.299 OA
BRANCH  16  17
HETATM   17  C10 UNL     1      22.970   2.884  28.333  1.00  0.00     0.259 C 
BRANCH  17  18
HETATM   18  C9  UNL     1      21.996   4.008  28.364  1.00  0.00     0.291 C 
HETATM   19  O6  UNL     1      21.682   4.454  29.483  1.00  0.00    -0.262 OA
BRANCH  18  20
HETATM   20  O5  UNL     1      21.440   4.565  27.253  1.00  0.00    -0.308 OA
BRANCH  20  21
HETATM   21  C8  UNL     1      20.063   4.835  27.078  1.00  0.00     0.195 C 
HETATM   22  C5  UNL     1      19.380   3.650  26.517  1.00  0.00     0.197 C 
HETATM   23  C4  UNL     1      19.291   3.601  25.026  1.00  0.00     0.247 C 
HETATM   24  C3  UNL     1      18.979   4.903  24.370  1.00  0.00     0.197 C 
HETATM   25  C26 UNL     1      19.829   6.027  24.866  1.00  0.00     0.195 C 
HETATM   26  C23 UNL     1      19.796   6.129  26.369  1.00  0.00     0.196 C 
BRANCH  22  27
HETATM   27  O3  UNL     1      18.124   3.480  27.149  1.00  0.00    -0.311 OA
BRANCH  27  28
HETATM   28  C6  UNL     1      17.908   3.585  28.493  1.00  0.00     0.255 C 
HETATM   29  C7  UNL     1      16.987   4.544  29.143  1.00  0.00     0.126 C 
HETATM   30  O4  UNL     1      18.536   2.809  29.260  1.00  0.00    -0.266 OA
ENDBRANCH  27  28
ENDBRANCH  22  27
BRANCH  23  31
HETATM   31  N1  UNL     1      20.540   3.102  24.429  1.00  0.00    -0.070 N 
ATOM     32  H13 UNL     1      21.305   3.774  24.482  1.00  0.00     0.274 HD
ATOM     33  H12 UNL     1      20.977   2.363  24.978  1.00  0.00     0.274 HD
ATOM     34  H11 UNL     1      20.324   2.816  23.474  1.00  0.00     0.274 HD
ENDBRANCH  23  31
BRANCH  24  35
HETATM   35  O2  UNL     1      17.625   5.289  24.510  1.00  0.00    -0.311 OA
BRANCH  35  36
HETATM   36  C2  UNL     1      17.024   6.259  23.746  1.00  0.00     0.255 C 
HETATM   37  C1  UNL     1      17.417   6.351  22.306  1.00  0.00     0.126 C 
HETATM   38  O1  UNL     1      16.184   7.018  24.273  1.00  0.00    -0.266 OA
ENDBRANCH  35  36
ENDBRANCH  24  35
BRANCH  25  39
HETATM   39  O12 UNL     1      21.159   5.984  24.414  1.00  0.00    -0.311 OA
BRANCH  39  40
HETATM   40  C27 UNL     1      21.465   6.161  23.076  1.00  0.00     0.255 C 
HETATM   41  C28 UNL     1      21.223   7.423  22.340  1.00  0.00     0.126 C 
HETATM   42  O13 UNL     1      21.981   5.160  22.474  1.00  0.00    -0.266 OA
ENDBRANCH  39  40
ENDBRANCH  25  39
BRANCH  26  43
HETATM   43  O10 UNL     1      18.533   6.627  26.776  1.00  0.00    -0.311 OA
BRANCH  43  44
HETATM   44  C24 UNL     1      18.330   7.922  27.232  1.00  0.00     0.255 C 
HETATM   45  C25 UNL     1      18.240   8.272  28.676  1.00  0.00     0.126 C 
HETATM   46  O11 UNL     1      18.221   8.817  26.346  1.00  0.00    -0.266 OA
ENDBRANCH  43  44
ENDBRANCH  26  43
ENDBRANCH  20  21
ENDBRANCH  18  20
ENDBRANCH  17  18
BRANCH  17  47
HETATM   47  C21 UNL     1      22.288   1.556  28.598  1.00  0.00     0.153 C 
HETATM   48  C22 UNL     1      22.126   0.860  27.259  1.00  0.00     0.042 C 
BRANCH  47  49
HETATM   49  O9  UNL     1      21.080   1.705  29.236  1.00  0.00    -0.393 OA
ATOM     50  H9  UNL     1      21.179   1.879  30.164  1.00  0.00     0.210 HD
ENDBRANCH  47  49
ENDBRANCH  17  47
ENDBRANCH  16  17
ENDBRANCH  14  16
ENDBRANCH   1  14
TORSDOF 17
ENDMDL
MODEL 3
REMARK VINA RESULT: -6.428827984      2.739      5.030
REMARK  17 active torsions:
REMARK  status: ('A' for Active; 'I' for Inactive)
REMARK    1  A    between atoms: C2_2  and  O2_4 
REMARK    2  A    between atoms: O2_4  and  C3_5 
REMARK    3  A    between atoms: C4_6  and  N1_7 
REMARK    4  A    between atoms: C5_11  and  O3_12 
REMARK    5  A    between atoms: O3_12  and  C6_13 
REMARK    6  A    between atoms: C8_16  and  O5_17 
REMARK    7  A    between atoms: O5_17  and  C9_18 
REMARK    8  A    between atoms: C9_18  and  C10_20 
REMARK    9  A    between atoms: C10_20  and  O7_21 
REMARK   10  A    between atoms: C10_20  and  C21_37 
REMARK   11  A    between atoms: O7_21  and  C11_22 
REMARK   12  A    between atoms: C11_22  and  C12_24 
REMARK   13  A    between atoms: C21_37  and  O9_39 
REMARK   14  A    between atoms: C23_41  and  O10_42 
REMARK   15  A    between atoms: O10_42  and  C24_43 
REMARK   16  A    between atoms: C26_46  and  O12_47 
REMARK   17  A    between atoms: O12_47  and  C27_48 
ROOT
HETATM    1  C12 UNL     1      26.441   5.833  29.809  1.00  0.00     0.072 A 
HETATM    2  C13 UNL     1      26.873   4.945  30.743  1.00  0.00    -0.021 A 
HETATM    3  C14 UNL     1      26.478   3.515  30.689  1.00  0.00     0.051 C 
HETATM    4  C15 UNL     1      27.696   5.337  31.779  1.00  0.00     0.077 A 
HETATM    5  C16 UNL     1      28.142   4.382  32.756  1.00  0.00     0.102 C 
HETATM    6  N2  UNL     1      28.491   3.604  33.535  1.00  0.00    -0.191 NA
HETATM    7  C17 UNL     1      28.124   6.639  31.925  1.00  0.00     0.090 A 
HETATM    8  N3  UNL     1      28.972   7.047  32.990  1.00  0.00    -0.099 NA
HETATM    9  C18 UNL     1      27.682   7.550  30.969  1.00  0.00     0.095 A 
HETATM   10  C19 UNL     1      28.113   8.910  31.100  1.00  0.00     0.103 C 
HETATM   11  N4  UNL     1      28.452  10.010  31.223  1.00  0.00    -0.191 NA
HETATM   12  C20 UNL     1      26.868   7.154  29.949  1.00  0.00     0.086 A 
HETATM   13  N5  UNL     1      26.418   8.087  28.973  1.00  0.00    -0.100 NA
ENDROOT
BRANCH   1  14
HETATM   14  C11 UNL     1      25.570   5.442  28.707  1.00  0.00     0.296 C 
HETATM   15  O8  UNL     1      25.984   5.094  27.577  1.00  0.00    -0.259 OA
BRANCH  14  16
HETATM   16  O7  UNL     1      24.190   5.441  28.870  1.00  0.00    -0.299 OA
BRANCH  16  17
HETATM   17  C10 UNL     1      23.329   4.594  28.137  1.00  0.00     0.259 C 
BRANCH  17  18
HETATM   18  C9  UNL     1      22.117   5.317  27.668  1.00  0.00     0.291 C 
HETATM   19  O6  UNL     1      21.619   6.152  28.446  1.00  0.00    -0.262 OA
BRANCH  18  20
HETATM   20  O5  UNL     1      21.534   5.120  26.454  1.00  0.00    -0.308 OA
BRANCH  20  21
HETATM   21  C8  UNL     1      20.177   5.379  26.148  1.00  0.00     0.195 C 
HETATM   22  C5  UNL     1      19.555   4.181  25.543  1.00  0.00     0.197 C 
HETATM   23  C4  UNL     1      19.604   4.112  24.051  1.00  0.00     0.247 C 
HETATM   24  C3  UNL     1      19.348   5.403  23.351  1.00  0.00     0.197 C 
HETATM   25  C26 UNL     1      20.143   6.538  23.907  1.00  0.00     0.195 C 
HETATM   26  C23 UNL     1      19.971   6.661  25.399  1.00  0.00     0.196 C 
BRANCH  22  27
HETATM   27  O3  UNL     1      18.246   4.012  26.059  1.00  0.00    -0.311 OA
BRANCH  27  28
HETATM   28  C6  UNL     1      17.956   3.511  27.295  1.00  0.00     0.255 C 
HETATM   29  C7  UNL     1      16.595   3.273  27.828  1.00  0.00     0.126 C 
HETATM   30  O4  UNL     1      18.912   3.222  28.061  1.00  0.00    -0.266 OA
ENDBRANCH  27  28
ENDBRANCH  22  27
BRANCH  23  31
HETATM   31  N1  UNL     1      20.905   3.612  23.579  1.00  0.00    -0.070 N 
ATOM     32  H13 UNL     1      21.166   3.978  22.664  1.00  0.00     0.274 HD
ATOM     33  H12 UNL     1      21.693   3.994  24.102  1.00  0.00     0.274 HD
ATOM     34  H11 UNL     1      20.864   2.593  23.607  1.00  0.00     0.274 HD
ENDBRANCH  23  31
BRANCH  24  35
HETATM   35  O2  UNL     1      17.985   5.782  23.359  1.00  0.00    -0.311 OA
BRANCH  35  36
HETATM   36  C2  UNL     1      17.441   6.700  22.495  1.00  0.00     0.255 C 
HETATM   37  C1  UNL     1      16.795   7.912  23.087  1.00  0.00     0.126 C 
HETATM   38  O1  UNL     1      17.504   6.494  21.265  1.00  0.00    -0.266 OA
ENDBRANCH  35  36
ENDBRANCH  24  35
BRANCH  25  39
HETATM   39  O12 UNL     1      21.509   6.497  23.581  1.00  0.00    -0.311 OA
BRANCH  39  40
HETATM   40  C27 UNL     1      21.932   6.578  22.265  1.00  0.00     0.255 C 
HETATM   41  C28 UNL     1      21.682   7.751  21.395  1.00  0.00     0.126 C 
HETATM   42  O13 UNL     1      22.567   5.568  21.809  1.00  0.00    -0.266 OA
ENDBRANCH  39  40
ENDBRANCH  25  39
BRANCH  26  43
HETATM   43  O10 UNL     1      18.673   7.157  25.680  1.00  0.00    -0.311 OA
BRANCH  43  44
HETATM   44  C24 UNL     1      18.252   7.527  26.949  1.00  0.00     0.255 C 
HETATM   45  C25 UNL     1      18.984   8.504  27.799  1.00  0.00     0.126 C 
HETATM   46  O11 UNL     1      17.189   6.983  27.366  1.00  0.00    -0.266 OA
ENDBRANCH  43  44
ENDBRANCH  26  43
ENDBRANCH  20  21
ENDBRANCH  18  20
ENDBRANCH  17  18
BRANCH  17  47
HETATM   47  C21 UNL     1      22.959   3.370  28.951  1.00  0.00     0.153 C 
HETATM   48  C22 UNL     1      23.917   2.261  28.555  1.00  0.00     0.042 C 
BRANCH  47  49
HETATM   49  O9  UNL     1      21.650   2.992  28.766  1.00  0.00    -0.393 OA
ATOM     50  H9  UNL     1      21.148   3.020  29.572  1.00  0.00     0.210 HD
ENDBRANCH  47  49
ENDBRANCH  17  47
ENDBRANCH  16  17
ENDBRANCH  14  16
ENDBRANCH   1  14
TORSDOF 17
ENDMDL
MODEL 4
REMARK VINA RESULT: -6.369550831      3.568      7.153
REMARK  17 active torsions:
REMARK  status: ('A' for Active; 'I' for Inactive)
REMARK    1  A    between atoms: C2_2  and  O2_4 
REMARK    2  A    between atoms: O2_4  and  C3_5 
REMARK    3  A    between atoms: C4_6  and  N1_7 
REMARK    4  A    between atoms: C5_11  and  O3_12 
REMARK    5  A    between atoms: O3_12  and  C6_13 
REMARK    6  A    between atoms: C8_16  and  O5_17 
REMARK    7  A    between atoms: O5_17  and  C9_18 
REMARK    8  A    between atoms: C9_18  and  C10_20 
REMARK    9  A    between atoms: C10_20  and  O7_21 
REMARK   10  A    between atoms: C10_20  and  C21_37 
REMARK   11  A    between atoms: O7_21  and  C11_22 
REMARK   12  A    between atoms: C11_22  and  C12_24 
REMARK   13  A    between atoms: C21_37  and  O9_39 
REMARK   14  A    between atoms: C23_41  and  O10_42 
REMARK   15  A    between atoms: O10_42  and  C24_43 
REMARK   16  A    between atoms: C26_46  and  O12_47 
REMARK   17  A    between atoms: O12_47  and  C27_48 
ROOT
HETATM    1  C12 UNL     1      26.899   7.683  29.977  1.00  0.00     0.072 A 
HETATM    2  C13 UNL     1      27.541   7.319  31.118  1.00  0.00    -0.021 A 
HETATM    3  C14 UNL     1      27.400   5.953  31.680  1.00  0.00     0.051 C 
HETATM    4  C15 UNL     1      28.351   8.205  31.799  1.00  0.00     0.077 A 
HETATM    5  C16 UNL     1      29.022   7.800  33.004  1.00  0.00     0.102 C 
HETATM    6  N2  UNL     1      29.553   7.460  33.972  1.00  0.00    -0.191 NA
HETATM    7  C17 UNL     1      28.553   9.498  31.366  1.00  0.00     0.090 A 
HETATM    8  N3  UNL     1      29.387  10.413  32.065  1.00  0.00    -0.099 NA
HETATM    9  C18 UNL     1      27.896   9.872  30.198  1.00  0.00     0.095 A 
HETATM   10  C19 UNL     1      28.091  11.212  29.728  1.00  0.00     0.103 C 
HETATM   11  N4  UNL     1      28.240  12.301  29.364  1.00  0.00    -0.191 NA
HETATM   12  C20 UNL     1      27.098   8.991  29.530  1.00  0.00     0.086 A 
HETATM   13  N5  UNL     1      26.427   9.376  28.335  1.00  0.00    -0.100 NA
ENDROOT
BRANCH   1  14
HETATM   14  C11 UNL     1      26.039   6.766  29.241  1.00  0.00     0.296 C 
HETATM   15  O8  UNL     1      26.455   5.939  28.396  1.00  0.00    -0.259 OA
BRANCH  14  16
HETATM   16  O7  UNL     1      24.665   6.770  29.452  1.00  0.00    -0.299 OA
BRANCH  16  17
HETATM   17  C10 UNL     1      24.084   6.830  30.739  1.00  0.00     0.259 C 
BRANCH  17  18
HETATM   18  C9  UNL     1      23.426   5.547  31.103  1.00  0.00     0.291 C 
HETATM   19  O6  UNL     1      24.062   4.773  31.843  1.00  0.00    -0.262 OA
BRANCH  18  20
HETATM   20  O5  UNL     1      22.185   5.181  30.679  1.00  0.00    -0.308 OA
BRANCH  20  21
HETATM   21  C8  UNL     1      21.906   4.102  29.807  1.00  0.00     0.195 C 
HETATM   22  C5  UNL     1      22.840   4.122  28.660  1.00  0.00     0.197 C 
HETATM   23  C4  UNL     1      22.369   4.871  27.457  1.00  0.00     0.247 C 
HETATM   24  C3  UNL     1      20.929   4.685  27.121  1.00  0.00     0.197 C 
HETATM   25  C26 UNL     1      20.026   4.851  28.299  1.00  0.00     0.195 C 
HETATM   26  C23 UNL     1      20.453   3.983  29.454  1.00  0.00     0.196 C 
BRANCH  22  27
HETATM   27  O3  UNL     1      23.251   2.800  28.359  1.00  0.00    -0.311 OA
BRANCH  27  28
HETATM   28  C6  UNL     1      24.310   2.163  28.937  1.00  0.00     0.255 C 
HETATM   29  C7  UNL     1      25.528   2.823  29.459  1.00  0.00     0.126 C 
HETATM   30  O4  UNL     1      24.267   0.909  29.045  1.00  0.00    -0.266 OA
ENDBRANCH  27  28
ENDBRANCH  22  27
BRANCH  23  31
HETATM   31  N1  UNL     1      22.598   6.318  27.602  1.00  0.00    -0.070 N 
ATOM     32  H13 UNL     1      21.944   6.763  28.245  1.00  0.00     0.274 HD
ATOM     33  H12 UNL     1      23.453   6.538  28.112  1.00  0.00     0.274 HD
ATOM     34  H11 UNL     1      22.575   6.722  26.666  1.00  0.00     0.274 HD
ENDBRANCH  23  31
BRANCH  24  35
HETATM   35  O2  UNL     1      20.650   3.428  26.533  1.00  0.00    -0.311 OA
BRANCH  35  36
HETATM   36  C2  UNL     1      20.210   3.268  25.242  1.00  0.00     0.255 C 
HETATM   37  C1  UNL     1      19.161   4.212  24.746  1.00  0.00     0.126 C 
HETATM   38  O1  UNL     1      20.694   2.355  24.541  1.00  0.00    -0.266 OA
ENDBRANCH  35  36
ENDBRANCH  24  35
BRANCH  25  39
HETATM   39  O12 UNL     1      19.876   6.182  28.725  1.00  0.00    -0.311 OA
BRANCH  39  40
HETATM   40  C27 UNL     1      19.328   7.141  27.890  1.00  0.00     0.255 C 
HETATM   41  C28 UNL     1      17.993   7.014  27.260  1.00  0.00     0.126 C 
HETATM   42  O13 UNL     1      20.041   8.178  27.673  1.00  0.00    -0.266 OA
ENDBRANCH  39  40
ENDBRANCH  25  39
BRANCH  26  43
HETATM   43  O10 UNL     1      20.160   2.629  29.155  1.00  0.00    -0.311 OA
BRANCH  43  44
HETATM   44  C24 UNL     1      20.016   1.644  30.122  1.00  0.00     0.255 C 
HETATM   45  C25 UNL     1      18.810   1.518  30.984  1.00  0.00     0.126 C 
HETATM   46  O11 UNL     1      20.979   0.833  30.242  1.00  0.00    -0.266 OA
ENDBRANCH  43  44
ENDBRANCH  26  43
ENDBRANCH  20  21
ENDBRANCH  18  20
ENDBRANCH  17  18
BRANCH  17  47
HETATM   47  C21 UNL     1      23.117   7.993  30.838  1.00  0.00     0.153 C 
HETATM   48  C22 UNL     1      22.767   8.163  32.306  1.00  0.00     0.042 C 
BRANCH  47  49
HETATM   49  O9  UNL     1      21.991   7.806  30.073  1.00  0.00    -0.393 OA
ATOM     50  H9  UNL     1      21.206   7.713  30.599  1.00  0.00     0.210 HD
ENDBRANCH  47  49
ENDBRANCH  17  47
ENDBRANCH  16  17
ENDBRANCH  14  16
ENDBRANCH   1  14
TORSDOF 17
ENDMDL
MODEL 5
REMARK VINA RESULT: -6.337254528      1.647      2.962
REMARK  17 active torsions:
REMARK  status: ('A' for Active; 'I' for Inactive)
REMARK    1  A    between atoms: C2_2  and  O2_4 
REMARK    2  A    between atoms: O2_4  and  C3_5 
REMARK    3  A    between atoms: C4_6  and  N1_7 
REMARK    4  A    between atoms: C5_11  and  O3_12 
REMARK    5  A    between atoms: O3_12  and  C6_13 
REMARK    6  A    between atoms: C8_16  and  O5_17 
REMARK    7  A    between atoms: O5_17  and  C9_18 
REMARK    8  A    between atoms: C9_18  and  C10_20 
REMARK    9  A    between atoms: C10_20  and  O7_21 
REMARK   10  A    between atoms: C10_20  and  C21_37 
REMARK   11  A    between atoms: O7_21  and  C11_22 
REMARK   12  A    between atoms: C11_22  and  C12_24 
REMARK   13  A    between atoms: C21_37  and  O9_39 
REMARK   14  A    between atoms: C23_41  and  O10_42 
REMARK   15  A    between atoms: O10_42  and  C24_43 
REMARK   16  A    between atoms: C26_46  and  O12_47 
REMARK   17  A    between atoms: O12_47  and  C27_48 
ROOT
HETATM    1  C12 UNL     1      21.999   4.264  29.329  1.00  0.00     0.072 A 
HETATM    2  C13 UNL     1      22.292   2.941  29.436  1.00  0.00    -0.021 A 
HETATM    3  C14 UNL     1      21.242   1.941  29.750  1.00  0.00     0.051 C 
HETATM    4  C15 UNL     1      23.579   2.475  29.255  1.00  0.00     0.077 A 
HETATM    5  C16 UNL     1      23.868   1.072  29.371  1.00  0.00     0.102 C 
HETATM    6  N2  UNL     1      24.085  -0.058  29.469  1.00  0.00    -0.191 NA
HETATM    7  C17 UNL     1      24.630   3.316  28.960  1.00  0.00     0.090 A 
HETATM    8  N3  UNL     1      25.956   2.840  28.773  1.00  0.00    -0.099 NA
HETATM    9  C18 UNL     1      24.331   4.671  28.851  1.00  0.00     0.095 A 
HETATM   10  C19 UNL     1      25.408   5.565  28.545  1.00  0.00     0.103 C 
HETATM   11  N4  UNL     1      26.286   6.283  28.315  1.00  0.00    -0.191 NA
HETATM   12  C20 UNL     1      23.057   5.124  29.031  1.00  0.00     0.086 A 
HETATM   13  N5  UNL     1      22.754   6.510  28.919  1.00  0.00    -0.100 NA
ENDROOT
BRANCH   1  14
HETATM   14  C11 UNL     1      20.648   4.780  29.517  1.00  0.00     0.296 C 
HETATM   15  O8  UNL     1      20.139   5.022  30.636  1.00  0.00    -0.259 OA
BRANCH  14  16
HETATM   16  O7  UNL     1      19.835   5.034  28.418  1.00  0.00    -0.299 OA
BRANCH  16  17
HETATM   17  C10 UNL     1      19.508   4.049  27.458  1.00  0.00     0.259 C 
BRANCH  17  18
HETATM   18  C9  UNL     1      20.298   4.218  26.210  1.00  0.00     0.291 C 
HETATM   19  O6  UNL     1      20.339   3.248  25.430  1.00  0.00    -0.262 OA
BRANCH  18  20
HETATM   20  O5  UNL     1      20.966   5.357  25.879  1.00  0.00    -0.308 OA
BRANCH  20  21
HETATM   21  C8  UNL     1      20.362   6.560  25.444  1.00  0.00     0.195 C 
HETATM   22  C5  UNL     1      18.948   6.318  25.084  1.00  0.00     0.197 C 
HETATM   23  C4  UNL     1      18.695   5.981  23.651  1.00  0.00     0.247 C 
HETATM   24  C3  UNL     1      19.491   6.769  22.667  1.00  0.00     0.197 C 
HETATM   25  C26 UNL     1      20.945   6.827  23.003  1.00  0.00     0.195 C 
HETATM   26  C23 UNL     1      21.172   7.295  24.417  1.00  0.00     0.196 C 
BRANCH  22  27
HETATM   27  O3  UNL     1      18.148   7.392  25.547  1.00  0.00    -0.311 OA
BRANCH  27  28
HETATM   28  C6  UNL     1      18.107   7.832  26.838  1.00  0.00     0.255 C 
HETATM   29  C7  UNL     1      18.872   8.977  27.381  1.00  0.00     0.126 C 
HETATM   30  O4  UNL     1      17.361   7.225  27.652  1.00  0.00    -0.266 OA
ENDBRANCH  27  28
ENDBRANCH  22  27
BRANCH  23  31
HETATM   31  N1  UNL     1      18.955   4.558  23.380  1.00  0.00    -0.070 N 
ATOM     32  H13 UNL     1      18.224   4.117  22.823  1.00  0.00     0.274 HD
ATOM     33  H12 UNL     1      19.724   4.410  22.727  1.00  0.00     0.274 HD
ATOM     34  H11 UNL     1      19.102   4.102  24.280  1.00  0.00     0.274 HD
ENDBRANCH  23  31
BRANCH  24  35
HETATM   35  O2  UNL     1      19.028   8.097  22.511  1.00  0.00    -0.311 OA
BRANCH  35  36
HETATM   36  C2  UNL     1      17.741   8.421  22.155  1.00  0.00     0.255 C 
HETATM   37  C1  UNL     1      17.058   9.500  22.934  1.00  0.00     0.126 C 
HETATM   38  O1  UNL     1      17.196   7.814  21.210  1.00  0.00    -0.266 OA
ENDBRANCH  35  36
ENDBRANCH  24  35
BRANCH  25  39
HETATM   39  O12 UNL     1      21.636   5.625  22.775  1.00  0.00    -0.311 OA
BRANCH  39  40
HETATM   40  C27 UNL     1      22.708   5.572  21.902  1.00  0.00     0.255 C 
HETATM   41  C28 UNL     1      23.276   6.763  21.228  1.00  0.00     0.126 C 
HETATM   42  O13 UNL     1      23.209   4.417  21.687  1.00  0.00    -0.266 OA
ENDBRANCH  39  40
ENDBRANCH  25  39
BRANCH  26  43
HETATM   43  O10 UNL     1      20.882   8.679  24.504  1.00  0.00    -0.311 OA
BRANCH  43  44
HETATM   44  C24 UNL     1      21.851   9.671  24.457  1.00  0.00     0.255 C 
HETATM   45  C25 UNL     1      22.407  10.326  25.671  1.00  0.00     0.126 C 
HETATM   46  O11 UNL     1      22.255  10.003  23.305  1.00  0.00    -0.266 OA
ENDBRANCH  43  44
ENDBRANCH  26  43
ENDBRANCH  20  21
ENDBRANCH  18  20
ENDBRANCH  17  18
BRANCH  17  47
HETATM   47  C21 UNL     1      18.019   4.052  27.173  1.00  0.00     0.153 C 
HETATM   48  C22 UNL     1      17.331   3.423  28.372  1.00  0.00     0.042 C 
BRANCH  47  49
HETATM   49  O9  UNL     1      17.706   3.390  26.010  1.00  0.00    -0.393 OA
ATOM     50  H9  UNL     1      18.461   3.270  25.447  1.00  0.00     0.210 HD
ENDBRANCH  47  49
ENDBRANCH  17  47
ENDBRANCH  16  17
ENDBRANCH  14  16
ENDBRANCH   1  14
TORSDOF 17
ENDMDL
