MODEL 1
REMARK VINA RESULT: -7.442956480      0.000      0.000
REMARK  14 active torsions:
REMARK  status: ('A' for Active; 'I' for Inactive)
REMARK    1  A    between atoms: O1_2  and  C2_3 
REMARK    2  A    between atoms: C2_3  and  C3_5 
REMARK    3  A    between atoms: N1_7  and  C5_8 
REMARK    4  A    between atoms: C5_8  and  C6_9 
REMARK    5  A    between atoms: C5_8  and  C12_33 
REMARK       I    between atoms: C6_9  and  N2_11 
REMARK    6  A    between atoms: N2_11  and  C7_13 
REMARK    7  A    between atoms: C7_13  and  C8_17 
REMARK    8  A    between atoms: C9_22  and  C10_23 
REMARK       I    between atoms: N11_36  and  C15_37 
REMARK    9  A    between atoms: C15_37  and  O5_39 
REMARK   10  A    between atoms: O5_39  and  C16_40 
REMARK   11  A    between atoms: C21_46  and  N12_47 
REMARK       I    between atoms: N12_47  and  C22_49 
REMARK   12  A    between atoms: C24_52  and  C25_53 
REMARK   13  A    between atoms: C25_53  and  O8_54 
REMARK   14  A    between atoms: C25_53  and  O9_56 
ROOT
HETATM    1  C5  UNL     1      22.188   2.182  28.282  1.00  0.00     0.122 C 
ENDROOT
BRANCH   1   2
HETATM    2  N1  UNL     1      23.067   3.257  28.634  1.00  0.00    -0.281 N 
HETATM    3  C4  UNL     1      22.637   4.520  28.657  1.00  0.00     0.119 A 
HETATM    4  C3  UNL     1      23.520   5.583  29.007  1.00  0.00     0.073 A 
HETATM    5  C24 UNL     1      24.821   5.351  29.327  1.00  0.00     0.072 A 
HETATM    6  C21 UNL     1      25.228   4.004  29.292  1.00  0.00     0.120 A 
HETATM    7  C20 UNL     1      24.363   3.008  28.953  1.00  0.00     0.280 A 
HETATM    8  O6  UNL     1      24.763   1.790  28.928  1.00  0.00    -0.265 OA
BRANCH   4   9
HETATM    9  C2  UNL     1      22.940   6.910  29.015  1.00  0.00     0.295 C 
HETATM   10  O2  UNL     1      22.270   7.390  29.916  1.00  0.00    -0.259 OA
BRANCH   9  11
HETATM   11  O1  UNL     1      23.150   7.754  27.889  1.00  0.00    -0.322 OA
HETATM   12  C1  UNL     1      23.718   9.026  28.116  1.00  0.00     0.213 C 
ENDBRANCH   9  11
ENDBRANCH   4   9
BRANCH   5  13
HETATM   13  C25 UNL     1      25.826   6.326  29.647  1.00  0.00     0.191 C 
BRANCH  13  14
HETATM   14  O8  UNL     1      26.570   6.743  28.655  1.00  0.00    -0.340 OA
ATOM     15  H8  UNL     1      26.164   7.349  28.046  1.00  0.00     0.220 HD
ENDBRANCH  13  14
BRANCH  13  16
HETATM   16  O9  UNL     1      26.189   6.938  30.808  1.00  0.00    -0.335 OA
HETATM   17  C26 UNL     1      25.567   8.143  31.278  1.00  0.00     0.212 C 
ENDBRANCH  13  16
ENDBRANCH   5  13
BRANCH   6  18
HETATM   18  N12 UNL     1      26.555   3.597  29.611  1.00  0.00    -0.322 N 
HETATM   19  C22 UNL     1      26.937   3.501  30.980  1.00  0.00     0.218 C 
HETATM   20  C23 UNL     1      28.295   3.086  31.379  1.00  0.00     0.117 C 
HETATM   21  O7  UNL     1      26.111   3.773  31.908  1.00  0.00    -0.274 OA
ATOM     22  H12 UNL     1      27.222   3.377  28.871  1.00  0.00     0.169 HD
ENDBRANCH   6  18
ENDBRANCH   1   2
BRANCH   1  23
HETATM   23  C6  UNL     1      21.381   1.649  29.414  1.00  0.00     0.275 C 
HETATM   24  O3  UNL     1      21.885   0.722  30.139  1.00  0.00    -0.266 OA
HETATM   25  N2  UNL     1      20.102   2.146  29.680  1.00  0.00    -0.305 N 
ATOM     26  H2  UNL     1      19.789   2.878  29.042  1.00  0.00     0.171 HD
BRANCH  25  27
HETATM   27  C7  UNL     1      19.190   1.812  30.666  1.00  0.00     0.148 C 
HETATM   28  N3  UNL     1      18.905   2.801  31.531  1.00  0.00    -0.382 N 
ATOM     29  H32 UNL     1      19.408   3.666  31.333  1.00  0.00     0.157 HD
ATOM     30  H31 UNL     1      18.233   2.554  32.257  1.00  0.00     0.157 HD
BRANCH  27  31
HETATM   31  C8  UNL     1      18.479   0.588  30.946  1.00  0.00     0.166 A 
HETATM   32  N4  UNL     1      17.282   0.372  31.468  1.00  0.00    -0.281 N 
HETATM   33  N5  UNL     1      17.002  -0.922  31.556  1.00  0.00    -0.281 N 
ATOM     34  H4  UNL     1      16.649   1.114  31.769  1.00  0.00     0.188 HD
HETATM   35  C9  UNL     1      18.058  -1.595  31.072  1.00  0.00     0.169 A 
ATOM     36  H5  UNL     1      16.142  -1.330  31.924  1.00  0.00     0.188 HD
HETATM   37  N10 UNL     1      18.945  -0.688  30.706  1.00  0.00    -0.320 N 
ATOM     38  H10 UNL     1      19.856  -0.902  30.300  1.00  0.00     0.169 HD
BRANCH  35  39
HETATM   39  C10 UNL     1      18.190  -3.041  30.974  1.00  0.00     0.180 A 
HETATM   40  N6  UNL     1      18.157  -3.758  29.822  1.00  0.00    -0.264 N 
HETATM   41  N7  UNL     1      18.310  -5.031  30.149  1.00  0.00    -0.003 NA
ATOM     42  H6  UNL     1      18.038  -3.385  28.880  1.00  0.00     0.186 HD
HETATM   43  N8  UNL     1      18.439  -5.167  31.459  1.00  0.00    -0.221 N 
HETATM   44  C11 UNL     1      18.626  -6.416  32.211  1.00  0.00     0.197 C 
HETATM   45  N9  UNL     1      18.364  -3.944  31.954  1.00  0.00    -0.267 N 
ATOM     46  H9  UNL     1      18.429  -3.716  32.946  1.00  0.00     0.190 HD
ENDBRANCH  35  39
ENDBRANCH  27  31
ENDBRANCH  25  27
ENDBRANCH   1  23
BRANCH   1  47
HETATM   47  C12 UNL     1      21.447   2.356  27.033  1.00  0.00     0.014 A 
HETATM   48  C13 UNL     1      21.413   1.502  25.941  1.00  0.00     0.033 A 
HETATM   49  C14 UNL     1      20.605   2.051  24.988  1.00  0.00     0.102 A 
HETATM   50  N11 UNL     1      20.144   3.212  25.463  1.00  0.00    -0.279 N 
HETATM   51  C15 UNL     1      19.264   4.108  24.783  1.00  0.00     0.371 C 
HETATM   52  C19 UNL     1      20.624   3.421  26.671  1.00  0.00     0.115 A 
HETATM   53  O4  UNL     1      18.863   3.814  23.629  1.00  0.00    -0.238 OA
BRANCH  51  54
HETATM   54  O5  UNL     1      18.839   5.296  25.365  1.00  0.00    -0.299 OA
BRANCH  54  55
HETATM   55  C16 UNL     1      18.269   6.313  24.545  1.00  0.00     0.125 C 
HETATM   56  C17 UNL     1      19.439   7.190  24.094  1.00  0.00     0.040 C 
HETATM   57  C18 UNL     1      17.236   7.115  25.286  1.00  0.00     0.040 C 
ENDBRANCH  54  55
ENDBRANCH  51  54
ENDBRANCH   1  47
TORSDOF 14
ENDMDL
MODEL 2
REMARK VINA RESULT: -7.309384164      5.363     10.287
REMARK  14 active torsions:
REMARK  status: ('A' for Active; 'I' for Inactive)
REMARK    1  A    between atoms: O1_2  and  C2_3 
REMARK    2  A    between atoms: C2_3  and  C3_5 
REMARK    3  A    between atoms: N1_7  and  C5_8 
REMARK    4  A    between atoms: C5_8  and  C6_9 
REMARK    5  A    between atoms: C5_8  and  C12_33 
REMARK       I    between atoms: C6_9  and  N2_11 
REMARK    6  A    between atoms: N2_11  and  C7_13 
REMARK    7  A    between atoms: C7_13  and  C8_17 
REMARK    8  A    between atoms: C9_22  and  C10_23 
REMARK       I    between atoms: N11_36  and  C15_37 
REMARK    9  A    between atoms: C15_37  and  O5_39 
REMARK   10  A    between atoms: O5_39  and  C16_40 
REMARK   11  A    between atoms: C21_46  and  N12_47 
REMARK       I    between atoms: N12_47  and  C22_49 
REMARK   12  A    between atoms: C24_52  and  C25_53 
REMARK   13  A    between atoms: C25_53  and  O8_54 
REMARK   14  A    between atoms: C25_53  and  O9_56 
ROOT
HETATM    1  C5  UNL     1      26.944   5.497  32.853  1.00  0.00     0.122 C 
ENDROOT
BRANCH   1   2
HETATM    2  N1  UNL     1      25.931   5.379  31.848  1.00  0.00    -0.281 N 
HETATM    3  C4  UNL     1      26.233   5.000  30.604  1.00  0.00     0.119 A 
HETATM    4  C3  UNL     1      25.218   4.888  29.610  1.00  0.00     0.073 A 
HETATM    5  C24 UNL     1      23.915   5.160  29.890  1.00  0.00     0.072 A 
HETATM    6  C21 UNL     1      23.644   5.553  31.214  1.00  0.00     0.120 A 
HETATM    7  C20 UNL     1      24.634   5.654  32.144  1.00  0.00     0.280 A 
HETATM    8  O6  UNL     1      24.356   6.015  33.341  1.00  0.00    -0.265 OA
BRANCH   4   9
HETATM    9  C2  UNL     1      25.660   4.452  28.302  1.00  0.00     0.295 C 
HETATM   10  O2  UNL     1      25.920   5.182  27.357  1.00  0.00    -0.259 OA
BRANCH   9  11
HETATM   11  O1  UNL     1      25.815   3.059  28.062  1.00  0.00    -0.322 OA
HETATM   12  C1  UNL     1      24.954   2.172  28.743  1.00  0.00     0.213 C 
ENDBRANCH   9  11
ENDBRANCH   4   9
BRANCH   5  13
HETATM   13  C25 UNL     1      22.806   5.138  28.977  1.00  0.00     0.191 C 
BRANCH  13  14
HETATM   14  O8  UNL     1      22.244   6.289  28.714  1.00  0.00    -0.340 OA
ATOM     15  H8  UNL     1      21.741   6.341  27.909  1.00  0.00     0.220 HD
ENDBRANCH  13  14
BRANCH  13  16
HETATM   16  O9  UNL     1      22.185   4.135  28.296  1.00  0.00    -0.335 OA
HETATM   17  C26 UNL     1      21.363   3.151  28.942  1.00  0.00     0.212 C 
ENDBRANCH  13  16
ENDBRANCH   5  13
BRANCH   6  18
HETATM   18  N12 UNL     1      22.329   5.864  31.666  1.00  0.00    -0.322 N 
HETATM   19  C22 UNL     1      21.536   4.830  32.242  1.00  0.00     0.218 C 
HETATM   20  C23 UNL     1      20.167   5.083  32.730  1.00  0.00     0.117 C 
HETATM   21  O7  UNL     1      21.988   3.646  32.353  1.00  0.00    -0.274 OA
ATOM     22  H12 UNL     1      21.961   6.811  31.579  1.00  0.00     0.169 HD
ENDBRANCH   6  18
ENDBRANCH   1   2
BRANCH   1  23
HETATM   23  C6  UNL     1      27.637   4.222  33.182  1.00  0.00     0.275 C 
HETATM   24  O3  UNL     1      28.281   3.619  32.254  1.00  0.00    -0.266 OA
HETATM   25  N2  UNL     1      27.588   3.691  34.475  1.00  0.00    -0.305 N 
ATOM     26  H2  UNL     1      27.046   4.241  35.140  1.00  0.00     0.171 HD
BRANCH  25  27
HETATM   27  C7  UNL     1      28.152   2.542  35.002  1.00  0.00     0.148 C 
HETATM   28  N3  UNL     1      27.438   1.960  35.982  1.00  0.00    -0.382 N 
ATOM     29  H32 UNL     1      26.573   2.455  36.197  1.00  0.00     0.157 HD
ATOM     30  H31 UNL     1      27.854   1.114  36.370  1.00  0.00     0.157 HD
BRANCH  27  31
HETATM   31  C8  UNL     1      29.376   1.842  34.697  1.00  0.00     0.166 A 
HETATM   32  N4  UNL     1      29.992   1.615  33.548  1.00  0.00    -0.281 N 
HETATM   33  N5  UNL     1      31.110   0.920  33.708  1.00  0.00    -0.281 N 
ATOM     34  H4  UNL     1      29.646   1.937  32.643  1.00  0.00     0.188 HD
HETATM   35  C9  UNL     1      31.244   0.674  35.021  1.00  0.00     0.169 A 
ATOM     36  H5  UNL     1      31.750   0.627  32.970  1.00  0.00     0.188 HD
HETATM   37  N10 UNL     1      30.202   1.227  35.615  1.00  0.00    -0.320 N 
ATOM     38  H10 UNL     1      30.031   1.202  36.620  1.00  0.00     0.169 HD
BRANCH  35  39
HETATM   39  C10 UNL     1      32.328  -0.060  35.656  1.00  0.00     0.180 A 
HETATM   40  N6  UNL     1      32.298  -0.582  36.909  1.00  0.00    -0.264 N 
HETATM   41  N7  UNL     1      33.465  -1.169  37.117  1.00  0.00    -0.003 NA
ATOM     42  H6  UNL     1      31.520  -0.530  37.567  1.00  0.00     0.186 HD
HETATM   43  N8  UNL     1      34.247  -1.050  36.056  1.00  0.00    -0.221 N 
HETATM   44  C11 UNL     1      35.614  -1.566  35.894  1.00  0.00     0.197 C 
HETATM   45  N9  UNL     1      33.542  -0.370  35.168  1.00  0.00    -0.267 N 
ATOM     46  H9  UNL     1      33.874  -0.115  34.238  1.00  0.00     0.190 HD
ENDBRANCH  35  39
ENDBRANCH  27  31
ENDBRANCH  25  27
ENDBRANCH   1  23
BRANCH   1  47
HETATM   47  C12 UNL     1      27.826   6.656  32.727  1.00  0.00     0.014 A 
HETATM   48  C13 UNL     1      29.070   6.843  33.310  1.00  0.00     0.033 A 
HETATM   49  C14 UNL     1      29.543   8.068  32.937  1.00  0.00     0.102 A 
HETATM   50  N11 UNL     1      28.629   8.635  32.145  1.00  0.00    -0.279 N 
HETATM   51  C15 UNL     1      28.727   9.923  31.535  1.00  0.00     0.371 C 
HETATM   52  C19 UNL     1      27.600   7.825  32.001  1.00  0.00     0.115 A 
HETATM   53  O4  UNL     1      29.754  10.618  31.737  1.00  0.00    -0.238 OA
BRANCH  51  54
HETATM   54  O5  UNL     1      27.718  10.425  30.724  1.00  0.00    -0.299 OA
BRANCH  54  55
HETATM   55  C16 UNL     1      27.837  10.312  29.307  1.00  0.00     0.125 C 
HETATM   56  C17 UNL     1      27.905  11.746  28.779  1.00  0.00     0.040 C 
HETATM   57  C18 UNL     1      26.681   9.561  28.708  1.00  0.00     0.040 C 
ENDBRANCH  54  55
ENDBRANCH  51  54
ENDBRANCH   1  47
TORSDOF 14
ENDMDL
MODEL 3
REMARK VINA RESULT: -7.160161950      5.062     12.204
REMARK  14 active torsions:
REMARK  status: ('A' for Active; 'I' for Inactive)
REMARK    1  A    between atoms: O1_2  and  C2_3 
REMARK    2  A    between atoms: C2_3  and  C3_5 
REMARK    3  A    between atoms: N1_7  and  C5_8 
REMARK    4  A    between atoms: C5_8  and  C6_9 
REMARK    5  A    between atoms: C5_8  and  C12_33 
REMARK       I    between atoms: C6_9  and  N2_11 
REMARK    6  A    between atoms: N2_11  and  C7_13 
REMARK    7  A    between atoms: C7_13  and  C8_17 
REMARK    8  A    between atoms: C9_22  and  C10_23 
REMARK       I    between atoms: N11_36  and  C15_37 
REMARK    9  A    between atoms: C15_37  and  O5_39 
REMARK   10  A    between atoms: O5_39  and  C16_40 
REMARK   11  A    between atoms: C21_46  and  N12_47 
REMARK       I    between atoms: N12_47  and  C22_49 
REMARK   12  A    between atoms: C24_52  and  C25_53 
REMARK   13  A    between atoms: C25_53  and  O8_54 
REMARK   14  A    between atoms: C25_53  and  O9_56 
ROOT
HETATM    1  C5  UNL     1      26.328   4.958  30.264  1.00  0.00     0.122 C 
ENDROOT
BRANCH   1   2
HETATM    2  N1  UNL     1      25.072   4.269  30.231  1.00  0.00    -0.281 N 
HETATM    3  C4  UNL     1      24.965   3.056  29.683  1.00  0.00     0.119 A 
HETATM    4  C3  UNL     1      23.710   2.380  29.653  1.00  0.00     0.073 A 
HETATM    5  C24 UNL     1      22.588   2.940  30.177  1.00  0.00     0.072 A 
HETATM    6  C21 UNL     1      22.750   4.217  30.746  1.00  0.00     0.120 A 
HETATM    7  C20 UNL     1      23.961   4.841  30.759  1.00  0.00     0.280 A 
HETATM    8  O6  UNL     1      24.078   6.005  31.284  1.00  0.00    -0.265 OA
BRANCH   4   9
HETATM    9  C2  UNL     1      23.716   1.064  29.049  1.00  0.00     0.295 C 
HETATM   10  O2  UNL     1      23.935   0.012  29.632  1.00  0.00    -0.259 OA
BRANCH   9  11
HETATM   11  O1  UNL     1      23.447   0.950  27.657  1.00  0.00    -0.322 OA
HETATM   12  C1  UNL     1      22.098   0.895  27.248  1.00  0.00     0.213 C 
ENDBRANCH   9  11
ENDBRANCH   4   9
BRANCH   5  13
HETATM   13  C25 UNL     1      21.258   2.395  30.169  1.00  0.00     0.191 C 
BRANCH  13  14
HETATM   14  O8  UNL     1      21.130   1.162  30.586  1.00  0.00    -0.340 OA
ATOM     15  H8  UNL     1      20.960   1.044  31.513  1.00  0.00     0.220 HD
ENDBRANCH  13  14
BRANCH  13  16
HETATM   16  O9  UNL     1      20.049   2.906  29.806  1.00  0.00    -0.335 OA
HETATM   17  C26 UNL     1      18.838   2.617  30.520  1.00  0.00     0.212 C 
ENDBRANCH  13  16
ENDBRANCH   5  13
BRANCH   6  18
HETATM   18  N12 UNL     1      21.672   4.932  31.343  1.00  0.00    -0.322 N 
HETATM   19  C22 UNL     1      21.287   4.609  32.677  1.00  0.00     0.218 C 
HETATM   20  C23 UNL     1      20.180   5.310  33.354  1.00  0.00     0.117 C 
HETATM   21  O7  UNL     1      21.891   3.700  33.329  1.00  0.00    -0.274 OA
ATOM     22  H12 UNL     1      21.184   5.662  30.825  1.00  0.00     0.169 HD
ENDBRANCH   6  18
ENDBRANCH   1   2
BRANCH   1  23
HETATM   23  C6  UNL     1      26.372   6.198  29.441  1.00  0.00     0.275 C 
HETATM   24  O3  UNL     1      26.481   6.085  28.171  1.00  0.00    -0.266 OA
HETATM   25  N2  UNL     1      26.298   7.459  30.041  1.00  0.00    -0.305 N 
ATOM     26  H2  UNL     1      26.219   7.443  31.057  1.00  0.00     0.171 HD
BRANCH  25  27
HETATM   27  C7  UNL     1      26.313   8.726  29.484  1.00  0.00     0.148 C 
HETATM   28  N3  UNL     1      25.236   9.028  28.737  1.00  0.00    -0.382 N 
ATOM     29  H32 UNL     1      24.554   8.270  28.689  1.00  0.00     0.157 HD
ATOM     30  H31 UNL     1      25.247   9.961  28.327  1.00  0.00     0.157 HD
BRANCH  27  31
HETATM   31  C8  UNL     1      27.276   9.797  29.551  1.00  0.00     0.166 A 
HETATM   32  N4  UNL     1      28.084  10.188  30.524  1.00  0.00    -0.281 N 
HETATM   33  N5  UNL     1      28.822  11.232  30.173  1.00  0.00    -0.281 N 
ATOM     34  H4  UNL     1      28.133   9.738  31.439  1.00  0.00     0.188 HD
HETATM   35  C9  UNL     1      28.490  11.551  28.911  1.00  0.00     0.169 A 
ATOM     36  H5  UNL     1      29.514  11.706  30.754  1.00  0.00     0.188 HD
HETATM   37  N10 UNL     1      27.561  10.690  28.539  1.00  0.00    -0.320 N 
ATOM     38  H10 UNL     1      27.113  10.685  27.622  1.00  0.00     0.169 HD
BRANCH  35  39
HETATM   39  C10 UNL     1      29.050  12.636  28.119  1.00  0.00     0.180 A 
HETATM   40  N6  UNL     1      28.344  13.459  27.302  1.00  0.00    -0.264 N 
HETATM   41  N7  UNL     1      29.204  14.307  26.762  1.00  0.00    -0.003 NA
ATOM     42  H6  UNL     1      27.338  13.429  27.135  1.00  0.00     0.186 HD
HETATM   43  N8  UNL     1      30.432  14.069  27.194  1.00  0.00    -0.221 N 
HETATM   44  C11 UNL     1      31.660  14.790  26.830  1.00  0.00     0.197 C 
HETATM   45  N9  UNL     1      30.326  13.044  28.023  1.00  0.00    -0.267 N 
ATOM     46  H9  UNL     1      31.108  12.621  28.522  1.00  0.00     0.190 HD
ENDBRANCH  35  39
ENDBRANCH  27  31
ENDBRANCH  25  27
ENDBRANCH   1  23
BRANCH   1  47
HETATM   47  C12 UNL     1      26.947   5.078  31.582  1.00  0.00     0.014 A 
HETATM   48  C13 UNL     1      26.860   4.190  32.644  1.00  0.00     0.033 A 
HETATM   49  C14 UNL     1      27.582   4.693  33.688  1.00  0.00     0.102 A 
HETATM   50  N11 UNL     1      28.108   5.858  33.298  1.00  0.00    -0.279 N 
HETATM   51  C15 UNL     1      28.933   6.714  34.089  1.00  0.00     0.371 C 
HETATM   52  C19 UNL     1      27.750   6.114  32.057  1.00  0.00     0.115 A 
HETATM   53  O4  UNL     1      29.216   6.376  35.265  1.00  0.00    -0.238 OA
BRANCH  51  54
HETATM   54  O5  UNL     1      29.434   7.910  33.589  1.00  0.00    -0.299 OA
BRANCH  54  55
HETATM   55  C16 UNL     1      30.705   8.377  34.033  1.00  0.00     0.125 C 
HETATM   56  C17 UNL     1      30.479   9.813  34.509  1.00  0.00     0.040 C 
HETATM   57  C18 UNL     1      31.735   8.317  32.940  1.00  0.00     0.040 C 
ENDBRANCH  54  55
ENDBRANCH  51  54
ENDBRANCH   1  47
TORSDOF 14
ENDMDL
MODEL 4
REMARK VINA RESULT: -7.155945629      5.941     11.137
REMARK  14 active torsions:
REMARK  status: ('A' for Active; 'I' for Inactive)
REMARK    1  A    between atoms: O1_2  and  C2_3 
REMARK    2  A    between atoms: C2_3  and  C3_5 
REMARK    3  A    between atoms: N1_7  and  C5_8 
REMARK    4  A    between atoms: C5_8  and  C6_9 
REMARK    5  A    between atoms: C5_8  and  C12_33 
REMARK       I    between atoms: C6_9  and  N2_11 
REMARK    6  A    between atoms: N2_11  and  C7_13 
REMARK    7  A    between atoms: C7_13  and  C8_17 
REMARK    8  A    between atoms: C9_22  and  C10_23 
REMARK       I    between atoms: N11_36  and  C15_37 
REMARK    9  A    between atoms: C15_37  and  O5_39 
REMARK   10  A    between atoms: O5_39  and  C16_40 
REMARK   11  A    between atoms: C21_46  and  N12_47 
REMARK       I    between atoms: N12_47  and  C22_49 
REMARK   12  A    between atoms: C24_52  and  C25_53 
REMARK   13  A    between atoms: C25_53  and  O8_54 
REMARK   14  A    between atoms: C25_53  and  O9_56 
ROOT
HETATM    1  C5  UNL     1      26.571   5.824  33.174  1.00  0.00     0.122 C 
ENDROOT
BRANCH   1   2
HETATM    2  N1  UNL     1      25.872   5.654  31.935  1.00  0.00    -0.281 N 
HETATM    3  C4  UNL     1      26.032   4.553  31.198  1.00  0.00     0.119 A 
HETATM    4  C3  UNL     1      25.334   4.394  29.965  1.00  0.00     0.073 A 
HETATM    5  C24 UNL     1      24.487   5.351  29.499  1.00  0.00     0.072 A 
HETATM    6  C21 UNL     1      24.348   6.492  30.312  1.00  0.00     0.120 A 
HETATM    7  C20 UNL     1      25.029   6.618  31.485  1.00  0.00     0.280 A 
HETATM    8  O6  UNL     1      24.883   7.670  32.202  1.00  0.00    -0.265 OA
BRANCH   4   9
HETATM    9  C2  UNL     1      25.572   3.153  29.260  1.00  0.00     0.295 C 
HETATM   10  O2  UNL     1      26.243   3.025  28.247  1.00  0.00    -0.259 OA
BRANCH   9  11
HETATM   11  O1  UNL     1      24.988   1.958  29.764  1.00  0.00    -0.322 OA
HETATM   12  C1  UNL     1      23.909   1.397  29.047  1.00  0.00     0.213 C 
ENDBRANCH   9  11
ENDBRANCH   4   9
BRANCH   5  13
HETATM   13  C25 UNL     1      23.764   5.343  28.258  1.00  0.00     0.191 C 
BRANCH  13  14
HETATM   14  O8  UNL     1      24.342   5.934  27.243  1.00  0.00    -0.340 OA
ATOM     15  H8  UNL     1      24.396   6.882  27.280  1.00  0.00     0.220 HD
ENDBRANCH  13  14
BRANCH  13  16
HETATM   16  O9  UNL     1      22.557   4.833  27.891  1.00  0.00    -0.335 OA
HETATM   17  C26 UNL     1      21.577   4.394  28.844  1.00  0.00     0.212 C 
ENDBRANCH  13  16
ENDBRANCH   5  13
BRANCH   6  18
HETATM   18  N12 UNL     1      23.492   7.578  29.966  1.00  0.00    -0.322 N 
HETATM   19  C22 UNL     1      23.985   8.596  29.100  1.00  0.00     0.218 C 
HETATM   20  C23 UNL     1      23.152   9.746  28.702  1.00  0.00     0.117 C 
HETATM   21  O7  UNL     1      25.169   8.543  28.639  1.00  0.00    -0.274 OA
ATOM     22  H12 UNL     1      22.542   7.625  30.333  1.00  0.00     0.169 HD
ENDBRANCH   6  18
ENDBRANCH   1   2
BRANCH   1  23
HETATM   23  C6  UNL     1      26.769   4.567  33.947  1.00  0.00     0.275 C 
HETATM   24  O3  UNL     1      25.747   4.009  34.479  1.00  0.00    -0.266 OA
HETATM   25  N2  UNL     1      28.042   4.007  34.092  1.00  0.00    -0.305 N 
ATOM     26  H2  UNL     1      28.791   4.529  33.637  1.00  0.00     0.171 HD
BRANCH  25  27
HETATM   27  C7  UNL     1      28.455   2.862  34.750  1.00  0.00     0.148 C 
HETATM   28  N3  UNL     1      27.679   2.493  35.784  1.00  0.00    -0.382 N 
ATOM     29  H32 UNL     1      26.888   3.119  35.936  1.00  0.00     0.157 HD
ATOM     30  H31 UNL     1      27.984   1.650  36.269  1.00  0.00     0.157 HD
BRANCH  27  31
HETATM   31  C8  UNL     1      29.575   1.977  34.535  1.00  0.00     0.166 A 
HETATM   32  N4  UNL     1      30.115   1.503  33.423  1.00  0.00    -0.281 N 
HETATM   33  N5  UNL     1      31.147   0.708  33.669  1.00  0.00    -0.281 N 
ATOM     34  H4  UNL     1      29.776   1.724  32.486  1.00  0.00     0.188 HD
HETATM   35  C9  UNL     1      31.300   0.649  35.002  1.00  0.00     0.169 A 
ATOM     36  H5  UNL     1      31.719   0.229  32.973  1.00  0.00     0.188 HD
HETATM   37  N10 UNL     1      30.355   1.411  35.521  1.00  0.00    -0.320 N 
ATOM     38  H10 UNL     1      30.219   1.561  36.522  1.00  0.00     0.169 HD
BRANCH  35  39
HETATM   39  C10 UNL     1      32.311  -0.109  35.722  1.00  0.00     0.180 A 
HETATM   40  N6  UNL     1      33.540  -0.433  35.246  1.00  0.00    -0.264 N 
HETATM   41  N7  UNL     1      34.159  -1.121  36.192  1.00  0.00    -0.003 NA
ATOM     42  H6  UNL     1      33.917  -0.192  34.329  1.00  0.00     0.186 HD
HETATM   43  N8  UNL     1      33.385  -1.255  37.257  1.00  0.00    -0.221 N 
HETATM   44  C11 UNL     1      33.707  -1.950  38.511  1.00  0.00     0.197 C 
HETATM   45  N9  UNL     1      32.257  -0.633  36.959  1.00  0.00    -0.267 N 
ATOM     46  H9  UNL     1      31.454  -0.560  37.583  1.00  0.00     0.190 HD
ENDBRANCH  35  39
ENDBRANCH  27  31
ENDBRANCH  25  27
ENDBRANCH   1  23
BRANCH   1  47
HETATM   47  C12 UNL     1      27.739   6.700  33.125  1.00  0.00     0.014 A 
HETATM   48  C13 UNL     1      28.669   6.818  32.102  1.00  0.00     0.033 A 
HETATM   49  C14 UNL     1      29.601   7.745  32.470  1.00  0.00     0.102 A 
HETATM   50  N11 UNL     1      29.271   8.197  33.683  1.00  0.00    -0.279 N 
HETATM   51  C15 UNL     1      29.984   9.180  34.436  1.00  0.00     0.371 C 
HETATM   52  C19 UNL     1      28.174   7.599  34.099  1.00  0.00     0.115 A 
HETATM   53  O4  UNL     1      31.022   9.691  33.948  1.00  0.00    -0.238 OA
BRANCH  51  54
HETATM   54  O5  UNL     1      29.557   9.586  35.695  1.00  0.00    -0.299 OA
BRANCH  54  55
HETATM   55  C16 UNL     1      30.340   9.257  36.840  1.00  0.00     0.125 C 
HETATM   56  C17 UNL     1      29.578   8.142  37.559  1.00  0.00     0.040 C 
HETATM   57  C18 UNL     1      30.547  10.446  37.735  1.00  0.00     0.040 C 
ENDBRANCH  54  55
ENDBRANCH  51  54
ENDBRANCH   1  47
TORSDOF 14
ENDMDL
MODEL 5
REMARK VINA RESULT: -7.146622319      6.129     11.079
REMARK  14 active torsions:
REMARK  status: ('A' for Active; 'I' for Inactive)
REMARK    1  A    between atoms: O1_2  and  C2_3 
REMARK    2  A    between atoms: C2_3  and  C3_5 
REMARK    3  A    between atoms: N1_7  and  C5_8 
REMARK    4  A    between atoms: C5_8  and  C6_9 
REMARK    5  A    between atoms: C5_8  and  C12_33 
REMARK       I    between atoms: C6_9  and  N2_11 
REMARK    6  A    between atoms: N2_11  and  C7_13 
REMARK    7  A    between atoms: C7_13  and  C8_17 
REMARK    8  A    between atoms: C9_22  and  C10_23 
REMARK       I    between atoms: N11_36  and  C15_37 
REMARK    9  A    between atoms: C15_37  and  O5_39 
REMARK   10  A    between atoms: O5_39  and  C16_40 
REMARK   11  A    between atoms: C21_46  and  N12_47 
REMARK       I    between atoms: N12_47  and  C22_49 
REMARK   12  A    between atoms: C24_52  and  C25_53 
REMARK   13  A    between atoms: C25_53  and  O8_54 
REMARK   14  A    between atoms: C25_53  and  O9_56 
ROOT
HETATM    1  C5  UNL     1      27.700   4.399  34.643  1.00  0.00     0.122 C 
ENDROOT
BRANCH   1   2
HETATM    2  N1  UNL     1      26.652   4.511  33.674  1.00  0.00    -0.281 N 
HETATM    3  C4  UNL     1      26.832   4.109  32.413  1.00  0.00     0.119 A 
HETATM    4  C3  UNL     1      25.783   4.226  31.455  1.00  0.00     0.073 A 
HETATM    5  C24 UNL     1      24.571   4.747  31.787  1.00  0.00     0.072 A 
HETATM    6  C21 UNL     1      24.427   5.155  33.127  1.00  0.00     0.120 A 
HETATM    7  C20 UNL     1      25.448   5.032  34.022  1.00  0.00     0.280 A 
HETATM    8  O6  UNL     1      25.287   5.413  35.235  1.00  0.00    -0.265 OA
BRANCH   4   9
HETATM    9  C2  UNL     1      26.085   3.743  30.125  1.00  0.00     0.295 C 
HETATM   10  O2  UNL     1      26.666   4.371  29.252  1.00  0.00    -0.259 OA
BRANCH   9  11
HETATM   11  O1  UNL     1      25.686   2.424  29.770  1.00  0.00    -0.322 OA
HETATM   12  C1  UNL     1      24.746   2.277  28.728  1.00  0.00     0.213 C 
ENDBRANCH   9  11
ENDBRANCH   4   9
BRANCH   5  13
HETATM   13  C25 UNL     1      23.451   4.969  30.916  1.00  0.00     0.191 C 
BRANCH  13  14
HETATM   14  O8  UNL     1      22.513   4.057  30.927  1.00  0.00    -0.340 OA
ATOM     15  H8  UNL     1      22.100   3.864  30.093  1.00  0.00     0.220 HD
ENDBRANCH  13  14
BRANCH  13  16
HETATM   16  O9  UNL     1      23.138   5.966  30.043  1.00  0.00    -0.335 OA
HETATM   17  C26 UNL     1      23.434   5.891  28.640  1.00  0.00     0.212 C 
ENDBRANCH  13  16
ENDBRANCH   5  13
BRANCH   6  18
HETATM   18  N12 UNL     1      23.217   5.711  33.632  1.00  0.00    -0.322 N 
HETATM   19  C22 UNL     1      22.188   4.832  34.077  1.00  0.00     0.218 C 
HETATM   20  C23 UNL     1      20.911   5.342  34.611  1.00  0.00     0.117 C 
HETATM   21  O7  UNL     1      22.340   3.571  34.028  1.00  0.00    -0.274 OA
ATOM     22  H12 UNL     1      23.090   6.722  33.675  1.00  0.00     0.169 HD
ENDBRANCH   6  18
ENDBRANCH   1   2
BRANCH   1  23
HETATM   23  C6  UNL     1      28.367   3.069  34.680  1.00  0.00     0.275 C 
HETATM   24  O3  UNL     1      28.170   2.315  35.696  1.00  0.00    -0.266 OA
HETATM   25  N2  UNL     1      29.190   2.649  33.631  1.00  0.00    -0.305 N 
ATOM     26  H2  UNL     1      29.288   3.323  32.872  1.00  0.00     0.171 HD
BRANCH  25  27
HETATM   27  C7  UNL     1      29.895   1.471  33.451  1.00  0.00     0.148 C 
HETATM   28  N3  UNL     1      29.598   0.803  32.323  1.00  0.00    -0.382 N 
ATOM     29  H32 UNL     1      28.889   1.266  31.755  1.00  0.00     0.157 HD
ATOM     30  H31 UNL     1      30.117  -0.065  32.190  1.00  0.00     0.157 HD
BRANCH  27  31
HETATM   31  C8  UNL     1      30.898   0.816  34.254  1.00  0.00     0.166 A 
HETATM   32  N4  UNL     1      32.082   0.316  33.939  1.00  0.00    -0.281 N 
HETATM   33  N5  UNL     1      32.699  -0.209  34.990  1.00  0.00    -0.281 N 
ATOM     34  H4  UNL     1      32.474   0.331  32.997  1.00  0.00     0.188 HD
HETATM   35  C9  UNL     1      31.890  -0.051  36.050  1.00  0.00     0.169 A 
ATOM     36  H5  UNL     1      33.618  -0.650  34.991  1.00  0.00     0.188 HD
HETATM   37  N10 UNL     1      30.808   0.564  35.608  1.00  0.00    -0.320 N 
ATOM     38  H10 UNL     1      30.010   0.818  36.191  1.00  0.00     0.169 HD
BRANCH  35  39
HETATM   39  C10 UNL     1      32.161  -0.478  37.414  1.00  0.00     0.180 A 
HETATM   40  N6  UNL     1      33.395  -0.650  37.954  1.00  0.00    -0.264 N 
HETATM   41  N7  UNL     1      33.223  -1.041  39.207  1.00  0.00    -0.003 NA
ATOM     42  H6  UNL     1      34.288  -0.505  37.483  1.00  0.00     0.186 HD
HETATM   43  N8  UNL     1      31.935  -1.129  39.498  1.00  0.00    -0.221 N 
HETATM   44  C11 UNL     1      31.337  -1.529  40.780  1.00  0.00     0.197 C 
HETATM   45  N9  UNL     1      31.295  -0.783  38.395  1.00  0.00    -0.267 N 
ATOM     46  H9  UNL     1      30.280  -0.751  38.300  1.00  0.00     0.190 HD
ENDBRANCH  35  39
ENDBRANCH  27  31
ENDBRANCH  25  27
ENDBRANCH   1  23
BRANCH   1  47
HETATM   47  C12 UNL     1      28.611   5.540  34.722  1.00  0.00     0.014 A 
HETATM   48  C13 UNL     1      29.420   5.909  35.786  1.00  0.00     0.033 A 
HETATM   49  C14 UNL     1      30.101   7.040  35.441  1.00  0.00     0.102 A 
HETATM   50  N11 UNL     1      29.736   7.374  34.199  1.00  0.00    -0.279 N 
HETATM   51  C15 UNL     1      30.212   8.496  33.456  1.00  0.00     0.371 C 
HETATM   52  C19 UNL     1      28.855   6.506  33.746  1.00  0.00     0.115 A 
HETATM   53  O4  UNL     1      31.055   9.266  33.982  1.00  0.00    -0.238 OA
BRANCH  51  54
HETATM   54  O5  UNL     1      29.769   8.758  32.166  1.00  0.00    -0.299 OA
BRANCH  54  55
HETATM   55  C16 UNL     1      28.722   9.705  31.964  1.00  0.00     0.125 C 
HETATM   56  C17 UNL     1      27.736   9.038  31.003  1.00  0.00     0.040 C 
HETATM   57  C18 UNL     1      29.241  11.001  31.405  1.00  0.00     0.040 C 
ENDBRANCH  54  55
ENDBRANCH  51  54
ENDBRANCH   1  47
TORSDOF 14
ENDMDL
