MODEL 1
REMARK VINA RESULT: -7.164484043      0.000      0.000
REMARK  10 active torsions:
REMARK  status: ('A' for Active; 'I' for Inactive)
REMARK       I    between atoms: N2_3  and  C2_5 
REMARK    1  A    between atoms: C2_5  and  C3_7 
REMARK    2  A    between atoms: C4_8  and  N3_9 
REMARK    3  A    between atoms: C6_11  and  C7_12 
REMARK    4  A    between atoms: N6_17  and  C8_18 
REMARK    5  A    between atoms: C8_18  and  C9_19 
REMARK    6  A    between atoms: C9_19  and  O2_20 
REMARK    7  A    between atoms: O2_20  and  C10_21 
REMARK    8  A    between atoms: C10_21  and  C11_23 
REMARK    9  A    between atoms: C13_26  and  N9_29 
REMARK   10  A    between atoms: C24_45  and  C25_46 
ROOT
HETATM    1  N1  UNL     1      27.606   4.871  30.253  1.00  0.00    -0.172 NA
HETATM    2  C1  UNL     1      26.574   4.336  30.250  1.00  0.00     0.184 C 
HETATM    3  N2  UNL     1      25.315   3.702  30.252  1.00  0.00    -0.259 N 
ATOM      4  H2  UNL     1      24.731   3.727  31.087  1.00  0.00     0.181 HD
HETATM    5  C2  UNL     1      24.864   3.032  29.089  1.00  0.00     0.274 C 
HETATM    6  O1  UNL     1      25.631   3.035  28.085  1.00  0.00    -0.266 OA
ENDROOT
BRANCH   5   7
HETATM    7  C3  UNL     1      23.585   2.352  28.992  1.00  0.00     0.149 A 
HETATM    8  C4  UNL     1      22.361   3.008  28.814  1.00  0.00     0.164 A 
HETATM    9  N15 UNL     1      21.444   2.027  28.775  1.00  0.00    -0.280 N 
HETATM   10  N16 UNL     1      22.020   0.846  28.913  1.00  0.00    -0.264 N 
ATOM     11  H15 UNL     1      20.441   2.174  28.655  1.00  0.00     0.188 HD
HETATM   12  C26 UNL     1      23.353   0.993  29.053  1.00  0.00     0.279 A 
ATOM     13  H16 UNL     1      21.528  -0.047  28.915  1.00  0.00     0.190 HD
HETATM   14  O6  UNL     1      24.158   0.040  29.202  1.00  0.00    -0.266 OA
BRANCH   8  15
HETATM   15  N3  UNL     1      22.177   4.411  28.703  1.00  0.00    -0.232 N 
HETATM   16  C5  UNL     1      22.254   5.132  27.534  1.00  0.00     0.153 A 
HETATM   17  C6  UNL     1      22.033   6.452  27.740  1.00  0.00     0.097 A 
HETATM   18  N13 UNL     1      21.813   6.502  29.115  1.00  0.00    -0.282 N 
HETATM   19  N14 UNL     1      21.908   5.307  29.610  1.00  0.00    -0.234 N 
ATOM     20  H13 UNL     1      21.610   7.347  29.649  1.00  0.00     0.188 HD
ATOM     21  H14 UNL     1      21.785   5.092  30.599  1.00  0.00     0.209 HD
BRANCH  17  22
HETATM   22  C7  UNL     1      21.979   7.667  26.953  1.00  0.00     0.114 A 
HETATM   23  N4  UNL     1      23.049   8.040  26.136  1.00  0.00    -0.281 N 
HETATM   24  N5  UNL     1      22.776   9.135  25.546  1.00  0.00    -0.239 N 
ATOM     25  H4  UNL     1      23.917   7.515  26.027  1.00  0.00     0.188 HD
HETATM   26  N6  UNL     1      21.583   9.598  25.868  1.00  0.00    -0.267 N 
ATOM     27  H5  UNL     1      23.409   9.602  24.897  1.00  0.00     0.208 HD
HETATM   28  C24 UNL     1      21.074   8.663  26.764  1.00  0.00     0.159 A 
BRANCH  26  29
HETATM   29  C8  UNL     1      20.957  10.800  25.394  1.00  0.00     0.178 C 
BRANCH  29  30
HETATM   30  C9  UNL     1      20.850  10.897  23.895  1.00  0.00     0.201 C 
BRANCH  30  31
HETATM   31  O2  UNL     1      19.752  10.090  23.492  1.00  0.00    -0.315 OA
BRANCH  31  32
HETATM   32  C10 UNL     1      19.906   8.980  22.665  1.00  0.00     0.307 C 
HETATM   33  O3  UNL     1      19.876   9.178  21.439  1.00  0.00    -0.258 OA
BRANCH  32  34
HETATM   34  C11 UNL     1      20.095   7.651  23.194  1.00  0.00     0.159 C 
HETATM   35  C12 UNL     1      21.447   7.085  23.295  1.00  0.00     0.109 C 
HETATM   36  N7  UNL     1      22.498   6.626  23.377  1.00  0.00    -0.191 NA
HETATM   37  C13 UNL     1      19.108   6.900  23.602  1.00  0.00     0.165 C 
HETATM   38  C14 UNL     1      17.762   7.344  23.552  1.00  0.00     0.121 C 
HETATM   39  N8  UNL     1      16.634   7.689  23.522  1.00  0.00    -0.190 NA
BRANCH  37  40
HETATM   40  N9  UNL     1      19.360   5.574  24.125  1.00  0.00    -0.226 N 
HETATM   41  N10 UNL     1      19.949   4.567  23.543  1.00  0.00    -0.300 N 
HETATM   42  C15 UNL     1      20.003   3.494  24.335  1.00  0.00     0.141 A 
ATOM     43  H10 UNL     1      20.325   4.595  22.596  1.00  0.00     0.186 HD
HETATM   44  C16 UNL     1      19.393   3.854  25.523  1.00  0.00     0.096 A 
HETATM   45  N11 UNL     1      19.134   3.246  26.682  1.00  0.00    -0.350 N 
HETATM   46  C23 UNL     1      19.001   5.175  25.351  1.00  0.00     0.157 A 
HETATM   47  C17 UNL     1      18.503   3.891  27.678  1.00  0.00     0.059 A 
ATOM     48  H11 UNL     1      19.421   2.276  26.815  1.00  0.00     0.166 HD
HETATM   49  C18 UNL     1      18.243   3.241  28.873  1.00  0.00     0.032 A 
HETATM   50  C22 UNL     1      18.122   5.202  27.484  1.00  0.00     0.060 A 
HETATM   51  C19 UNL     1      17.597   3.895  29.898  1.00  0.00     0.002 A 
HETATM   52  C20 UNL     1      17.216   5.222  29.694  1.00  0.00     0.002 A 
HETATM   53  C21 UNL     1      17.472   5.868  28.509  1.00  0.00     0.032 A 
HETATM   54  N12 UNL     1      18.364   5.849  26.334  1.00  0.00    -0.337 N 
ATOM     55  H12 UNL     1      18.077   6.819  26.206  1.00  0.00     0.167 HD
ENDBRANCH  37  40
ENDBRANCH  32  34
ENDBRANCH  31  32
ENDBRANCH  30  31
ENDBRANCH  29  30
ENDBRANCH  26  29
BRANCH  28  56
HETATM   56  C25 UNL     1      19.767   8.798  27.366  1.00  0.00     0.231 C 
HETATM   57  O4  UNL     1      18.750   8.756  26.573  1.00  0.00    -0.643 OA
HETATM   58  O5  UNL     1      19.429   8.965  28.666  1.00  0.00    -0.643 OA
ENDBRANCH  28  56
ENDBRANCH  17  22
ENDBRANCH   8  15
ENDBRANCH   5   7
TORSDOF 10
ENDMDL
MODEL 2
REMARK VINA RESULT: -7.066077598      2.779      6.358
REMARK  10 active torsions:
REMARK  status: ('A' for Active; 'I' for Inactive)
REMARK       I    between atoms: N2_3  and  C2_5 
REMARK    1  A    between atoms: C2_5  and  C3_7 
REMARK    2  A    between atoms: C4_8  and  N3_9 
REMARK    3  A    between atoms: C6_11  and  C7_12 
REMARK    4  A    between atoms: N6_17  and  C8_18 
REMARK    5  A    between atoms: C8_18  and  C9_19 
REMARK    6  A    between atoms: C9_19  and  O2_20 
REMARK    7  A    between atoms: O2_20  and  C10_21 
REMARK    8  A    between atoms: C10_21  and  C11_23 
REMARK    9  A    between atoms: C13_26  and  N9_29 
REMARK   10  A    between atoms: C24_45  and  C25_46 
ROOT
HETATM    1  N1  UNL     1      25.316   9.398  28.189  1.00  0.00    -0.172 NA
HETATM    2  C1  UNL     1      25.680   8.662  29.011  1.00  0.00     0.184 C 
HETATM    3  N2  UNL     1      26.107   7.772  30.019  1.00  0.00    -0.259 N 
ATOM      4  H2  UNL     1      26.184   8.092  30.984  1.00  0.00     0.181 HD
HETATM    5  C2  UNL     1      26.427   6.434  29.685  1.00  0.00     0.274 C 
HETATM    6  O1  UNL     1      26.311   6.096  28.473  1.00  0.00    -0.266 OA
ENDROOT
BRANCH   5   7
HETATM    7  C3  UNL     1      26.873   5.445  30.649  1.00  0.00     0.149 A 
HETATM    8  C4  UNL     1      26.209   4.236  30.895  1.00  0.00     0.164 A 
HETATM    9  N15 UNL     1      26.941   3.625  31.840  1.00  0.00    -0.280 N 
HETATM   10  N16 UNL     1      27.982   4.367  32.175  1.00  0.00    -0.264 N 
ATOM     11  H15 UNL     1      26.724   2.714  32.245  1.00  0.00     0.188 HD
HETATM   12  C26 UNL     1      27.985   5.511  31.462  1.00  0.00     0.279 A 
ATOM     13  H16 UNL     1      28.681   4.111  32.872  1.00  0.00     0.190 HD
HETATM   14  O6  UNL     1      28.857   6.409  31.570  1.00  0.00    -0.266 OA
BRANCH   8  15
HETATM   15  N3  UNL     1      25.021   3.794  30.257  1.00  0.00    -0.232 N 
HETATM   16  C5  UNL     1      23.783   3.715  30.851  1.00  0.00     0.153 A 
HETATM   17  C6  UNL     1      22.840   3.259  29.994  1.00  0.00     0.097 A 
HETATM   18  N13 UNL     1      23.575   3.061  28.827  1.00  0.00    -0.282 N 
HETATM   19  N14 UNL     1      24.813   3.384  29.038  1.00  0.00    -0.234 N 
ATOM     20  H13 UNL     1      23.198   2.715  27.944  1.00  0.00     0.188 HD
ATOM     21  H14 UNL     1      25.543   3.323  28.329  1.00  0.00     0.209 HD
BRANCH  17  22
HETATM   22  C7  UNL     1      21.421   2.969  30.015  1.00  0.00     0.114 A 
HETATM   23  N4  UNL     1      20.929   1.754  29.533  1.00  0.00    -0.281 N 
HETATM   24  N5  UNL     1      19.662   1.726  29.652  1.00  0.00    -0.239 N 
ATOM     25  H4  UNL     1      21.499   1.002  29.145  1.00  0.00     0.188 HD
HETATM   26  N6  UNL     1      19.181   2.832  30.187  1.00  0.00    -0.267 N 
ATOM     27  H5  UNL     1      19.083   0.936  29.366  1.00  0.00     0.208 HD
HETATM   28  C24 UNL     1      20.301   3.626  30.419  1.00  0.00     0.159 A 
BRANCH  26  29
HETATM   29  C8  UNL     1      17.807   3.141  30.464  1.00  0.00     0.178 C 
BRANCH  29  30
HETATM   30  C9  UNL     1      17.058   3.744  29.305  1.00  0.00     0.201 C 
BRANCH  30  31
HETATM   31  O2  UNL     1      17.553   3.143  28.117  1.00  0.00    -0.315 OA
BRANCH  31  32
HETATM   32  C10 UNL     1      17.859   3.884  26.979  1.00  0.00     0.307 C 
HETATM   33  O3  UNL     1      17.243   3.604  25.937  1.00  0.00    -0.258 OA
BRANCH  32  34
HETATM   34  C11 UNL     1      18.847   4.935  26.992  1.00  0.00     0.159 C 
HETATM   35  C12 UNL     1      18.431   6.333  27.170  1.00  0.00     0.109 C 
HETATM   36  N7  UNL     1      18.122   7.432  27.305  1.00  0.00    -0.191 NA
HETATM   37  C13 UNL     1      20.126   4.713  26.852  1.00  0.00     0.165 C 
HETATM   38  C14 UNL     1      20.641   3.403  26.674  1.00  0.00     0.121 C 
HETATM   39  N8  UNL     1      21.096   2.324  26.525  1.00  0.00    -0.190 NA
BRANCH  37  40
HETATM   40  N9  UNL     1      21.071   5.809  26.875  1.00  0.00    -0.226 N 
HETATM   41  N10 UNL     1      21.652   6.363  27.903  1.00  0.00    -0.300 N 
HETATM   42  C15 UNL     1      22.468   7.354  27.542  1.00  0.00     0.141 A 
ATOM     43  H10 UNL     1      21.501   6.072  28.869  1.00  0.00     0.186 HD
HETATM   44  C16 UNL     1      22.398   7.435  26.163  1.00  0.00     0.096 A 
HETATM   45  N11 UNL     1      22.960   8.199  25.225  1.00  0.00    -0.350 N 
HETATM   46  C23 UNL     1      21.506   6.442  25.779  1.00  0.00     0.157 A 
HETATM   47  C17 UNL     1      22.676   8.022  23.923  1.00  0.00     0.059 A 
ATOM     48  H11 UNL     1      23.617   8.930  25.500  1.00  0.00     0.166 HD
HETATM   49  C18 UNL     1      23.270   8.827  22.965  1.00  0.00     0.032 A 
HETATM   50  C22 UNL     1      21.786   7.031  23.566  1.00  0.00     0.060 A 
HETATM   51  C19 UNL     1      22.984   8.651  21.630  1.00  0.00     0.002 A 
HETATM   52  C20 UNL     1      22.083   7.645  21.277  1.00  0.00     0.002 A 
HETATM   53  C21 UNL     1      21.492   6.846  22.226  1.00  0.00     0.032 A 
HETATM   54  N12 UNL     1      21.200   6.241  24.478  1.00  0.00    -0.337 N 
ATOM     55  H12 UNL     1      20.544   5.511  24.200  1.00  0.00     0.167 HD
ENDBRANCH  37  40
ENDBRANCH  32  34
ENDBRANCH  31  32
ENDBRANCH  30  31
ENDBRANCH  29  30
ENDBRANCH  26  29
BRANCH  28  56
HETATM   56  C25 UNL     1      20.210   4.943  31.006  1.00  0.00     0.231 C 
HETATM   57  O4  UNL     1      19.977   5.927  30.204  1.00  0.00    -0.643 OA
HETATM   58  O5  UNL     1      20.334   5.321  32.300  1.00  0.00    -0.643 OA
ENDBRANCH  28  56
ENDBRANCH  17  22
ENDBRANCH   8  15
ENDBRANCH   5   7
TORSDOF 10
ENDMDL
MODEL 3
REMARK VINA RESULT: -7.057053174      4.691      8.206
REMARK  10 active torsions:
REMARK  status: ('A' for Active; 'I' for Inactive)
REMARK       I    between atoms: N2_3  and  C2_5 
REMARK    1  A    between atoms: C2_5  and  C3_7 
REMARK    2  A    between atoms: C4_8  and  N3_9 
REMARK    3  A    between atoms: C6_11  and  C7_12 
REMARK    4  A    between atoms: N6_17  and  C8_18 
REMARK    5  A    between atoms: C8_18  and  C9_19 
REMARK    6  A    between atoms: C9_19  and  O2_20 
REMARK    7  A    between atoms: O2_20  and  C10_21 
REMARK    8  A    between atoms: C10_21  and  C11_23 
REMARK    9  A    between atoms: C13_26  and  N9_29 
REMARK   10  A    between atoms: C24_45  and  C25_46 
ROOT
HETATM    1  N1  UNL     1      25.762  -1.449  36.467  1.00  0.00    -0.172 NA
HETATM    2  C1  UNL     1      26.816  -1.088  36.134  1.00  0.00     0.184 C 
HETATM    3  N2  UNL     1      28.086  -0.642  35.714  1.00  0.00    -0.259 N 
ATOM      4  H2  UNL     1      28.425  -0.870  34.780  1.00  0.00     0.181 HD
HETATM    5  C2  UNL     1      28.888   0.122  36.595  1.00  0.00     0.274 C 
HETATM    6  O1  UNL     1      28.415   0.374  37.739  1.00  0.00    -0.266 OA
ENDROOT
BRANCH   5   7
HETATM    7  C3  UNL     1      30.207   0.627  36.256  1.00  0.00     0.149 A 
HETATM    8  C4  UNL     1      30.434   1.703  35.389  1.00  0.00     0.164 A 
HETATM    9  N15 UNL     1      31.770   1.841  35.352  1.00  0.00    -0.280 N 
HETATM   10  N16 UNL     1      32.353   0.941  36.123  1.00  0.00    -0.264 N 
ATOM     11  H15 UNL     1      32.266   2.544  34.803  1.00  0.00     0.188 HD
HETATM   12  C26 UNL     1      31.423   0.159  36.709  1.00  0.00     0.279 A 
ATOM     13  H16 UNL     1      33.360   0.849  36.256  1.00  0.00     0.190 HD
HETATM   14  O6  UNL     1      31.686  -0.784  37.496  1.00  0.00    -0.266 OA
BRANCH   8  15
HETATM   15  N3  UNL     1      29.437   2.455  34.716  1.00  0.00    -0.232 N 
HETATM   16  C5  UNL     1      29.321   2.579  33.351  1.00  0.00     0.153 A 
HETATM   17  C6  UNL     1      28.272   3.359  33.003  1.00  0.00     0.097 A 
HETATM   18  N13 UNL     1      27.743   3.712  34.243  1.00  0.00    -0.282 N 
HETATM   19  N14 UNL     1      28.450   3.166  35.182  1.00  0.00    -0.234 N 
ATOM     20  H13 UNL     1      26.927   4.307  34.388  1.00  0.00     0.188 HD
ATOM     21  H14 UNL     1      28.255   3.280  36.177  1.00  0.00     0.209 HD
BRANCH  17  22
HETATM   22  C7  UNL     1      27.653   3.847  31.786  1.00  0.00     0.114 A 
HETATM   23  N4  UNL     1      27.304   2.970  30.757  1.00  0.00    -0.281 N 
HETATM   24  N5  UNL     1      26.780   3.622  29.797  1.00  0.00    -0.239 N 
ATOM     25  H4  UNL     1      27.446   1.960  30.772  1.00  0.00     0.188 HD
HETATM   26  N6  UNL     1      26.718   4.917  30.041  1.00  0.00    -0.267 N 
ATOM     27  H5  UNL     1      26.447   3.190  28.935  1.00  0.00     0.208 HD
HETATM   28  C24 UNL     1      27.274   5.062  31.309  1.00  0.00     0.159 A 
BRANCH  26  29
HETATM   29  C8  UNL     1      26.192   5.941  29.184  1.00  0.00     0.178 C 
BRANCH  29  30
HETATM   30  C9  UNL     1      24.698   5.893  29.000  1.00  0.00     0.201 C 
BRANCH  30  31
HETATM   31  O2  UNL     1      24.338   4.535  28.787  1.00  0.00    -0.315 OA
BRANCH  31  32
HETATM   32  C10 UNL     1      23.304   3.920  29.488  1.00  0.00     0.307 C 
HETATM   33  O3  UNL     1      23.616   3.249  30.486  1.00  0.00    -0.258 OA
BRANCH  32  34
HETATM   34  C11 UNL     1      21.925   4.046  29.086  1.00  0.00     0.159 C 
HETATM   35  C12 UNL     1      21.143   5.221  29.497  1.00  0.00     0.109 C 
HETATM   36  N7  UNL     1      20.518   6.132  29.813  1.00  0.00    -0.191 NA
HETATM   37  C13 UNL     1      21.310   3.154  28.357  1.00  0.00     0.165 C 
HETATM   38  C14 UNL     1      21.966   1.980  27.903  1.00  0.00     0.121 C 
HETATM   39  N8  UNL     1      22.487   0.997  27.513  1.00  0.00    -0.190 NA
BRANCH  37  40
HETATM   40  N9  UNL     1      19.923   3.336  27.983  1.00  0.00    -0.226 N 
HETATM   41  N10 UNL     1      18.851   2.943  28.613  1.00  0.00    -0.300 N 
HETATM   42  C15 UNL     1      17.737   3.290  27.967  1.00  0.00     0.141 A 
ATOM     43  H10 UNL     1      18.863   2.431  29.495  1.00  0.00     0.186 HD
HETATM   44  C16 UNL     1      18.139   3.964  26.828  1.00  0.00     0.096 A 
HETATM   45  N11 UNL     1      17.521   4.547  25.800  1.00  0.00    -0.350 N 
HETATM   46  C23 UNL     1      19.527   3.972  26.874  1.00  0.00     0.157 A 
HETATM   47  C17 UNL     1      18.219   5.137  24.815  1.00  0.00     0.059 A 
ATOM     48  H11 UNL     1      16.502   4.545  25.760  1.00  0.00     0.166 HD
HETATM   49  C18 UNL     1      17.559   5.736  23.755  1.00  0.00     0.032 A 
HETATM   50  C22 UNL     1      19.597   5.132  24.882  1.00  0.00     0.060 A 
HETATM   51  C19 UNL     1      18.267   6.344  22.743  1.00  0.00     0.002 A 
HETATM   52  C20 UNL     1      19.661   6.335  22.819  1.00  0.00     0.002 A 
HETATM   53  C21 UNL     1      20.319   5.740  23.869  1.00  0.00     0.032 A 
HETATM   54  N12 UNL     1      20.256   4.558  25.899  1.00  0.00    -0.337 N 
ATOM     55  H12 UNL     1      21.276   4.562  25.935  1.00  0.00     0.167 HD
ENDBRANCH  37  40
ENDBRANCH  32  34
ENDBRANCH  31  32
ENDBRANCH  30  31
ENDBRANCH  29  30
ENDBRANCH  26  29
BRANCH  28  56
HETATM   56  C25 UNL     1      27.397   6.346  31.959  1.00  0.00     0.231 C 
HETATM   57  O4  UNL     1      28.534   6.949  31.856  1.00  0.00    -0.643 OA
HETATM   58  O5  UNL     1      26.484   7.039  32.681  1.00  0.00    -0.643 OA
ENDBRANCH  28  56
ENDBRANCH  17  22
ENDBRANCH   8  15
ENDBRANCH   5   7
TORSDOF 10
ENDMDL
MODEL 4
REMARK VINA RESULT: -7.045300525      2.790      9.374
REMARK  10 active torsions:
REMARK  status: ('A' for Active; 'I' for Inactive)
REMARK       I    between atoms: N2_3  and  C2_5 
REMARK    1  A    between atoms: C2_5  and  C3_7 
REMARK    2  A    between atoms: C4_8  and  N3_9 
REMARK    3  A    between atoms: C6_11  and  C7_12 
REMARK    4  A    between atoms: N6_17  and  C8_18 
REMARK    5  A    between atoms: C8_18  and  C9_19 
REMARK    6  A    between atoms: C9_19  and  O2_20 
REMARK    7  A    between atoms: O2_20  and  C10_21 
REMARK    8  A    between atoms: C10_21  and  C11_23 
REMARK    9  A    between atoms: C13_26  and  N9_29 
REMARK   10  A    between atoms: C24_45  and  C25_46 
ROOT
HETATM    1  N1  UNL     1      23.317   8.982  25.075  1.00  0.00    -0.172 NA
HETATM    2  C1  UNL     1      22.506   8.540  24.370  1.00  0.00     0.184 C 
HETATM    3  N2  UNL     1      21.528   7.987  23.518  1.00  0.00    -0.259 N 
ATOM      4  H2  UNL     1      21.808   7.411  22.724  1.00  0.00     0.181 HD
HETATM    5  C2  UNL     1      20.157   8.234  23.769  1.00  0.00     0.274 C 
HETATM    6  O1  UNL     1      19.871   8.954  24.767  1.00  0.00    -0.266 OA
ENDROOT
BRANCH   5   7
HETATM    7  C3  UNL     1      19.078   7.710  22.951  1.00  0.00     0.149 A 
HETATM    8  C4  UNL     1      18.692   6.363  22.933  1.00  0.00     0.164 A 
HETATM    9  N15 UNL     1      17.673   6.307  22.059  1.00  0.00    -0.280 N 
HETATM   10  N16 UNL     1      17.422   7.503  21.559  1.00  0.00    -0.264 N 
ATOM     11  H15 UNL     1      17.164   5.457  21.815  1.00  0.00     0.188 HD
HETATM   12  C26 UNL     1      18.270   8.413  22.082  1.00  0.00     0.279 A 
ATOM     13  H16 UNL     1      16.693   7.710  20.876  1.00  0.00     0.190 HD
HETATM   14  O6  UNL     1      18.264   9.635  21.789  1.00  0.00    -0.266 OA
BRANCH   8  15
HETATM   15  N3  UNL     1      19.280   5.319  23.693  1.00  0.00    -0.232 N 
HETATM   16  C5  UNL     1      19.137   5.148  25.051  1.00  0.00     0.153 A 
HETATM   17  C6  UNL     1      19.814   4.063  25.495  1.00  0.00     0.097 A 
HETATM   18  N13 UNL     1      20.386   3.573  24.324  1.00  0.00    -0.282 N 
HETATM   19  N14 UNL     1      20.045   4.331  23.328  1.00  0.00    -0.234 N 
ATOM     20  H13 UNL     1      20.981   2.746  24.260  1.00  0.00     0.188 HD
ATOM     21  H14 UNL     1      20.344   4.171  22.367  1.00  0.00     0.209 HD
BRANCH  17  22
HETATM   22  C7  UNL     1      20.046   3.385  26.755  1.00  0.00     0.114 A 
HETATM   23  N4  UNL     1      20.999   2.369  26.858  1.00  0.00    -0.281 N 
HETATM   24  N5  UNL     1      21.026   1.925  28.051  1.00  0.00    -0.239 N 
ATOM     25  H4  UNL     1      21.586   2.035  26.094  1.00  0.00     0.188 HD
HETATM   26  N6  UNL     1      20.161   2.538  28.837  1.00  0.00    -0.267 N 
ATOM     27  H5  UNL     1      21.646   1.179  28.364  1.00  0.00     0.208 HD
HETATM   28  C24 UNL     1      19.536   3.469  28.012  1.00  0.00     0.159 A 
BRANCH  26  29
HETATM   29  C8  UNL     1      19.924   2.293  30.231  1.00  0.00     0.178 C 
BRANCH  29  30
HETATM   30  C9  UNL     1      20.913   2.952  31.156  1.00  0.00     0.201 C 
BRANCH  30  31
HETATM   31  O2  UNL     1      22.201   2.815  30.572  1.00  0.00    -0.315 OA
BRANCH  31  32
HETATM   32  C10 UNL     1      22.996   3.913  30.253  1.00  0.00     0.307 C 
HETATM   33  O3  UNL     1      22.663   4.587  29.264  1.00  0.00    -0.258 OA
BRANCH  32  34
HETATM   34  C11 UNL     1      24.159   4.268  31.030  1.00  0.00     0.159 C 
HETATM   35  C12 UNL     1      23.999   4.888  32.352  1.00  0.00     0.109 C 
HETATM   36  N7  UNL     1      23.891   5.378  33.387  1.00  0.00    -0.191 NA
HETATM   37  C13 UNL     1      25.381   4.064  30.618  1.00  0.00     0.165 C 
HETATM   38  C14 UNL     1      25.654   3.471  29.357  1.00  0.00     0.121 C 
HETATM   39  N8  UNL     1      25.909   2.981  28.315  1.00  0.00    -0.190 NA
BRANCH  37  40
HETATM   40  N9  UNL     1      26.509   4.440  31.442  1.00  0.00    -0.226 N 
HETATM   41  N10 UNL     1      27.182   3.707  32.285  1.00  0.00    -0.300 N 
HETATM   42  C15 UNL     1      28.164   4.394  32.871  1.00  0.00     0.141 A 
ATOM     43  H10 UNL     1      26.982   2.725  32.474  1.00  0.00     0.186 HD
HETATM   44  C16 UNL     1      28.109   5.675  32.353  1.00  0.00     0.096 A 
HETATM   45  N11 UNL     1      28.799   6.803  32.527  1.00  0.00    -0.350 N 
HETATM   46  C23 UNL     1      27.050   5.664  31.454  1.00  0.00     0.157 A 
HETATM   47  C17 UNL     1      28.485   7.921  31.850  1.00  0.00     0.059 A 
ATOM     48  H11 UNL     1      29.578   6.818  33.186  1.00  0.00     0.166 HD
HETATM   49  C18 UNL     1      29.214   9.082  32.046  1.00  0.00     0.032 A 
HETATM   50  C22 UNL     1      27.429   7.886  30.963  1.00  0.00     0.060 A 
HETATM   51  C19 UNL     1      28.899  10.230  31.356  1.00  0.00     0.002 A 
HETATM   52  C20 UNL     1      27.830  10.186  30.459  1.00  0.00     0.002 A 
HETATM   53  C21 UNL     1      27.104   9.036  30.264  1.00  0.00     0.032 A 
HETATM   54  N12 UNL     1      26.711   6.772  30.758  1.00  0.00    -0.337 N 
ATOM     55  H12 UNL     1      25.933   6.761  30.099  1.00  0.00     0.167 HD
ENDBRANCH  37  40
ENDBRANCH  32  34
ENDBRANCH  31  32
ENDBRANCH  30  31
ENDBRANCH  29  30
ENDBRANCH  26  29
BRANCH  28  56
HETATM   56  C25 UNL     1      18.505   4.361  28.491  1.00  0.00     0.231 C 
HETATM   57  O4  UNL     1      17.299   4.131  28.091  1.00  0.00    -0.643 OA
HETATM   58  O5  UNL     1      18.603   5.430  29.315  1.00  0.00    -0.643 OA
ENDBRANCH  28  56
ENDBRANCH  17  22
ENDBRANCH   8  15
ENDBRANCH   5   7
TORSDOF 10
ENDMDL
MODEL 5
REMARK VINA RESULT: -6.963867611      5.513      8.812
REMARK  10 active torsions:
REMARK  status: ('A' for Active; 'I' for Inactive)
REMARK       I    between atoms: N2_3  and  C2_5 
REMARK    1  A    between atoms: C2_5  and  C3_7 
REMARK    2  A    between atoms: C4_8  and  N3_9 
REMARK    3  A    between atoms: C6_11  and  C7_12 
REMARK    4  A    between atoms: N6_17  and  C8_18 
REMARK    5  A    between atoms: C8_18  and  C9_19 
REMARK    6  A    between atoms: C9_19  and  O2_20 
REMARK    7  A    between atoms: O2_20  and  C10_21 
REMARK    8  A    between atoms: C10_21  and  C11_23 
REMARK    9  A    between atoms: C13_26  and  N9_29 
REMARK   10  A    between atoms: C24_45  and  C25_46 
ROOT
HETATM    1  N1  UNL     1      26.650  -2.680  35.440  1.00  0.00    -0.172 NA
HETATM    2  C1  UNL     1      25.956  -1.927  35.990  1.00  0.00     0.184 C 
HETATM    3  N2  UNL     1      25.099  -1.024  36.652  1.00  0.00    -0.259 N 
ATOM      4  H2  UNL     1      24.312  -0.608  36.156  1.00  0.00     0.181 HD
HETATM    5  C2  UNL     1      25.336  -0.698  38.009  1.00  0.00     0.274 C 
HETATM    6  O1  UNL     1      26.326  -1.245  38.572  1.00  0.00    -0.266 OA
ENDROOT
BRANCH   5   7
HETATM    7  C3  UNL     1      24.513   0.218  38.777  1.00  0.00     0.149 A 
HETATM    8  C4  UNL     1      24.595   1.614  38.682  1.00  0.00     0.164 A 
HETATM    9  N15 UNL     1      23.675   2.075  39.545  1.00  0.00    -0.280 N 
HETATM   10  N16 UNL     1      23.054   1.074  40.142  1.00  0.00    -0.264 N 
ATOM     11  H15 UNL     1      23.483   3.062  39.716  1.00  0.00     0.188 HD
HETATM   12  C26 UNL     1      23.539  -0.104  39.699  1.00  0.00     0.279 A 
ATOM     13  H16 UNL     1      22.315   1.176  40.837  1.00  0.00     0.190 HD
HETATM   14  O6  UNL     1      23.136  -1.228  40.092  1.00  0.00    -0.266 OA
BRANCH   8  15
HETATM   15  N3  UNL     1      25.478   2.339  37.840  1.00  0.00    -0.232 N 
HETATM   16  C5  UNL     1      25.334   2.489  36.480  1.00  0.00     0.153 A 
HETATM   17  C6  UNL     1      26.330   3.234  35.947  1.00  0.00     0.097 A 
HETATM   18  N13 UNL     1      27.102   3.537  37.066  1.00  0.00    -0.282 N 
HETATM   19  N14 UNL     1      26.566   3.000  38.117  1.00  0.00    -0.234 N 
ATOM     20  H13 UNL     1      27.957   4.095  37.060  1.00  0.00     0.188 HD
ATOM     21  H14 UNL     1      26.953   3.084  39.057  1.00  0.00     0.209 HD
BRANCH  17  22
HETATM   22  C7  UNL     1      26.723   3.725  34.641  1.00  0.00     0.114 A 
HETATM   23  N4  UNL     1      27.938   3.345  34.067  1.00  0.00    -0.281 N 
HETATM   24  N5  UNL     1      28.065   3.897  32.927  1.00  0.00    -0.239 N 
ATOM     25  H4  UNL     1      28.620   2.719  34.496  1.00  0.00     0.188 HD
HETATM   26  N6  UNL     1      27.033   4.658  32.617  1.00  0.00    -0.267 N 
ATOM     27  H5  UNL     1      28.875   3.766  32.321  1.00  0.00     0.208 HD
HETATM   28  C24 UNL     1      26.176   4.549  33.708  1.00  0.00     0.159 A 
BRANCH  26  29
HETATM   29  C8  UNL     1      26.843   5.424  31.418  1.00  0.00     0.178 C 
BRANCH  29  30
HETATM   30  C9  UNL     1      27.219   4.702  30.151  1.00  0.00     0.201 C 
BRANCH  30  31
HETATM   31  O2  UNL     1      26.453   3.506  30.097  1.00  0.00    -0.315 OA
BRANCH  31  32
HETATM   32  C10 UNL     1      25.513   3.267  29.099  1.00  0.00     0.307 C 
HETATM   33  O3  UNL     1      25.941   2.891  27.995  1.00  0.00    -0.258 OA
BRANCH  32  34
HETATM   34  C11 UNL     1      24.098   3.444  29.321  1.00  0.00     0.159 C 
HETATM   35  C12 UNL     1      23.527   4.797  29.379  1.00  0.00     0.109 C 
HETATM   36  N7  UNL     1      23.065   5.849  29.430  1.00  0.00    -0.191 NA
HETATM   37  C13 UNL     1      23.271   2.447  29.478  1.00  0.00     0.165 C 
HETATM   38  C14 UNL     1      23.712   1.099  29.441  1.00  0.00     0.121 C 
HETATM   39  N8  UNL     1      24.052  -0.031  29.414  1.00  0.00    -0.190 NA
BRANCH  37  40
HETATM   40  N9  UNL     1      21.860   2.687  29.696  1.00  0.00    -0.226 N 
HETATM   41  N10 UNL     1      21.194   2.662  30.817  1.00  0.00    -0.300 N 
HETATM   42  C15 UNL     1      19.901   2.934  30.635  1.00  0.00     0.141 A 
ATOM     43  H10 UNL     1      21.611   2.458  31.725  1.00  0.00     0.186 HD
HETATM   44  C16 UNL     1      19.733   3.151  29.280  1.00  0.00     0.096 A 
HETATM   45  N11 UNL     1      18.707   3.457  28.484  1.00  0.00    -0.350 N 
HETATM   46  C23 UNL     1      20.995   2.986  28.721  1.00  0.00     0.157 A 
HETATM   47  C17 UNL     1      18.876   3.605  27.159  1.00  0.00     0.059 A 
ATOM     48  H11 UNL     1      17.779   3.580  28.888  1.00  0.00     0.166 HD
HETATM   49  C18 UNL     1      17.797   3.921  26.350  1.00  0.00     0.032 A 
HETATM   50  C22 UNL     1      20.138   3.435  26.627  1.00  0.00     0.060 A 
HETATM   51  C19 UNL     1      17.963   4.075  24.992  1.00  0.00     0.002 A 
HETATM   52  C20 UNL     1      19.242   3.903  24.462  1.00  0.00     0.002 A 
HETATM   53  C21 UNL     1      20.314   3.588  25.262  1.00  0.00     0.032 A 
HETATM   54  N12 UNL     1      21.195   3.129  27.392  1.00  0.00    -0.337 N 
ATOM     55  H12 UNL     1      22.122   3.007  26.984  1.00  0.00     0.167 HD
ENDBRANCH  37  40
ENDBRANCH  32  34
ENDBRANCH  31  32
ENDBRANCH  30  31
ENDBRANCH  29  30
ENDBRANCH  26  29
BRANCH  28  56
HETATM   56  C25 UNL     1      24.908   5.239  33.771  1.00  0.00     0.231 C 
HETATM   57  O4  UNL     1      24.813   6.215  34.611  1.00  0.00    -0.643 OA
HETATM   58  O5  UNL     1      23.771   5.020  33.070  1.00  0.00    -0.643 OA
ENDBRANCH  28  56
ENDBRANCH  17  22
ENDBRANCH   8  15
ENDBRANCH   5   7
TORSDOF 10
ENDMDL
