MODEL 1
REMARK VINA RESULT: -6.464833159      0.000      0.000
REMARK  17 active torsions:
REMARK  status: ('A' for Active; 'I' for Inactive)
REMARK    1  A    between atoms: C2_2  and  C3_3 
REMARK    2  A    between atoms: N1_4  and  N2_6 
REMARK       I    between atoms: N2_6  and  C4_8 
REMARK    3  A    between atoms: C4_8  and  O2_10 
REMARK    4  A    between atoms: O2_10  and  C5_11 
REMARK    5  A    between atoms: C7_16  and  C8_17 
REMARK    6  A    between atoms: C8_17  and  O4_19 
REMARK    7  A    between atoms: O4_19  and  C9_20 
REMARK    8  A    between atoms: C11_24  and  N4_25 
REMARK    9  A    between atoms: C12_28  and  C13_29 
REMARK   10  A    between atoms: N5_31  and  N6_33 
REMARK       I    between atoms: N6_33  and  C15_35 
REMARK   11  A    between atoms: C15_35  and  O8_37 
REMARK   12  A    between atoms: C18_40  and  O9_41 
REMARK   13  A    between atoms: O9_41  and  C19_42 
REMARK   14  A    between atoms: C19_42  and  O11_44 
REMARK   15  A    between atoms: O11_44  and  C20_45 
REMARK   16  A    between atoms: C22_47  and  O12_48 
REMARK   17  A    between atoms: O12_48  and  C23_49 
ROOT
HETATM    1  C5  UNL     1      21.748   4.763  27.554  1.00  0.00     0.362 C 
HETATM    2  N3  UNL     1      22.726   3.807  27.982  1.00  0.00    -0.038 N 
ATOM      3  H31 UNL     1      23.543   4.233  28.420  1.00  0.00     0.281 HD
ATOM      4  H32 UNL     1      23.217   3.358  27.208  1.00  0.00     0.281 HD
HETATM    5  C6  UNL     1      22.065   2.904  28.812  1.00  0.00     0.239 C 
HETATM    6  C7  UNL     1      22.855   2.125  29.798  1.00  0.00     0.262 C 
HETATM    7  O6  UNL     1      21.913   1.149  30.282  1.00  0.00    -0.318 OA
HETATM    8  C11 UNL     1      20.567   1.491  30.292  1.00  0.00     0.145 C 
HETATM    9  C12 UNL     1      20.301   2.969  30.471  1.00  0.00     0.025 C 
HETATM   10  C17 UNL     1      21.010   3.808  29.499  1.00  0.00     0.093 C 
HETATM   11  C18 UNL     1      20.403   4.326  28.285  1.00  0.00     0.202 C 
ENDROOT
BRANCH  11  12
HETATM   12  O9  UNL     1      19.607   5.484  28.349  1.00  0.00    -0.287 OA
BRANCH  12  13
HETATM   13  C19 UNL     1      18.509   5.578  27.512  1.00  0.00     0.409 C 
HETATM   14  O10 UNL     1      17.451   6.100  27.984  1.00  0.00    -0.229 OA
BRANCH  13  15
HETATM   15  O11 UNL     1      18.477   5.148  26.214  1.00  0.00    -0.266 OA
BRANCH  15  16
HETATM   16  C20 UNL     1      18.838   6.042  25.177  1.00  0.00     0.274 C 
HETATM   17  C21 UNL     1      20.181   5.726  24.563  1.00  0.00     0.096 C 
HETATM   18  C22 UNL     1      19.949   5.920  23.095  1.00  0.00     0.160 C 
HETATM   19  C25 UNL     1      18.516   6.304  22.989  1.00  0.00     0.203 C 
HETATM   20  O14 UNL     1      17.899   5.866  24.154  1.00  0.00    -0.358 OA
BRANCH  18  21
HETATM   21  O12 UNL     1      20.828   6.852  22.505  1.00  0.00    -0.314 OA
BRANCH  21  22
HETATM   22  C23 UNL     1      22.145   6.617  22.240  1.00  0.00     0.255 C 
HETATM   23  C24 UNL     1      23.216   7.657  22.246  1.00  0.00     0.126 C 
HETATM   24  O13 UNL     1      22.486   5.426  21.971  1.00  0.00    -0.266 OA
ENDBRANCH  21  22
ENDBRANCH  18  21
ENDBRANCH  15  16
ENDBRANCH  13  15
ENDBRANCH  12  13
ENDBRANCH  11  12
BRANCH   1  25
HETATM   25  O2  UNL     1      22.093   6.034  28.081  1.00  0.00    -0.266 OA
BRANCH  25  26
HETATM   26  C4  UNL     1      23.332   6.621  27.993  1.00  0.00     0.381 C 
HETATM   27  N2  UNL     1      24.354   6.448  28.966  1.00  0.00    -0.246 N 
ATOM     28  H2  UNL     1      24.120   5.841  29.752  1.00  0.00     0.192 HD
HETATM   29  O1  UNL     1      23.580   7.351  27.006  1.00  0.00    -0.237 OA
BRANCH  27  30
HETATM   30  N1  UNL     1      25.581   6.976  28.985  1.00  0.00    -0.311 N 
HETATM   31  C3  UNL     1      26.547   7.061  29.766  1.00  0.00     0.080 C 
ATOM     32  H1  UNL     1      25.785   7.446  28.104  1.00  0.00     0.185 HD
BRANCH  31  33
HETATM   33  C2  UNL     1      26.588   6.483  31.133  1.00  0.00     0.041 C 
HETATM   34  C1  UNL     1      27.986   6.097  31.534  1.00  0.00     0.010 C 
ENDBRANCH  31  33
ENDBRANCH  27  30
ENDBRANCH  25  26
ENDBRANCH   1  25
BRANCH   9  35
HETATM   35  C13 UNL     1      18.927   3.262  30.806  1.00  0.00     0.033 C 
HETATM   36  C14 UNL     1      17.744   3.006  29.905  1.00  0.00     0.070 C 
HETATM   37  N5  UNL     1      18.631   3.776  31.940  1.00  0.00    -0.300 N 
ATOM     38  H5  UNL     1      17.658   3.981  32.169  1.00  0.00     0.186 HD
BRANCH  37  39
HETATM   39  N6  UNL     1      19.637   4.056  32.864  1.00  0.00    -0.245 N 
HETATM   40  C15 UNL     1      20.203   5.343  33.042  1.00  0.00     0.379 C 
HETATM   41  O7  UNL     1      19.838   6.346  32.373  1.00  0.00    -0.237 OA
ATOM     42  H6  UNL     1      19.985   3.293  33.444  1.00  0.00     0.192 HD
BRANCH  40  43
HETATM   43  O8  UNL     1      21.195   5.525  33.984  1.00  0.00    -0.308 OA
HETATM   44  C16 UNL     1      22.188   4.525  34.211  1.00  0.00     0.215 C 
ENDBRANCH  40  43
ENDBRANCH  37  39
ENDBRANCH   9  35
BRANCH   6  45
HETATM   45  C8  UNL     1      23.892   1.365  29.055  1.00  0.00     0.298 C 
HETATM   46  O3  UNL     1      23.947   0.105  29.078  1.00  0.00    -0.262 OA
BRANCH  45  47
HETATM   47  O4  UNL     1      24.860   2.000  28.290  1.00  0.00    -0.243 OA
BRANCH  47  48
HETATM   48  C9  UNL     1      25.681   3.017  28.756  1.00  0.00     0.262 C 
HETATM   49  C10 UNL     1      26.332   3.001  30.093  1.00  0.00     0.126 C 
HETATM   50  O5  UNL     1      25.842   3.986  27.939  1.00  0.00    -0.265 OA
ENDBRANCH  47  48
ENDBRANCH  45  47
ENDBRANCH   6  45
BRANCH   8  51
HETATM   51  N4  UNL     1      19.615   0.629  30.161  1.00  0.00    -0.380 N 
ATOM     52  H42 UNL     1      18.765   0.831  29.633  1.00  0.00     0.158 HD
ATOM     53  H41 UNL     1      19.643  -0.306  30.568  1.00  0.00     0.158 HD
ENDBRANCH   8  51
TORSDOF 17
ENDMDL
MODEL 2
REMARK VINA RESULT: -6.461818885      1.472      1.692
REMARK  17 active torsions:
REMARK  status: ('A' for Active; 'I' for Inactive)
REMARK    1  A    between atoms: C2_2  and  C3_3 
REMARK    2  A    between atoms: N1_4  and  N2_6 
REMARK       I    between atoms: N2_6  and  C4_8 
REMARK    3  A    between atoms: C4_8  and  O2_10 
REMARK    4  A    between atoms: O2_10  and  C5_11 
REMARK    5  A    between atoms: C7_16  and  C8_17 
REMARK    6  A    between atoms: C8_17  and  O4_19 
REMARK    7  A    between atoms: O4_19  and  C9_20 
REMARK    8  A    between atoms: C11_24  and  N4_25 
REMARK    9  A    between atoms: C12_28  and  C13_29 
REMARK   10  A    between atoms: N5_31  and  N6_33 
REMARK       I    between atoms: N6_33  and  C15_35 
REMARK   11  A    between atoms: C15_35  and  O8_37 
REMARK   12  A    between atoms: C18_40  and  O9_41 
REMARK   13  A    between atoms: O9_41  and  C19_42 
REMARK   14  A    between atoms: C19_42  and  O11_44 
REMARK   15  A    between atoms: O11_44  and  C20_45 
REMARK   16  A    between atoms: C22_47  and  O12_48 
REMARK   17  A    between atoms: O12_48  and  C23_49 
ROOT
HETATM    1  C5  UNL     1      21.837   5.421  28.132  1.00  0.00     0.362 C 
HETATM    2  N3  UNL     1      22.713   4.289  28.214  1.00  0.00    -0.038 N 
ATOM      3  H31 UNL     1      23.640   4.522  28.571  1.00  0.00     0.281 HD
ATOM      4  H32 UNL     1      23.011   3.943  27.301  1.00  0.00     0.281 HD
HETATM    5  C6  UNL     1      22.054   3.329  28.979  1.00  0.00     0.239 C 
HETATM    6  C7  UNL     1      22.856   2.285  29.665  1.00  0.00     0.262 C 
HETATM    7  O6  UNL     1      21.861   1.354  30.131  1.00  0.00    -0.318 OA
HETATM    8  C11 UNL     1      20.597   1.847  30.433  1.00  0.00     0.145 C 
HETATM    9  C12 UNL     1      20.586   3.283  30.905  1.00  0.00     0.025 C 
HETATM   10  C17 UNL     1      21.260   4.203  29.983  1.00  0.00     0.093 C 
HETATM   11  C18 UNL     1      20.565   5.015  29.000  1.00  0.00     0.202 C 
ENDROOT
BRANCH  11  12
HETATM   12  O9  UNL     1      19.970   6.226  29.398  1.00  0.00    -0.287 OA
BRANCH  12  13
HETATM   13  C19 UNL     1      19.074   6.835  28.538  1.00  0.00     0.409 C 
HETATM   14  O10 UNL     1      19.040   8.106  28.526  1.00  0.00    -0.229 OA
BRANCH  13  15
HETATM   15  O11 UNL     1      18.220   6.172  27.700  1.00  0.00    -0.266 OA
BRANCH  15  16
HETATM   16  C20 UNL     1      18.601   5.946  26.356  1.00  0.00     0.274 C 
HETATM   17  C21 UNL     1      18.666   4.481  25.997  1.00  0.00     0.096 C 
HETATM   18  C22 UNL     1      18.049   4.427  24.632  1.00  0.00     0.160 C 
HETATM   19  C25 UNL     1      17.671   5.834  24.336  1.00  0.00     0.203 C 
HETATM   20  O14 UNL     1      17.589   6.490  25.558  1.00  0.00    -0.358 OA
BRANCH  18  21
HETATM   21  O12 UNL     1      18.890   3.852  23.657  1.00  0.00    -0.314 OA
BRANCH  21  22
HETATM   22  C23 UNL     1      20.239   3.703  23.786  1.00  0.00     0.255 C 
HETATM   23  C24 UNL     1      20.924   2.442  24.203  1.00  0.00     0.126 C 
HETATM   24  O13 UNL     1      20.969   4.708  23.530  1.00  0.00    -0.266 OA
ENDBRANCH  21  22
ENDBRANCH  18  21
ENDBRANCH  15  16
ENDBRANCH  13  15
ENDBRANCH  12  13
ENDBRANCH  11  12
BRANCH   1  25
HETATM   25  O2  UNL     1      22.443   6.515  28.801  1.00  0.00    -0.266 OA
BRANCH  25  26
HETATM   26  C4  UNL     1      23.748   6.915  28.649  1.00  0.00     0.381 C 
HETATM   27  N2  UNL     1      24.811   6.462  29.479  1.00  0.00    -0.246 N 
ATOM     28  H2  UNL     1      24.551   5.799  30.210  1.00  0.00     0.192 HD
HETATM   29  O1  UNL     1      24.024   7.724  27.733  1.00  0.00    -0.237 OA
BRANCH  27  30
HETATM   30  N1  UNL     1      26.104   6.792  29.427  1.00  0.00    -0.311 N 
HETATM   31  C3  UNL     1      27.082   6.853  30.195  1.00  0.00     0.080 C 
ATOM     32  H1  UNL     1      26.366   7.076  28.484  1.00  0.00     0.185 HD
BRANCH  31  33
HETATM   33  C2  UNL     1      27.051   6.506  31.639  1.00  0.00     0.041 C 
HETATM   34  C1  UNL     1      28.251   5.691  32.041  1.00  0.00     0.010 C 
ENDBRANCH  31  33
ENDBRANCH  27  30
ENDBRANCH  25  26
ENDBRANCH   1  25
BRANCH   9  35
HETATM   35  C13 UNL     1      19.337   3.669  31.518  1.00  0.00     0.033 C 
HETATM   36  C14 UNL     1      17.998   3.675  30.823  1.00  0.00     0.070 C 
HETATM   37  N5  UNL     1      19.301   4.040  32.743  1.00  0.00    -0.300 N 
ATOM     38  H5  UNL     1      18.415   4.312  33.168  1.00  0.00     0.186 HD
BRANCH  37  39
HETATM   39  N6  UNL     1      20.475   4.073  33.496  1.00  0.00    -0.245 N 
HETATM   40  C15 UNL     1      21.168   5.267  33.817  1.00  0.00     0.379 C 
HETATM   41  O7  UNL     1      20.775   6.404  33.444  1.00  0.00    -0.237 OA
ATOM     42  H6  UNL     1      20.855   3.189  33.835  1.00  0.00     0.192 HD
BRANCH  40  43
HETATM   43  O8  UNL     1      22.322   5.200  34.571  1.00  0.00    -0.308 OA
HETATM   44  C16 UNL     1      23.554   4.764  33.997  1.00  0.00     0.215 C 
ENDBRANCH  40  43
ENDBRANCH  37  39
ENDBRANCH   9  35
BRANCH   6  45
HETATM   45  C8  UNL     1      23.646   1.564  28.634  1.00  0.00     0.298 C 
HETATM   46  O3  UNL     1      23.133   0.683  27.891  1.00  0.00    -0.262 OA
BRANCH  45  47
HETATM   47  O4  UNL     1      24.994   1.821  28.431  1.00  0.00    -0.243 OA
BRANCH  47  48
HETATM   48  C9  UNL     1      25.648   2.959  28.877  1.00  0.00     0.262 C 
HETATM   49  C10 UNL     1      26.258   3.082  30.227  1.00  0.00     0.126 C 
HETATM   50  O5  UNL     1      25.692   3.914  28.029  1.00  0.00    -0.265 OA
ENDBRANCH  47  48
ENDBRANCH  45  47
ENDBRANCH   6  45
BRANCH   8  51
HETATM   51  N4  UNL     1      19.518   1.147  30.323  1.00  0.00    -0.380 N 
ATOM     52  H42 UNL     1      19.396   0.443  29.595  1.00  0.00     0.158 HD
ATOM     53  H41 UNL     1      18.718   1.247  30.948  1.00  0.00     0.158 HD
ENDBRANCH   8  51
TORSDOF 17
ENDMDL
MODEL 3
REMARK VINA RESULT: -6.393389577      1.680      2.217
REMARK  17 active torsions:
REMARK  status: ('A' for Active; 'I' for Inactive)
REMARK    1  A    between atoms: C2_2  and  C3_3 
REMARK    2  A    between atoms: N1_4  and  N2_6 
REMARK       I    between atoms: N2_6  and  C4_8 
REMARK    3  A    between atoms: C4_8  and  O2_10 
REMARK    4  A    between atoms: O2_10  and  C5_11 
REMARK    5  A    between atoms: C7_16  and  C8_17 
REMARK    6  A    between atoms: C8_17  and  O4_19 
REMARK    7  A    between atoms: O4_19  and  C9_20 
REMARK    8  A    between atoms: C11_24  and  N4_25 
REMARK    9  A    between atoms: C12_28  and  C13_29 
REMARK   10  A    between atoms: N5_31  and  N6_33 
REMARK       I    between atoms: N6_33  and  C15_35 
REMARK   11  A    between atoms: C15_35  and  O8_37 
REMARK   12  A    between atoms: C18_40  and  O9_41 
REMARK   13  A    between atoms: O9_41  and  C19_42 
REMARK   14  A    between atoms: C19_42  and  O11_44 
REMARK   15  A    between atoms: O11_44  and  C20_45 
REMARK   16  A    between atoms: C22_47  and  O12_48 
REMARK   17  A    between atoms: O12_48  and  C23_49 
ROOT
HETATM    1  C5  UNL     1      21.229   4.500  27.059  1.00  0.00     0.362 C 
HETATM    2  N3  UNL     1      22.255   3.652  27.592  1.00  0.00    -0.038 N 
ATOM      3  H31 UNL     1      23.065   4.167  27.937  1.00  0.00     0.281 HD
ATOM      4  H32 UNL     1      22.742   3.111  26.877  1.00  0.00     0.281 HD
HETATM    5  C6  UNL     1      21.651   2.860  28.566  1.00  0.00     0.239 C 
HETATM    6  C7  UNL     1      22.497   2.263  29.630  1.00  0.00     0.262 C 
HETATM    7  O6  UNL     1      21.606   1.338  30.282  1.00  0.00    -0.318 OA
HETATM    8  C11 UNL     1      20.248   1.630  30.285  1.00  0.00     0.145 C 
HETATM    9  C12 UNL     1      19.930   3.108  30.252  1.00  0.00     0.025 C 
HETATM   10  C17 UNL     1      20.580   3.818  29.146  1.00  0.00     0.093 C 
HETATM   11  C18 UNL     1      19.922   4.129  27.889  1.00  0.00     0.202 C 
ENDROOT
BRANCH  11  12
HETATM   12  O9  UNL     1      19.084   5.256  27.807  1.00  0.00    -0.287 OA
BRANCH  12  13
HETATM   13  C19 UNL     1      18.107   5.282  26.827  1.00  0.00     0.409 C 
HETATM   14  O10 UNL     1      17.309   6.272  26.817  1.00  0.00    -0.229 OA
BRANCH  13  15
HETATM   15  O11 UNL     1      17.934   4.321  25.869  1.00  0.00    -0.266 OA
BRANCH  15  16
HETATM   16  C20 UNL     1      18.523   4.497  24.595  1.00  0.00     0.274 C 
HETATM   17  C21 UNL     1      19.339   5.763  24.489  1.00  0.00     0.096 C 
HETATM   18  C22 UNL     1      20.556   5.333  23.727  1.00  0.00     0.160 C 
HETATM   19  C25 UNL     1      20.351   3.881  23.482  1.00  0.00     0.203 C 
HETATM   20  O14 UNL     1      19.428   3.444  24.424  1.00  0.00    -0.358 OA
BRANCH  18  21
HETATM   21  O12 UNL     1      20.776   6.078  22.550  1.00  0.00    -0.314 OA
BRANCH  21  22
HETATM   22  C23 UNL     1      21.874   6.853  22.317  1.00  0.00     0.255 C 
HETATM   23  C24 UNL     1      21.997   7.848  21.210  1.00  0.00     0.126 C 
HETATM   24  O13 UNL     1      22.864   6.720  23.098  1.00  0.00    -0.266 OA
ENDBRANCH  21  22
ENDBRANCH  18  21
ENDBRANCH  15  16
ENDBRANCH  13  15
ENDBRANCH  12  13
ENDBRANCH  11  12
BRANCH   1  25
HETATM   25  O2  UNL     1      21.539   5.846  27.382  1.00  0.00    -0.266 OA
BRANCH  25  26
HETATM   26  C4  UNL     1      22.440   6.637  26.713  1.00  0.00     0.381 C 
HETATM   27  N2  UNL     1      22.067   7.764  25.930  1.00  0.00    -0.246 N 
ATOM     28  H2  UNL     1      21.068   7.970  25.897  1.00  0.00     0.192 HD
HETATM   29  O1  UNL     1      23.658   6.353  26.789  1.00  0.00    -0.237 OA
BRANCH  27  30
HETATM   30  N1  UNL     1      22.854   8.590  25.234  1.00  0.00    -0.311 N 
HETATM   31  C3  UNL     1      23.428   9.683  25.390  1.00  0.00     0.080 C 
ATOM     32  H1  UNL     1      23.037   8.214  24.304  1.00  0.00     0.185 HD
BRANCH  31  33
HETATM   33  C2  UNL     1      23.374  10.500  26.629  1.00  0.00     0.041 C 
HETATM   34  C1  UNL     1      24.365  10.021  27.656  1.00  0.00     0.010 C 
ENDBRANCH  31  33
ENDBRANCH  27  30
ENDBRANCH  25  26
ENDBRANCH   1  25
BRANCH   9  35
HETATM   35  C13 UNL     1      18.555   3.400  30.584  1.00  0.00     0.033 C 
HETATM   36  C14 UNL     1      17.363   3.023  29.739  1.00  0.00     0.070 C 
HETATM   37  N5  UNL     1      18.265   4.020  31.666  1.00  0.00    -0.300 N 
ATOM     38  H5  UNL     1      17.292   4.224  31.892  1.00  0.00     0.186 HD
BRANCH  37  39
HETATM   39  N6  UNL     1      19.281   4.418  32.535  1.00  0.00    -0.245 N 
HETATM   40  C15 UNL     1      19.789   5.740  32.594  1.00  0.00     0.379 C 
HETATM   41  O7  UNL     1      19.360   6.669  31.860  1.00  0.00    -0.237 OA
ATOM     42  H6  UNL     1      19.679   3.720  33.163  1.00  0.00     0.192 HD
BRANCH  40  43
HETATM   43  O8  UNL     1      20.795   6.041  33.491  1.00  0.00    -0.308 OA
HETATM   44  C16 UNL     1      21.791   7.016  33.181  1.00  0.00     0.215 C 
ENDBRANCH  40  43
ENDBRANCH  37  39
ENDBRANCH   9  35
BRANCH   6  45
HETATM   45  C8  UNL     1      23.543   1.437  28.974  1.00  0.00     0.298 C 
HETATM   46  O3  UNL     1      23.274   0.628  28.045  1.00  0.00    -0.262 OA
BRANCH  45  47
HETATM   47  O4  UNL     1      24.877   1.512  29.348  1.00  0.00    -0.243 OA
BRANCH  47  48
HETATM   48  C9  UNL     1      25.675   2.633  29.178  1.00  0.00     0.262 C 
HETATM   49  C10 UNL     1      26.227   3.429  30.306  1.00  0.00     0.126 C 
HETATM   50  O5  UNL     1      25.907   2.940  27.959  1.00  0.00    -0.265 OA
ENDBRANCH  47  48
ENDBRANCH  45  47
ENDBRANCH   6  45
BRANCH   8  51
HETATM   51  N4  UNL     1      19.327   0.726  30.311  1.00  0.00    -0.380 N 
ATOM     52  H42 UNL     1      19.014   0.291  31.179  1.00  0.00     0.158 HD
ATOM     53  H41 UNL     1      18.851   0.386  29.476  1.00  0.00     0.158 HD
ENDBRANCH   8  51
TORSDOF 17
ENDMDL
MODEL 4
REMARK VINA RESULT: -6.364568083      2.401      7.939
REMARK  17 active torsions:
REMARK  status: ('A' for Active; 'I' for Inactive)
REMARK    1  A    between atoms: C2_2  and  C3_3 
REMARK    2  A    between atoms: N1_4  and  N2_6 
REMARK       I    between atoms: N2_6  and  C4_8 
REMARK    3  A    between atoms: C4_8  and  O2_10 
REMARK    4  A    between atoms: O2_10  and  C5_11 
REMARK    5  A    between atoms: C7_16  and  C8_17 
REMARK    6  A    between atoms: C8_17  and  O4_19 
REMARK    7  A    between atoms: O4_19  and  C9_20 
REMARK    8  A    between atoms: C11_24  and  N4_25 
REMARK    9  A    between atoms: C12_28  and  C13_29 
REMARK   10  A    between atoms: N5_31  and  N6_33 
REMARK       I    between atoms: N6_33  and  C15_35 
REMARK   11  A    between atoms: C15_35  and  O8_37 
REMARK   12  A    between atoms: C18_40  and  O9_41 
REMARK   13  A    between atoms: O9_41  and  C19_42 
REMARK   14  A    between atoms: C19_42  and  O11_44 
REMARK   15  A    between atoms: O11_44  and  C20_45 
REMARK   16  A    between atoms: C22_47  and  O12_48 
REMARK   17  A    between atoms: O12_48  and  C23_49 
ROOT
HETATM    1  C5  UNL     1      21.755   1.912  28.418  1.00  0.00     0.362 C 
HETATM    2  N3  UNL     1      20.609   2.468  27.759  1.00  0.00    -0.038 N 
ATOM      3  H31 UNL     1      19.754   2.401  28.311  1.00  0.00     0.281 HD
ATOM      4  H32 UNL     1      20.292   1.912  26.964  1.00  0.00     0.281 HD
HETATM    5  C6  UNL     1      20.943   3.777  27.417  1.00  0.00     0.239 C 
HETATM    6  C7  UNL     1      19.852   4.760  27.198  1.00  0.00     0.262 C 
HETATM    7  O6  UNL     1      20.537   5.895  26.634  1.00  0.00    -0.318 OA
HETATM    8  C11 UNL     1      21.862   6.103  26.993  1.00  0.00     0.145 C 
HETATM    9  C12 UNL     1      22.218   5.600  28.375  1.00  0.00     0.025 C 
HETATM   10  C17 UNL     1      21.870   4.192  28.588  1.00  0.00     0.093 C 
HETATM   11  C18 UNL     1      22.816   3.097  28.460  1.00  0.00     0.202 C 
ENDROOT
BRANCH  11  12
HETATM   12  O9  UNL     1      23.679   2.801  29.530  1.00  0.00    -0.287 OA
BRANCH  12  13
HETATM   13  C19 UNL     1      25.008   2.530  29.251  1.00  0.00     0.409 C 
HETATM   14  O10 UNL     1      25.327   2.335  28.036  1.00  0.00    -0.229 OA
BRANCH  13  15
HETATM   15  O11 UNL     1      26.002   2.454  30.187  1.00  0.00    -0.266 OA
BRANCH  15  16
HETATM   16  C20 UNL     1      26.629   3.642  30.633  1.00  0.00     0.274 C 
HETATM   17  C21 UNL     1      25.774   4.439  31.589  1.00  0.00     0.096 C 
HETATM   18  C22 UNL     1      26.747   4.890  32.636  1.00  0.00     0.160 C 
HETATM   19  C25 UNL     1      28.049   4.309  32.214  1.00  0.00     0.203 C 
HETATM   20  O14 UNL     1      27.755   3.249  31.364  1.00  0.00    -0.358 OA
BRANCH  18  21
HETATM   21  O12 UNL     1      26.783   6.289  32.806  1.00  0.00    -0.314 OA
BRANCH  21  22
HETATM   22  C23 UNL     1      26.326   7.194  31.894  1.00  0.00     0.255 C 
HETATM   23  C24 UNL     1      27.078   7.638  30.682  1.00  0.00     0.126 C 
HETATM   24  O13 UNL     1      25.177   7.694  32.086  1.00  0.00    -0.266 OA
ENDBRANCH  21  22
ENDBRANCH  18  21
ENDBRANCH  15  16
ENDBRANCH  13  15
ENDBRANCH  12  13
ENDBRANCH  11  12
BRANCH   1  25
HETATM   25  O2  UNL     1      21.413   1.633  29.766  1.00  0.00    -0.266 OA
BRANCH  25  26
HETATM   26  C4  UNL     1      20.138   1.447  30.240  1.00  0.00     0.381 C 
HETATM   27  N2  UNL     1      19.587   0.168  30.531  1.00  0.00    -0.246 N 
ATOM     28  H2  UNL     1      20.207  -0.628  30.376  1.00  0.00     0.192 HD
HETATM   29  O1  UNL     1      19.414   2.452  30.425  1.00  0.00    -0.237 OA
BRANCH  27  30
HETATM   30  N1  UNL     1      18.365  -0.127  30.982  1.00  0.00    -0.311 N 
HETATM   31  C3  UNL     1      17.719  -1.131  31.336  1.00  0.00     0.080 C 
ATOM     32  H1  UNL     1      17.796   0.716  31.060  1.00  0.00     0.185 HD
BRANCH  31  33
HETATM   33  C2  UNL     1      18.247  -2.519  31.350  1.00  0.00     0.041 C 
HETATM   34  C1  UNL     1      17.970  -3.233  30.054  1.00  0.00     0.010 C 
ENDBRANCH  31  33
ENDBRANCH  27  30
ENDBRANCH  25  26
ENDBRANCH   1  25
BRANCH   9  35
HETATM   35  C13 UNL     1      23.482   6.108  28.855  1.00  0.00     0.033 C 
HETATM   36  C14 UNL     1      24.820   5.850  28.207  1.00  0.00     0.070 C 
HETATM   37  N5  UNL     1      23.531   6.842  29.903  1.00  0.00    -0.300 N 
ATOM     38  H5  UNL     1      24.428   7.195  30.236  1.00  0.00     0.186 HD
BRANCH  37  39
HETATM   39  N6  UNL     1      22.359   7.157  30.590  1.00  0.00    -0.245 N 
HETATM   40  C15 UNL     1      21.911   6.459  31.739  1.00  0.00     0.379 C 
HETATM   41  O7  UNL     1      22.543   5.489  32.237  1.00  0.00    -0.237 OA
ATOM     42  H6  UNL     1      21.793   7.932  30.246  1.00  0.00     0.192 HD
BRANCH  40  43
HETATM   43  O8  UNL     1      20.738   6.845  32.354  1.00  0.00    -0.308 OA
HETATM   44  C16 UNL     1      19.572   6.022  32.303  1.00  0.00     0.215 C 
ENDBRANCH  40  43
ENDBRANCH  37  39
ENDBRANCH   9  35
BRANCH   6  45
HETATM   45  C8  UNL     1      18.971   4.234  26.124  1.00  0.00     0.298 C 
HETATM   46  O3  UNL     1      18.078   3.373  26.352  1.00  0.00    -0.262 OA
BRANCH  45  47
HETATM   47  O4  UNL     1      19.080   4.662  24.809  1.00  0.00    -0.243 OA
BRANCH  47  48
HETATM   48  C9  UNL     1      20.077   4.254  23.935  1.00  0.00     0.262 C 
HETATM   49  C10 UNL     1      20.914   5.195  23.145  1.00  0.00     0.126 C 
HETATM   50  O5  UNL     1      20.228   2.988  23.855  1.00  0.00    -0.265 OA
ENDBRANCH  47  48
ENDBRANCH  45  47
ENDBRANCH   6  45
BRANCH   8  51
HETATM   51  N4  UNL     1      22.726   6.673  26.222  1.00  0.00    -0.380 N 
ATOM     52  H42 UNL     1      22.642   6.661  25.206  1.00  0.00     0.158 HD
ATOM     53  H41 UNL     1      23.545   7.173  26.570  1.00  0.00     0.158 HD
ENDBRANCH   8  51
TORSDOF 17
ENDMDL
MODEL 5
REMARK VINA RESULT: -6.302330090      2.095      7.827
REMARK  17 active torsions:
REMARK  status: ('A' for Active; 'I' for Inactive)
REMARK    1  A    between atoms: C2_2  and  C3_3 
REMARK    2  A    between atoms: N1_4  and  N2_6 
REMARK       I    between atoms: N2_6  and  C4_8 
REMARK    3  A    between atoms: C4_8  and  O2_10 
REMARK    4  A    between atoms: O2_10  and  C5_11 
REMARK    5  A    between atoms: C7_16  and  C8_17 
REMARK    6  A    between atoms: C8_17  and  O4_19 
REMARK    7  A    between atoms: O4_19  and  C9_20 
REMARK    8  A    between atoms: C11_24  and  N4_25 
REMARK    9  A    between atoms: C12_28  and  C13_29 
REMARK   10  A    between atoms: N5_31  and  N6_33 
REMARK       I    between atoms: N6_33  and  C15_35 
REMARK   11  A    between atoms: C15_35  and  O8_37 
REMARK   12  A    between atoms: C18_40  and  O9_41 
REMARK   13  A    between atoms: O9_41  and  C19_42 
REMARK   14  A    between atoms: C19_42  and  O11_44 
REMARK   15  A    between atoms: O11_44  and  C20_45 
REMARK   16  A    between atoms: C22_47  and  O12_48 
REMARK   17  A    between atoms: O12_48  and  C23_49 
ROOT
HETATM    1  C5  UNL     1      21.821   1.848  28.560  1.00  0.00     0.362 C 
HETATM    2  N3  UNL     1      20.677   2.469  27.958  1.00  0.00    -0.038 N 
ATOM      3  H31 UNL     1      19.845   2.440  28.548  1.00  0.00     0.281 HD
ATOM      4  H32 UNL     1      20.297   1.939  27.174  1.00  0.00     0.281 HD
HETATM    5  C6  UNL     1      21.063   3.763  27.614  1.00  0.00     0.239 C 
HETATM    6  C7  UNL     1      20.015   4.803  27.451  1.00  0.00     0.262 C 
HETATM    7  O6  UNL     1      20.732   5.907  26.867  1.00  0.00    -0.318 OA
HETATM    8  C11 UNL     1      22.081   6.043  27.168  1.00  0.00     0.145 C 
HETATM    9  C12 UNL     1      22.472   5.508  28.528  1.00  0.00     0.025 C 
HETATM   10  C17 UNL     1      22.061   4.117  28.745  1.00  0.00     0.093 C 
HETATM   11  C18 UNL     1      22.943   2.977  28.565  1.00  0.00     0.202 C 
ENDROOT
BRANCH  11  12
HETATM   12  O9  UNL     1      23.837   2.625  29.592  1.00  0.00    -0.287 OA
BRANCH  12  13
HETATM   13  C19 UNL     1      25.186   2.548  29.296  1.00  0.00     0.409 C 
HETATM   14  O10 UNL     1      25.512   2.286  28.095  1.00  0.00    -0.229 OA
BRANCH  13  15
HETATM   15  O11 UNL     1      26.196   2.730  30.200  1.00  0.00    -0.266 OA
BRANCH  15  16
HETATM   16  C20 UNL     1      26.450   4.026  30.707  1.00  0.00     0.274 C 
HETATM   17  C21 UNL     1      26.681   4.044  32.199  1.00  0.00     0.096 C 
HETATM   18  C22 UNL     1      27.824   4.999  32.365  1.00  0.00     0.160 C 
HETATM   19  C25 UNL     1      28.161   5.425  30.981  1.00  0.00     0.203 C 
HETATM   20  O14 UNL     1      27.650   4.453  30.129  1.00  0.00    -0.358 OA
BRANCH  18  21
HETATM   21  O12 UNL     1      27.539   6.074  33.232  1.00  0.00    -0.314 OA
BRANCH  21  22
HETATM   22  C23 UNL     1      26.917   7.229  32.859  1.00  0.00     0.255 C 
HETATM   23  C24 UNL     1      27.583   8.561  32.751  1.00  0.00     0.126 C 
HETATM   24  O13 UNL     1      25.682   7.167  32.581  1.00  0.00    -0.266 OA
ENDBRANCH  21  22
ENDBRANCH  18  21
ENDBRANCH  15  16
ENDBRANCH  13  15
ENDBRANCH  12  13
ENDBRANCH  11  12
BRANCH   1  25
HETATM   25  O2  UNL     1      21.526   1.573  29.920  1.00  0.00    -0.266 OA
BRANCH  25  26
HETATM   26  C4  UNL     1      20.353   1.894  30.559  1.00  0.00     0.381 C 
HETATM   27  N2  UNL     1      19.168   1.114  30.465  1.00  0.00    -0.246 N 
ATOM     28  H2  UNL     1      19.234   0.273  29.890  1.00  0.00     0.192 HD
HETATM   29  O1  UNL     1      20.318   2.930  31.262  1.00  0.00    -0.237 OA
BRANCH  27  30
HETATM   30  N1  UNL     1      17.979   1.337  31.031  1.00  0.00    -0.311 N 
HETATM   31  C3  UNL     1      16.983   2.063  30.852  1.00  0.00     0.080 C 
ATOM     32  H1  UNL     1      17.849   0.739  31.847  1.00  0.00     0.185 HD
BRANCH  31  33
HETATM   33  C2  UNL     1      16.838   3.049  29.752  1.00  0.00     0.041 C 
HETATM   34  C1  UNL     1      17.366   4.403  30.144  1.00  0.00     0.010 C 
ENDBRANCH  31  33
ENDBRANCH  27  30
ENDBRANCH  25  26
ENDBRANCH   1  25
BRANCH   9  35
HETATM   35  C13 UNL     1      23.780   5.946  28.955  1.00  0.00     0.033 C 
HETATM   36  C14 UNL     1      25.037   5.851  28.125  1.00  0.00     0.070 C 
HETATM   37  N5  UNL     1      23.946   6.463  30.114  1.00  0.00    -0.300 N 
ATOM     38  H5  UNL     1      24.874   6.768  30.408  1.00  0.00     0.186 HD
BRANCH  37  39
HETATM   39  N6  UNL     1      22.858   6.609  30.975  1.00  0.00    -0.245 N 
HETATM   40  C15 UNL     1      22.542   5.686  32.003  1.00  0.00     0.379 C 
HETATM   41  O7  UNL     1      23.225   4.651  32.223  1.00  0.00    -0.237 OA
ATOM     42  H6  UNL     1      22.258   7.425  30.858  1.00  0.00     0.192 HD
BRANCH  40  43
HETATM   43  O8  UNL     1      21.446   5.917  32.808  1.00  0.00    -0.308 OA
HETATM   44  C16 UNL     1      20.226   6.423  32.266  1.00  0.00     0.215 C 
ENDBRANCH  40  43
ENDBRANCH  37  39
ENDBRANCH   9  35
BRANCH   6  45
HETATM   45  C8  UNL     1      19.061   4.334  26.415  1.00  0.00     0.298 C 
HETATM   46  O3  UNL     1      18.206   3.436  26.647  1.00  0.00    -0.262 OA
BRANCH  45  47
HETATM   47  O4  UNL     1      19.056   4.860  25.131  1.00  0.00    -0.243 OA
BRANCH  47  48
HETATM   48  C9  UNL     1      19.899   4.441  24.112  1.00  0.00     0.262 C 
HETATM   49  C10 UNL     1      20.743   5.367  23.310  1.00  0.00     0.126 C 
HETATM   50  O5  UNL     1      19.899   3.180  23.906  1.00  0.00    -0.265 OA
ENDBRANCH  47  48
ENDBRANCH  45  47
ENDBRANCH   6  45
BRANCH   8  51
HETATM   51  N4  UNL     1      22.938   6.577  26.364  1.00  0.00    -0.380 N 
ATOM     52  H42 UNL     1      23.535   7.356  26.642  1.00  0.00     0.158 HD
ATOM     53  H41 UNL     1      23.079   6.262  25.404  1.00  0.00     0.158 HD
ENDBRANCH   8  51
TORSDOF 17
ENDMDL
