MODEL 1
REMARK VINA RESULT: -7.295514474      0.000      0.000
REMARK  7 active torsions:
REMARK  status: ('A' for Active; 'I' for Inactive)
REMARK    1  A    between atoms: O1_2  and  C2_3 
REMARK    2  A    between atoms: C4_5  and  C5_6 
REMARK    3  A    between atoms: C5_6  and  C6_7 
REMARK    4  A    between atoms: C8_11  and  C9_12 
REMARK    5  A    between atoms: C12_24  and  C13_25 
REMARK    6  A    between atoms: C13_25  and  O3_28 
REMARK    7  A    between atoms: C16_30  and  C17_31 
ROOT
HETATM    1  C2  UNL     1      29.095   2.135   6.536  1.00  0.00     0.076 A 
HETATM    2  C3  UNL     1      28.263   2.930   5.805  1.00  0.00     0.050 A 
HETATM    3  C4  UNL     1      28.008   2.762   4.443  1.00  0.00     0.017 A 
HETATM    4  C11 UNL     1      28.648   1.717   3.829  1.00  0.00     0.135 A 
HETATM    5  F5  UNL     1      28.448   1.472   2.507  1.00  0.00    -0.205 F 
HETATM    6  C12 UNL     1      29.520   0.869   4.577  1.00  0.00     0.024 A 
HETATM    7  C16 UNL     1      29.753   1.063   5.883  1.00  0.00    -0.008 A 
ENDROOT
BRANCH   3   8
HETATM    8  C5  UNL     1      27.114   3.701   3.719  1.00  0.00     0.125 C 
HETATM    9  C7  UNL     1      26.027   4.278   4.566  1.00  0.00     0.080 C 
HETATM   10  C8  UNL     1      24.738   3.555   4.610  1.00  0.00     0.199 C 
HETATM   11  O2  UNL     1      24.478   2.684   3.551  1.00  0.00    -0.311 OA
HETATM   12  C10 UNL     1      25.447   2.201   2.694  1.00  0.00     0.214 C 
HETATM   13  N1  UNL     1      25.339   1.069   2.040  1.00  0.00    -0.365 N 
HETATM   14  N2  UNL     1      26.615   3.009   2.540  1.00  0.00    -0.338 N 
ATOM     15  H12 UNL     1      24.505   0.493   2.150  1.00  0.00     0.159 HD
ATOM     16  H11 UNL     1      26.055   0.713   1.407  1.00  0.00     0.159 HD
ATOM     17  H2  UNL     1      27.082   3.098   1.637  1.00  0.00     0.164 HD
BRANCH   8  18
HETATM   18  C6  UNL     1      27.932   4.882   3.172  1.00  0.00     0.385 C 
HETATM   19  F1  UNL     1      27.816   5.990   3.998  1.00  0.00    -0.211 F 
HETATM   20  F2  UNL     1      27.346   5.304   1.963  1.00  0.00    -0.211 F 
ENDBRANCH   8  18
BRANCH  10  21
HETATM   21  C9  UNL     1      23.538   4.518   4.677  1.00  0.00     0.382 C 
HETATM   22  F3  UNL     1      23.817   5.736   4.104  1.00  0.00    -0.212 F 
HETATM   23  F4  UNL     1      22.452   3.889   4.160  1.00  0.00    -0.212 F 
ENDBRANCH  10  21
ENDBRANCH   3   8
BRANCH   1  24
HETATM   24  O1  UNL     1      29.307   2.358   7.894  1.00  0.00    -0.355 OA
HETATM   25  C1  UNL     1      28.303   2.392   8.849  1.00  0.00     0.210 C 
ENDBRANCH   1  24
BRANCH   6  26
HETATM   26  C13 UNL     1      29.948  -0.294   3.760  1.00  0.00     0.081 C 
HETATM   27  C14 UNL     1      30.448   0.171   2.384  1.00  0.00     0.051 C 
HETATM   28  C15 UNL     1      28.735  -1.189   3.464  1.00  0.00     0.051 C 
BRANCH  26  29
HETATM   29  O3  UNL     1      30.908  -1.117   4.224  1.00  0.00    -0.386 OA
ATOM     30  H3  UNL     1      30.979  -1.999   3.878  1.00  0.00     0.211 HD
ENDBRANCH  26  29
ENDBRANCH   6  26
BRANCH   7  31
HETATM   31  C17 UNL     1      30.608   0.299   6.777  1.00  0.00     0.022 A 
HETATM   32  C18 UNL     1      29.746  -0.689   7.634  1.00  0.00     0.010 A 
HETATM   33  C19 UNL     1      30.663   0.259   8.233  1.00  0.00     0.010 A 
ENDBRANCH   7  31
TORSDOF 7
ENDMDL
MODEL 2
REMARK VINA RESULT: -4.856012365      1.651      2.408
REMARK  7 active torsions:
REMARK  status: ('A' for Active; 'I' for Inactive)
REMARK    1  A    between atoms: O1_2  and  C2_3 
REMARK    2  A    between atoms: C4_5  and  C5_6 
REMARK    3  A    between atoms: C5_6  and  C6_7 
REMARK    4  A    between atoms: C8_11  and  C9_12 
REMARK    5  A    between atoms: C12_24  and  C13_25 
REMARK    6  A    between atoms: C13_25  and  O3_28 
REMARK    7  A    between atoms: C16_30  and  C17_31 
ROOT
HETATM    1  C2  UNL     1      28.658   1.999   6.246  1.00  0.00     0.076 A 
HETATM    2  C3  UNL     1      27.620   2.454   5.489  1.00  0.00     0.050 A 
HETATM    3  C4  UNL     1      27.359   2.042   4.180  1.00  0.00     0.017 A 
HETATM    4  C11 UNL     1      28.218   1.113   3.653  1.00  0.00     0.135 A 
HETATM    5  F5  UNL     1      28.031   0.647   2.390  1.00  0.00    -0.205 F 
HETATM    6  C12 UNL     1      29.309   0.619   4.431  1.00  0.00     0.024 A 
HETATM    7  C16 UNL     1      29.539   1.043   5.681  1.00  0.00    -0.008 A 
ENDROOT
BRANCH   3   8
HETATM    8  C5  UNL     1      26.225   2.622   3.418  1.00  0.00     0.125 C 
HETATM    9  C7  UNL     1      26.501   3.978   2.858  1.00  0.00     0.080 C 
HETATM   10  C8  UNL     1      26.148   5.148   3.692  1.00  0.00     0.199 C 
HETATM   11  O2  UNL     1      25.203   4.931   4.696  1.00  0.00    -0.311 OA
HETATM   12  C10 UNL     1      24.859   3.683   5.176  1.00  0.00     0.214 C 
HETATM   13  N1  UNL     1      24.378   3.474   6.378  1.00  0.00    -0.365 N 
HETATM   14  N2  UNL     1      25.053   2.585   4.281  1.00  0.00    -0.338 N 
ATOM     15  H12 UNL     1      24.240   4.258   7.016  1.00  0.00     0.159 HD
ATOM     16  H11 UNL     1      24.125   2.552   6.732  1.00  0.00     0.159 HD
ATOM     17  H2  UNL     1      24.396   1.807   4.249  1.00  0.00     0.164 HD
BRANCH   8  18
HETATM   18  C6  UNL     1      25.874   1.709   2.232  1.00  0.00     0.385 C 
HETATM   19  F1  UNL     1      26.057   2.370   1.026  1.00  0.00    -0.211 F 
HETATM   20  F2  UNL     1      24.490   1.453   2.265  1.00  0.00    -0.211 F 
ENDBRANCH   8  18
BRANCH  10  21
HETATM   21  C9  UNL     1      25.615   6.319   2.847  1.00  0.00     0.382 C 
HETATM   22  F3  UNL     1      24.293   6.591   3.112  1.00  0.00    -0.212 F 
HETATM   23  F4  UNL     1      26.449   7.379   3.006  1.00  0.00    -0.212 F 
ENDBRANCH  10  21
ENDBRANCH   3   8
BRANCH   1  24
HETATM   24  O1  UNL     1      28.864   2.452   7.546  1.00  0.00    -0.355 OA
HETATM   25  C1  UNL     1      28.009   2.201   8.609  1.00  0.00     0.210 C 
ENDBRANCH   1  24
BRANCH   6  26
HETATM   26  C13 UNL     1      29.984  -0.503   3.732  1.00  0.00     0.081 C 
HETATM   27  C14 UNL     1      30.458  -0.062   2.340  1.00  0.00     0.051 C 
HETATM   28  C15 UNL     1      28.974  -1.631   3.473  1.00  0.00     0.051 C 
BRANCH  26  29
HETATM   29  O3  UNL     1      31.055  -1.092   4.299  1.00  0.00    -0.386 OA
ATOM     30  H3  UNL     1      31.699  -1.525   3.750  1.00  0.00     0.211 HD
ENDBRANCH  26  29
ENDBRANCH   6  26
BRANCH   7  31
HETATM   31  C17 UNL     1      30.598   0.645   6.595  1.00  0.00     0.022 A 
HETATM   32  C18 UNL     1      30.113  -0.535   7.503  1.00  0.00     0.010 A 
HETATM   33  C19 UNL     1      30.661   0.688   8.051  1.00  0.00     0.010 A 
ENDBRANCH   7  31
TORSDOF 7
ENDMDL
MODEL 3
REMARK VINA RESULT: -4.590025197      2.790      6.604
REMARK  7 active torsions:
REMARK  status: ('A' for Active; 'I' for Inactive)
REMARK    1  A    between atoms: O1_2  and  C2_3 
REMARK    2  A    between atoms: C4_5  and  C5_6 
REMARK    3  A    between atoms: C5_6  and  C6_7 
REMARK    4  A    between atoms: C8_11  and  C9_12 
REMARK    5  A    between atoms: C12_24  and  C13_25 
REMARK    6  A    between atoms: C13_25  and  O3_28 
REMARK    7  A    between atoms: C16_30  and  C17_31 
ROOT
HETATM    1  C2  UNL     1      25.055   2.461   3.426  1.00  0.00     0.076 A 
HETATM    2  C3  UNL     1      26.219   1.836   3.765  1.00  0.00     0.050 A 
HETATM    3  C4  UNL     1      27.421   2.495   4.025  1.00  0.00     0.017 A 
HETATM    4  C11 UNL     1      27.397   3.863   3.929  1.00  0.00     0.135 A 
HETATM    5  F5  UNL     1      28.521   4.587   4.178  1.00  0.00    -0.205 F 
HETATM    6  C12 UNL     1      26.188   4.538   3.581  1.00  0.00     0.024 A 
HETATM    7  C16 UNL     1      25.052   3.875   3.327  1.00  0.00    -0.008 A 
ENDROOT
BRANCH   3   8
HETATM    8  C5  UNL     1      28.649   1.728   4.350  1.00  0.00     0.125 C 
HETATM    9  C7  UNL     1      29.471   1.362   3.158  1.00  0.00     0.080 C 
HETATM   10  C8  UNL     1      29.192   0.065   2.506  1.00  0.00     0.199 C 
HETATM   11  O2  UNL     1      28.534  -0.892   3.282  1.00  0.00    -0.311 OA
HETATM   12  C10 UNL     1      27.840  -0.600   4.439  1.00  0.00     0.214 C 
HETATM   13  N1  UNL     1      26.857  -1.336   4.900  1.00  0.00    -0.365 N 
HETATM   14  N2  UNL     1      28.247   0.575   5.143  1.00  0.00    -0.338 N 
ATOM     15  H12 UNL     1      26.567  -2.175   4.398  1.00  0.00     0.159 HD
ATOM     16  H11 UNL     1      26.344  -1.120   5.756  1.00  0.00     0.159 HD
ATOM     17  H2  UNL     1      28.255   0.605   6.162  1.00  0.00     0.164 HD
BRANCH   8  18
HETATM   18  C6  UNL     1      29.550   2.556   5.280  1.00  0.00     0.385 C 
HETATM   19  F1  UNL     1      30.798   2.761   4.708  1.00  0.00    -0.211 F 
HETATM   20  F2  UNL     1      29.831   1.787   6.425  1.00  0.00    -0.211 F 
ENDBRANCH   8  18
BRANCH  10  21
HETATM   21  C9  UNL     1      30.476  -0.611   1.991  1.00  0.00     0.382 C 
HETATM   22  F3  UNL     1      31.405   0.304   1.554  1.00  0.00    -0.212 F 
HETATM   23  F4  UNL     1      30.930  -1.459   2.948  1.00  0.00    -0.212 F 
ENDBRANCH  10  21
ENDBRANCH   3   8
BRANCH   1  24
HETATM   24  O1  UNL     1      23.889   1.743   3.178  1.00  0.00    -0.355 OA
HETATM   25  C1  UNL     1      23.708   0.885   2.104  1.00  0.00     0.210 C 
ENDBRANCH   1  24
BRANCH   6  26
HETATM   26  C13 UNL     1      26.350   6.007   3.722  1.00  0.00     0.081 C 
HETATM   27  C14 UNL     1      25.768   6.732   2.498  1.00  0.00     0.051 C 
HETATM   28  C15 UNL     1      27.844   6.363   3.725  1.00  0.00     0.051 C 
BRANCH  26  29
HETATM   29  O3  UNL     1      25.820   6.636   4.789  1.00  0.00    -0.386 OA
ATOM     30  H3  UNL     1      25.476   7.516   4.692  1.00  0.00     0.211 HD
ENDBRANCH  26  29
ENDBRANCH   6  26
BRANCH   7  31
HETATM   31  C17 UNL     1      23.750   4.410   2.959  1.00  0.00     0.022 A 
HETATM   32  C18 UNL     1      23.110   5.159   4.177  1.00  0.00     0.010 A 
HETATM   33  C19 UNL     1      22.419   4.102   3.468  1.00  0.00     0.010 A 
ENDBRANCH   7  31
TORSDOF 7
ENDMDL
MODEL 4
REMARK VINA RESULT: -4.183509222      2.639      6.410
REMARK  7 active torsions:
REMARK  status: ('A' for Active; 'I' for Inactive)
REMARK    1  A    between atoms: O1_2  and  C2_3 
REMARK    2  A    between atoms: C4_5  and  C5_6 
REMARK    3  A    between atoms: C5_6  and  C6_7 
REMARK    4  A    between atoms: C8_11  and  C9_12 
REMARK    5  A    between atoms: C12_24  and  C13_25 
REMARK    6  A    between atoms: C13_25  and  O3_28 
REMARK    7  A    between atoms: C16_30  and  C17_31 
ROOT
HETATM    1  C2  UNL     1      27.205   4.721   3.280  1.00  0.00     0.076 A 
HETATM    2  C3  UNL     1      28.033   3.657   3.486  1.00  0.00     0.050 A 
HETATM    3  C4  UNL     1      27.595   2.361   3.767  1.00  0.00     0.017 A 
HETATM    4  C11 UNL     1      26.238   2.178   3.827  1.00  0.00     0.135 A 
HETATM    5  F5  UNL     1      25.724   0.946   4.082  1.00  0.00    -0.205 F 
HETATM    6  C12 UNL     1      25.353   3.277   3.608  1.00  0.00     0.024 A 
HETATM    7  C16 UNL     1      25.805   4.513   3.352  1.00  0.00    -0.008 A 
ENDROOT
BRANCH   3   8
HETATM    8  C5  UNL     1      28.571   1.271   4.015  1.00  0.00     0.125 C 
HETATM    9  C7  UNL     1      28.357   0.546   5.303  1.00  0.00     0.080 C 
HETATM   10  C8  UNL     1      29.067   1.050   6.498  1.00  0.00     0.199 C 
HETATM   11  O2  UNL     1      30.194   1.840   6.264  1.00  0.00    -0.311 OA
HETATM   12  C10 UNL     1      30.469   2.453   5.058  1.00  0.00     0.214 C 
HETATM   13  N1  UNL     1      31.201   3.535   4.943  1.00  0.00    -0.365 N 
HETATM   14  N2  UNL     1      29.905   1.843   3.895  1.00  0.00    -0.338 N 
ATOM     15  H12 UNL     1      31.603   3.970   5.773  1.00  0.00     0.159 HD
ATOM     16  H11 UNL     1      31.403   3.988   4.051  1.00  0.00     0.159 HD
ATOM     17  H2  UNL     1      30.418   1.809   3.014  1.00  0.00     0.164 HD
BRANCH   8  18
HETATM   18  C6  UNL     1      28.483   0.227   2.891  1.00  0.00     0.385 C 
HETATM   19  F1  UNL     1      29.729   0.005   2.322  1.00  0.00    -0.211 F 
HETATM   20  F2  UNL     1      27.728   0.773   1.836  1.00  0.00    -0.211 F 
ENDBRANCH   8  18
BRANCH  10  21
HETATM   21  C9  UNL     1      29.531  -0.094   7.419  1.00  0.00     0.382 C 
HETATM   22  F3  UNL     1      30.885  -0.314   7.333  1.00  0.00    -0.212 F 
HETATM   23  F4  UNL     1      29.081   0.156   8.675  1.00  0.00    -0.212 F 
ENDBRANCH  10  21
ENDBRANCH   3   8
BRANCH   1  24
HETATM   24  O1  UNL     1      27.707   5.990   3.005  1.00  0.00    -0.355 OA
HETATM   25  C1  UNL     1      27.868   6.993   3.949  1.00  0.00     0.210 C 
ENDBRANCH   1  24
BRANCH   6  26
HETATM   26  C13 UNL     1      23.946   2.811   3.535  1.00  0.00     0.081 C 
HETATM   27  C14 UNL     1      23.379   2.589   4.945  1.00  0.00     0.051 C 
HETATM   28  C15 UNL     1      23.896   1.431   2.860  1.00  0.00     0.051 C 
BRANCH  26  29
HETATM   29  O3  UNL     1      23.027   3.565   2.900  1.00  0.00    -0.386 OA
ATOM     30  H3  UNL     1      22.361   4.017   3.405  1.00  0.00     0.211 HD
ENDBRANCH  26  29
ENDBRANCH   6  26
BRANCH   7  31
HETATM   31  C17 UNL     1      25.043   5.728   3.112  1.00  0.00     0.022 A 
HETATM   32  C18 UNL     1      24.802   6.488   4.461  1.00  0.00     0.010 A 
HETATM   33  C19 UNL     1      23.717   6.122   3.573  1.00  0.00     0.010 A 
ENDBRANCH   7  31
TORSDOF 7
ENDMDL
MODEL 5
REMARK VINA RESULT: -4.172828373      2.754      6.438
REMARK  7 active torsions:
REMARK  status: ('A' for Active; 'I' for Inactive)
REMARK    1  A    between atoms: O1_2  and  C2_3 
REMARK    2  A    between atoms: C4_5  and  C5_6 
REMARK    3  A    between atoms: C5_6  and  C6_7 
REMARK    4  A    between atoms: C8_11  and  C9_12 
REMARK    5  A    between atoms: C12_24  and  C13_25 
REMARK    6  A    between atoms: C13_25  and  O3_28 
REMARK    7  A    between atoms: C16_30  and  C17_31 
ROOT
HETATM    1  C2  UNL     1      25.330   2.776   4.229  1.00  0.00     0.076 A 
HETATM    2  C3  UNL     1      26.335   1.971   4.679  1.00  0.00     0.050 A 
HETATM    3  C4  UNL     1      27.695   2.266   4.560  1.00  0.00     0.017 A 
HETATM    4  C11 UNL     1      28.008   3.453   3.950  1.00  0.00     0.135 A 
HETATM    5  F5  UNL     1      29.307   3.826   3.803  1.00  0.00    -0.205 F 
HETATM    6  C12 UNL     1      26.971   4.314   3.477  1.00  0.00     0.024 A 
HETATM    7  C16 UNL     1      25.674   3.997   3.597  1.00  0.00    -0.008 A 
ENDROOT
BRANCH   3   8
HETATM    8  C5  UNL     1      28.721   1.310   5.046  1.00  0.00     0.125 C 
HETATM    9  C7  UNL     1      29.850   1.095   4.093  1.00  0.00     0.080 C 
HETATM   10  C8  UNL     1      29.719  -0.005   3.114  1.00  0.00     0.199 C 
HETATM   11  O2  UNL     1      28.806  -1.013   3.431  1.00  0.00    -0.311 OA
HETATM   12  C10 UNL     1      27.804  -0.878   4.371  1.00  0.00     0.214 C 
HETATM   13  N1  UNL     1      26.690  -1.569   4.350  1.00  0.00    -0.365 N 
HETATM   14  N2  UNL     1      28.034   0.079   5.408  1.00  0.00    -0.338 N 
ATOM     15  H12 UNL     1      26.526  -2.252   3.610  1.00  0.00     0.159 HD
ATOM     16  H11 UNL     1      25.950  -1.469   5.045  1.00  0.00     0.159 HD
ATOM     17  H2  UNL     1      27.729  -0.096   6.366  1.00  0.00     0.164 HD
BRANCH   8  18
HETATM   18  C6  UNL     1      29.332   1.825   6.359  1.00  0.00     0.385 C 
HETATM   19  F1  UNL     1      30.033   3.005   6.150  1.00  0.00    -0.211 F 
HETATM   20  F2  UNL     1      30.325   0.917   6.772  1.00  0.00    -0.211 F 
ENDBRANCH   8  18
BRANCH  10  21
HETATM   21  C9  UNL     1      31.063  -0.711   2.856  1.00  0.00     0.382 C 
HETATM   22  F3  UNL     1      30.983  -2.069   3.054  1.00  0.00    -0.212 F 
HETATM   23  F4  UNL     1      31.510  -0.349   1.626  1.00  0.00    -0.212 F 
ENDBRANCH  10  21
ENDBRANCH   3   8
BRANCH   1  24
HETATM   24  O1  UNL     1      23.993   2.422   4.379  1.00  0.00    -0.355 OA
HETATM   25  C1  UNL     1      23.284   1.635   3.485  1.00  0.00     0.210 C 
ENDBRANCH   1  24
BRANCH   6  26
HETATM   26  C13 UNL     1      27.532   5.613   3.029  1.00  0.00     0.081 C 
HETATM   27  C14 UNL     1      27.462   6.648   4.162  1.00  0.00     0.051 C 
HETATM   28  C15 UNL     1      26.659   6.191   1.904  1.00  0.00     0.051 C 
BRANCH  26  29
HETATM   29  O3  UNL     1      28.800   5.670   2.577  1.00  0.00    -0.386 OA
ATOM     30  H3  UNL     1      29.190   6.513   2.378  1.00  0.00     0.211 HD
ENDBRANCH  26  29
ENDBRANCH   6  26
BRANCH   7  31
HETATM   31  C17 UNL     1      24.510   4.755   3.167  1.00  0.00     0.022 A 
HETATM   32  C18 UNL     1      24.223   5.920   4.174  1.00  0.00     0.010 A 
HETATM   33  C19 UNL     1      23.214   4.948   3.807  1.00  0.00     0.010 A 
ENDBRANCH   7  31
TORSDOF 7
ENDMDL
