MODEL 1
REMARK VINA RESULT: -9.920329962      0.000      0.000
REMARK  6 active torsions:
REMARK  status: ('A' for Active; 'I' for Inactive)
REMARK    1  A    between atoms: C1_2  and  C2_4 
REMARK    2  A    between atoms: C3_6  and  C4_7 
REMARK    3  A    between atoms: C7_12  and  N3_13 
REMARK    4  A    between atoms: C8_15  and  O2_16 
REMARK    5  A    between atoms: C8_15  and  C9_18 
REMARK    6  A    between atoms: C9_18  and  C10_19 
ROOT
HETATM    1  N3  UNL     1      29.046   2.499   3.822  1.00  0.00    -0.325 N 
ATOM      2  H3  UNL     1      29.856   2.933   3.380  1.00  0.00     0.169 HD
HETATM    3  C8  UNL     1      27.898   2.793   3.174  1.00  0.00     0.130 C 
ENDROOT
BRANCH   3   4
HETATM    4  O2  UNL     1      28.114   3.614   2.113  1.00  0.00    -0.348 OA
ATOM      5  H2  UNL     1      28.325   4.498   2.389  1.00  0.00     0.219 HD
ENDBRANCH   3   4
BRANCH   3   6
HETATM    6  C9  UNL     1      26.484   2.448   3.322  1.00  0.00     0.058 A 
HETATM    7  C16 UNL     1      25.962   1.171   3.917  1.00  0.00     0.025 A 
HETATM    8  C17 UNL     1      25.951   1.387   2.421  1.00  0.00     0.025 A 
BRANCH   6   9
HETATM    9  C10 UNL     1      25.620   3.669   3.553  1.00  0.00     0.042 A 
HETATM   10  C11 UNL     1      26.242   4.868   3.784  1.00  0.00     0.168 A 
HETATM   11  F1  UNL     1      27.594   5.036   3.848  1.00  0.00    -0.202 F 
HETATM   12  C12 UNL     1      25.549   6.073   3.980  1.00  0.00     0.197 A 
HETATM   13  F2  UNL     1      26.219   7.227   4.184  1.00  0.00    -0.199 F 
HETATM   14  C13 UNL     1      24.168   6.003   3.931  1.00  0.00     0.199 A 
HETATM   15  F3  UNL     1      23.493   7.156   4.119  1.00  0.00    -0.199 F 
HETATM   16  C14 UNL     1      23.505   4.835   3.704  1.00  0.00     0.197 A 
HETATM   17  F4  UNL     1      22.161   4.780   3.678  1.00  0.00    -0.199 F 
HETATM   18  C15 UNL     1      24.255   3.671   3.515  1.00  0.00     0.168 A 
HETATM   19  F5  UNL     1      23.581   2.540   3.271  1.00  0.00    -0.202 F 
ENDBRANCH   6   9
ENDBRANCH   3   6
BRANCH   1  20
HETATM   20  C7  UNL     1      29.420   1.722   4.987  1.00  0.00     0.130 A 
HETATM   21  C2  UNL     1      29.773   0.387   4.866  1.00  0.00     0.115 A 
HETATM   22  S1  UNL     1      30.067  -0.035   6.533  1.00  0.00    -0.068 SA
HETATM   23  C3  UNL     1      29.729   1.478   7.241  1.00  0.00     0.057 A 
HETATM   24  N2  UNL     1      29.424   2.190   6.194  1.00  0.00    -0.339 N 
ATOM     25  H2  UNL     1      29.174   3.168   6.333  1.00  0.00     0.168 HD
BRANCH  21  26
HETATM   26  C1  UNL     1      29.934  -0.515   3.726  1.00  0.00     0.275 C 
HETATM   27  N1  UNL     1      29.181  -0.246   2.532  1.00  0.00    -0.057 NA
HETATM   28  O1  UNL     1      30.693  -1.517   3.709  1.00  0.00    -0.270 OA
ENDBRANCH  21  26
BRANCH  23  29
HETATM   29  C4  UNL     1      29.767   1.858   8.700  1.00  0.00     0.043 A 
HETATM   30  C5  UNL     1      28.457   1.844   9.418  1.00  0.00     0.012 A 
HETATM   31  C6  UNL     1      29.505   0.789   9.681  1.00  0.00     0.012 A 
ENDBRANCH  23  29
ENDBRANCH   1  20
TORSDOF 6
ENDMDL
MODEL 2
REMARK VINA RESULT: -9.722669855      0.114      2.012
REMARK  6 active torsions:
REMARK  status: ('A' for Active; 'I' for Inactive)
REMARK    1  A    between atoms: C1_2  and  C2_4 
REMARK    2  A    between atoms: C3_6  and  C4_7 
REMARK    3  A    between atoms: C7_12  and  N3_13 
REMARK    4  A    between atoms: C8_15  and  O2_16 
REMARK    5  A    between atoms: C8_15  and  C9_18 
REMARK    6  A    between atoms: C9_18  and  C10_19 
ROOT
HETATM    1  N3  UNL     1      29.105   2.479   3.843  1.00  0.00    -0.325 N 
ATOM      2  H3  UNL     1      29.930   2.875   3.391  1.00  0.00     0.169 HD
HETATM    3  C8  UNL     1      27.967   2.811   3.194  1.00  0.00     0.130 C 
ENDROOT
BRANCH   3   4
HETATM    4  O2  UNL     1      28.213   3.609   2.122  1.00  0.00    -0.348 OA
ATOM      5  H2  UNL     1      27.472   4.169   1.923  1.00  0.00     0.219 HD
ENDBRANCH   3   4
BRANCH   3   6
HETATM    6  C9  UNL     1      26.541   2.525   3.352  1.00  0.00     0.058 A 
HETATM    7  C16 UNL     1      25.971   1.291   3.990  1.00  0.00     0.025 A 
HETATM    8  C17 UNL     1      25.969   1.455   2.487  1.00  0.00     0.025 A 
BRANCH   6   9
HETATM    9  C10 UNL     1      25.724   3.786   3.538  1.00  0.00     0.042 A 
HETATM   10  C11 UNL     1      24.359   3.685   3.499  1.00  0.00     0.168 A 
HETATM   11  F1  UNL     1      23.676   2.525   3.276  1.00  0.00    -0.202 F 
HETATM   12  C12 UNL     1      23.497   4.777   3.690  1.00  0.00     0.197 A 
HETATM   13  F2  UNL     1      22.158   4.610   3.659  1.00  0.00    -0.199 F 
HETATM   14  C13 UNL     1      24.098   6.000   3.925  1.00  0.00     0.199 A 
HETATM   15  F3  UNL     1      23.279   7.057   4.109  1.00  0.00    -0.199 F 
HETATM   16  C14 UNL     1      25.451   6.150   3.973  1.00  0.00     0.197 A 
HETATM   17  F4  UNL     1      26.021   7.350   4.184  1.00  0.00    -0.199 F 
HETATM   18  C15 UNL     1      26.253   5.022   3.777  1.00  0.00     0.168 A 
HETATM   19  F5  UNL     1      27.579   5.192   3.852  1.00  0.00    -0.202 F 
ENDBRANCH   6   9
ENDBRANCH   3   6
BRANCH   1  20
HETATM   20  C7  UNL     1      29.452   1.704   5.016  1.00  0.00     0.130 A 
HETATM   21  C2  UNL     1      29.784   0.362   4.907  1.00  0.00     0.115 A 
HETATM   22  S1  UNL     1      30.051  -0.055   6.580  1.00  0.00    -0.068 SA
HETATM   23  C3  UNL     1      29.730   1.468   7.275  1.00  0.00     0.057 A 
HETATM   24  N2  UNL     1      29.450   2.178   6.221  1.00  0.00    -0.339 N 
ATOM     25  H2  UNL     1      29.215   3.162   6.351  1.00  0.00     0.168 HD
BRANCH  21  26
HETATM   26  C1  UNL     1      29.943  -0.550   3.774  1.00  0.00     0.275 C 
HETATM   27  N1  UNL     1      29.113  -0.352   2.619  1.00  0.00    -0.057 NA
HETATM   28  O1  UNL     1      30.764  -1.501   3.733  1.00  0.00    -0.270 OA
ENDBRANCH  21  26
BRANCH  23  29
HETATM   29  C4  UNL     1      29.758   1.856   8.732  1.00  0.00     0.043 A 
HETATM   30  C5  UNL     1      28.448   1.806   9.451  1.00  0.00     0.012 A 
HETATM   31  C6  UNL     1      29.528   0.784   9.718  1.00  0.00     0.012 A 
ENDBRANCH  23  29
ENDBRANCH   1  20
TORSDOF 6
ENDMDL
MODEL 3
REMARK VINA RESULT: -9.508954047      1.224      2.112
REMARK  6 active torsions:
REMARK  status: ('A' for Active; 'I' for Inactive)
REMARK    1  A    between atoms: C1_2  and  C2_4 
REMARK    2  A    between atoms: C3_6  and  C4_7 
REMARK    3  A    between atoms: C7_12  and  N3_13 
REMARK    4  A    between atoms: C8_15  and  O2_16 
REMARK    5  A    between atoms: C8_15  and  C9_18 
REMARK    6  A    between atoms: C9_18  and  C10_19 
ROOT
HETATM    1  N3  UNL     1      29.518   3.173   4.862  1.00  0.00    -0.325 N 
ATOM      2  H3  UNL     1      30.318   3.806   4.884  1.00  0.00     0.169 HD
HETATM    3  C8  UNL     1      28.581   3.575   3.976  1.00  0.00     0.130 C 
ENDROOT
BRANCH   3   4
HETATM    4  O2  UNL     1      28.934   4.735   3.360  1.00  0.00    -0.348 OA
ATOM      5  H2  UNL     1      28.174   5.225   3.070  1.00  0.00     0.219 HD
ENDBRANCH   3   4
BRANCH   3   6
HETATM    6  C9  UNL     1      27.287   3.077   3.509  1.00  0.00     0.058 A 
HETATM    7  C16 UNL     1      26.787   1.672   3.682  1.00  0.00     0.025 A 
HETATM    8  C17 UNL     1      27.303   2.149   2.344  1.00  0.00     0.025 A 
BRANCH   6   9
HETATM    9  C10 UNL     1      26.220   4.151   3.534  1.00  0.00     0.042 A 
HETATM   10  C11 UNL     1      25.078   3.913   4.252  1.00  0.00     0.168 A 
HETATM   11  F1  UNL     1      24.818   2.757   4.928  1.00  0.00    -0.202 F 
HETATM   12  C12 UNL     1      24.033   4.844   4.374  1.00  0.00     0.197 A 
HETATM   13  F2  UNL     1      22.940   4.558   5.112  1.00  0.00    -0.199 F 
HETATM   14  C13 UNL     1      24.207   6.050   3.721  1.00  0.00     0.199 A 
HETATM   15  F3  UNL     1      23.209   6.952   3.832  1.00  0.00    -0.199 F 
HETATM   16  C14 UNL     1      25.325   6.334   2.997  1.00  0.00     0.197 A 
HETATM   17  F4  UNL     1      25.470   7.505   2.351  1.00  0.00    -0.199 F 
HETATM   18  C15 UNL     1      26.328   5.364   2.916  1.00  0.00     0.168 A 
HETATM   19  F5  UNL     1      27.427   5.675   2.216  1.00  0.00    -0.202 F 
ENDBRANCH   6   9
ENDBRANCH   3   6
BRANCH   1  20
HETATM   20  C7  UNL     1      29.676   2.071   5.789  1.00  0.00     0.130 A 
HETATM   21  C2  UNL     1      29.835   0.773   5.329  1.00  0.00     0.115 A 
HETATM   22  S1  UNL     1      29.925  -0.107   6.832  1.00  0.00    -0.068 SA
HETATM   23  C3  UNL     1      29.759   1.206   7.906  1.00  0.00     0.057 A 
HETATM   24  N2  UNL     1      29.650   2.204   7.077  1.00  0.00    -0.339 N 
ATOM     25  H2  UNL     1      29.538   3.141   7.464  1.00  0.00     0.168 HD
BRANCH  21  26
HETATM   26  C1  UNL     1      29.953   0.183   3.996  1.00  0.00     0.275 C 
HETATM   27  N1  UNL     1      29.458  -1.151   3.795  1.00  0.00    -0.057 NA
HETATM   28  O1  UNL     1      30.456   0.762   3.000  1.00  0.00    -0.270 OA
ENDBRANCH  21  26
BRANCH  23  29
HETATM   29  C4  UNL     1      29.734   1.183   9.413  1.00  0.00     0.043 A 
HETATM   30  C5  UNL     1      28.396   1.373  10.052  1.00  0.00     0.012 A 
HETATM   31  C6  UNL     1      29.083   0.028  10.059  1.00  0.00     0.012 A 
ENDBRANCH  23  29
ENDBRANCH   1  20
TORSDOF 6
ENDMDL
MODEL 4
REMARK VINA RESULT: -9.484506891      1.191      1.219
REMARK  6 active torsions:
REMARK  status: ('A' for Active; 'I' for Inactive)
REMARK    1  A    between atoms: C1_2  and  C2_4 
REMARK    2  A    between atoms: C3_6  and  C4_7 
REMARK    3  A    between atoms: C7_12  and  N3_13 
REMARK    4  A    between atoms: C8_15  and  O2_16 
REMARK    5  A    between atoms: C8_15  and  C9_18 
REMARK    6  A    between atoms: C9_18  and  C10_19 
ROOT
HETATM    1  N3  UNL     1      29.473   3.165   4.862  1.00  0.00    -0.325 N 
ATOM      2  H3  UNL     1      30.261   3.811   4.880  1.00  0.00     0.169 HD
HETATM    3  C8  UNL     1      28.524   3.550   3.980  1.00  0.00     0.130 C 
ENDROOT
BRANCH   3   4
HETATM    4  O2  UNL     1      28.854   4.716   3.362  1.00  0.00    -0.348 OA
ATOM      5  H2  UNL     1      28.726   4.664   2.423  1.00  0.00     0.219 HD
ENDBRANCH   3   4
BRANCH   3   6
HETATM    6  C9  UNL     1      27.236   3.030   3.520  1.00  0.00     0.058 A 
HETATM    7  C16 UNL     1      26.792   1.599   3.629  1.00  0.00     0.025 A 
HETATM    8  C17 UNL     1      27.255   2.166   2.306  1.00  0.00     0.025 A 
BRANCH   6   9
HETATM    9  C10 UNL     1      26.133   4.060   3.629  1.00  0.00     0.042 A 
HETATM   10  C11 UNL     1      26.315   5.271   3.014  1.00  0.00     0.168 A 
HETATM   11  F1  UNL     1      27.438   5.628   2.328  1.00  0.00    -0.202 F 
HETATM   12  C12 UNL     1      25.351   6.293   3.019  1.00  0.00     0.197 A 
HETATM   13  F2  UNL     1      25.581   7.458   2.378  1.00  0.00    -0.199 F 
HETATM   14  C13 UNL     1      24.173   6.023   3.692  1.00  0.00     0.199 A 
HETATM   15  F3  UNL     1      23.241   6.998   3.704  1.00  0.00    -0.199 F 
HETATM   16  C14 UNL     1      23.947   4.834   4.318  1.00  0.00     0.197 A 
HETATM   17  F4  UNL     1      22.803   4.594   4.984  1.00  0.00    -0.199 F 
HETATM   18  C15 UNL     1      24.946   3.858   4.273  1.00  0.00     0.168 A 
HETATM   19  F5  UNL     1      24.691   2.690   4.877  1.00  0.00    -0.202 F 
ENDBRANCH   6   9
ENDBRANCH   3   6
BRANCH   1  20
HETATM   20  C7  UNL     1      29.654   2.066   5.788  1.00  0.00     0.130 A 
HETATM   21  C2  UNL     1      29.847   0.773   5.327  1.00  0.00     0.115 A 
HETATM   22  S1  UNL     1      29.953  -0.108   6.829  1.00  0.00    -0.068 SA
HETATM   23  C3  UNL     1      29.751   1.199   7.904  1.00  0.00     0.057 A 
HETATM   24  N2  UNL     1      29.620   2.196   7.076  1.00  0.00    -0.339 N 
ATOM     25  H2  UNL     1      29.483   3.129   7.463  1.00  0.00     0.168 HD
BRANCH  21  26
HETATM   26  C1  UNL     1      29.985   0.187   3.993  1.00  0.00     0.275 C 
HETATM   27  N1  UNL     1      29.573  -1.176   3.801  1.00  0.00    -0.057 NA
HETATM   28  O1  UNL     1      30.437   0.795   2.990  1.00  0.00    -0.270 OA
ENDBRANCH  21  26
BRANCH  23  29
HETATM   29  C4  UNL     1      29.720   1.174   9.411  1.00  0.00     0.043 A 
HETATM   30  C5  UNL     1      28.406   1.492  10.048  1.00  0.00     0.012 A 
HETATM   31  C6  UNL     1      28.958   0.086  10.051  1.00  0.00     0.012 A 
ENDBRANCH  23  29
ENDBRANCH   1  20
TORSDOF 6
ENDMDL
MODEL 5
REMARK VINA RESULT: -9.112544056      1.160      1.774
REMARK  6 active torsions:
REMARK  status: ('A' for Active; 'I' for Inactive)
REMARK    1  A    between atoms: C1_2  and  C2_4 
REMARK    2  A    between atoms: C3_6  and  C4_7 
REMARK    3  A    between atoms: C7_12  and  N3_13 
REMARK    4  A    between atoms: C8_15  and  O2_16 
REMARK    5  A    between atoms: C8_15  and  C9_18 
REMARK    6  A    between atoms: C9_18  and  C10_19 
ROOT
HETATM    1  N3  UNL     1      28.060   1.285   3.361  1.00  0.00    -0.325 N 
ATOM      2  H3  UNL     1      27.888   0.462   2.784  1.00  0.00     0.169 HD
HETATM    3  C8  UNL     1      27.418   2.376   2.887  1.00  0.00     0.130 C 
ENDROOT
BRANCH   3   4
HETATM    4  O2  UNL     1      26.729   2.099   1.748  1.00  0.00    -0.348 OA
ATOM      5  H2  UNL     1      26.485   2.891   1.283  1.00  0.00     0.219 HD
ENDBRANCH   3   4
BRANCH   3   6
HETATM    6  C9  UNL     1      27.274   3.775   3.291  1.00  0.00     0.058 A 
HETATM    7  C16 UNL     1      28.153   4.903   2.832  1.00  0.00     0.025 A 
HETATM    8  C17 UNL     1      28.307   4.318   4.217  1.00  0.00     0.025 A 
BRANCH   6   9
HETATM    9  C10 UNL     1      25.831   4.146   3.555  1.00  0.00     0.042 A 
HETATM   10  C11 UNL     1      25.440   5.437   3.319  1.00  0.00     0.168 A 
HETATM   11  F1  UNL     1      26.271   6.428   2.885  1.00  0.00    -0.202 F 
HETATM   12  C12 UNL     1      24.124   5.892   3.498  1.00  0.00     0.197 A 
HETATM   13  F2  UNL     1      23.796   7.173   3.229  1.00  0.00    -0.199 F 
HETATM   14  C13 UNL     1      23.205   4.955   3.937  1.00  0.00     0.199 A 
HETATM   15  F3  UNL     1      21.937   5.382   4.112  1.00  0.00    -0.199 F 
HETATM   16  C14 UNL     1      23.545   3.660   4.184  1.00  0.00     0.197 A 
HETATM   17  F4  UNL     1      22.644   2.766   4.629  1.00  0.00    -0.199 F 
HETATM   18  C15 UNL     1      24.874   3.272   3.985  1.00  0.00     0.168 A 
HETATM   19  F5  UNL     1      25.178   1.988   4.214  1.00  0.00    -0.202 F 
ENDBRANCH   6   9
ENDBRANCH   3   6
BRANCH   1  20
HETATM   20  C7  UNL     1      28.931   0.989   4.480  1.00  0.00     0.130 A 
HETATM   21  C2  UNL     1      29.819  -0.074   4.427  1.00  0.00     0.115 A 
HETATM   22  S1  UNL     1      30.543   0.013   6.011  1.00  0.00    -0.068 SA
HETATM   23  C3  UNL     1      29.686   1.359   6.608  1.00  0.00     0.057 A 
HETATM   24  N2  UNL     1      28.925   1.651   5.593  1.00  0.00    -0.339 N 
ATOM     25  H2  UNL     1      28.290   2.444   5.679  1.00  0.00     0.168 HD
BRANCH  21  26
HETATM   26  C1  UNL     1      30.175  -1.040   3.387  1.00  0.00     0.275 C 
HETATM   27  N1  UNL     1      29.324  -1.145   2.234  1.00  0.00    -0.057 NA
HETATM   28  O1  UNL     1      31.183  -1.791   3.424  1.00  0.00    -0.270 OA
ENDBRANCH  21  26
BRANCH  23  29
HETATM   29  C4  UNL     1      29.793   2.009   7.964  1.00  0.00     0.043 A 
HETATM   30  C5  UNL     1      28.767   1.600   8.972  1.00  0.00     0.012 A 
HETATM   31  C6  UNL     1      30.205   1.152   9.091  1.00  0.00     0.012 A 
ENDBRANCH  23  29
ENDBRANCH   1  20
TORSDOF 6
ENDMDL
