MODEL 1
REMARK VINA RESULT: -10.265577131      0.000      0.000
REMARK  5 active torsions:
REMARK  status: ('A' for Active; 'I' for Inactive)
REMARK    1  A    between atoms: C1_4  and  C2_6 
REMARK    2  A    between atoms: C6_11  and  C7_12 
REMARK    3  A    between atoms: C7_12  and  N3_13 
REMARK    4  A    between atoms: C10_16  and  C11_17 
REMARK    5  A    between atoms: C13_20  and  C14_21 
ROOT
HETATM    1  N3  UNL     1      28.120   1.595   2.853  1.00  0.00    -0.386 N 
HETATM    2  C8  UNL     1      28.584   0.296   3.131  1.00  0.00     0.059 C 
HETATM    3  C9  UNL     1      28.670  -0.057   4.593  1.00  0.00     0.058 C 
HETATM    4  C10 UNL     1      29.622   0.975   5.214  1.00  0.00     0.078 C 
HETATM    5  C18 UNL     1      28.898   2.297   5.087  1.00  0.00     0.198 C 
HETATM    6  F4  UNL     1      29.744   3.263   5.623  1.00  0.00    -0.247 F 
HETATM    7  C19 UNL     1      28.508   2.649   3.705  1.00  0.00     0.160 C 
ENDROOT
BRANCH   1   8
HETATM    8  C7  UNL     1      26.825   1.693   2.280  1.00  0.00     0.160 C 
BRANCH   8   9
HETATM    9  C6  UNL     1      26.028   2.802   2.858  1.00  0.00    -0.036 A 
HETATM   10  C5  UNL     1      24.784   2.552   3.430  1.00  0.00     0.051 A 
HETATM   11  C4  UNL     1      24.048   3.576   3.970  1.00  0.00     0.117 A 
HETATM   12  C3  UNL     1      24.500   4.884   3.970  1.00  0.00     0.057 A 
HETATM   13  F1  UNL     1      22.842   3.309   4.520  1.00  0.00    -0.206 F 
HETATM   14  C2  UNL     1      25.728   5.160   3.411  1.00  0.00     0.008 A 
HETATM   15  C20 UNL     1      26.468   4.107   2.864  1.00  0.00     0.023 A 
BRANCH  14  16
HETATM   16  C1  UNL     1      26.245   6.514   3.387  1.00  0.00     0.120 C 
HETATM   17  N1  UNL     1      25.545   7.507   3.005  1.00  0.00    -0.387 N 
ATOM     18  H12 UNL     1      25.908   8.460   2.988  1.00  0.00     0.157 HD
ATOM     19  H11 UNL     1      24.584   7.347   2.704  1.00  0.00     0.157 HD
HETATM   20  N2  UNL     1      27.585   6.738   3.808  1.00  0.00    -0.082 NA
ENDBRANCH  14  16
ENDBRANCH   8   9
ENDBRANCH   1   8
BRANCH   4  21
HETATM   21  C11 UNL     1      29.902   0.684   6.614  1.00  0.00     0.040 A 
HETATM   22  C12 UNL     1      30.658  -0.374   7.072  1.00  0.00     0.169 A 
HETATM   23  O1  UNL     1      30.688  -0.311   8.361  1.00  0.00    -0.307 OA
HETATM   24  C13 UNL     1      30.004   0.717   8.803  1.00  0.00     0.128 A 
HETATM   25  N4  UNL     1      29.515   1.338   7.738  1.00  0.00    -0.341 N 
ATOM     26  H4  UNL     1      28.937   2.177   7.760  1.00  0.00     0.167 HD
BRANCH  24  27
HETATM   27  C14 UNL     1      29.867   1.034  10.247  1.00  0.00     0.072 C 
HETATM   28  C15 UNL     1      30.434   0.031  11.196  1.00  0.00     0.092 C 
HETATM   29  C16 UNL     1      29.195   0.233  12.076  1.00  0.00     0.245 C 
HETATM   30  F2  UNL     1      29.319   1.313  12.933  1.00  0.00    -0.206 F 
HETATM   31  F3  UNL     1      28.696  -0.911  12.625  1.00  0.00    -0.206 F 
HETATM   32  C17 UNL     1      28.478   0.694  10.802  1.00  0.00     0.092 C 
ENDBRANCH  24  27
ENDBRANCH   4  21
TORSDOF 5
ENDMDL
MODEL 2
REMARK VINA RESULT: -10.146825551      0.943      1.332
REMARK  5 active torsions:
REMARK  status: ('A' for Active; 'I' for Inactive)
REMARK    1  A    between atoms: C1_4  and  C2_6 
REMARK    2  A    between atoms: C6_11  and  C7_12 
REMARK    3  A    between atoms: C7_12  and  N3_13 
REMARK    4  A    between atoms: C10_16  and  C11_17 
REMARK    5  A    between atoms: C13_20  and  C14_21 
ROOT
HETATM    1  N3  UNL     1      28.491   2.486   3.262  1.00  0.00    -0.386 N 
HETATM    2  C8  UNL     1      29.084   1.210   3.267  1.00  0.00     0.059 C 
HETATM    3  C9  UNL     1      29.024   0.478   4.582  1.00  0.00     0.058 C 
HETATM    4  C10 UNL     1      29.740   1.383   5.594  1.00  0.00     0.078 C 
HETATM    5  C18 UNL     1      28.868   2.615   5.698  1.00  0.00     0.198 C 
HETATM    6  F4  UNL     1      29.499   3.471   6.594  1.00  0.00    -0.247 F 
HETATM    7  C19 UNL     1      28.619   3.296   4.409  1.00  0.00     0.160 C 
ENDROOT
BRANCH   1   8
HETATM    8  C7  UNL     1      27.280   2.617   2.532  1.00  0.00     0.160 C 
BRANCH   8   9
HETATM    9  C6  UNL     1      26.276   3.450   3.236  1.00  0.00    -0.036 A 
HETATM   10  C5  UNL     1      25.435   2.884   4.190  1.00  0.00     0.051 A 
HETATM   11  C4  UNL     1      24.509   3.655   4.847  1.00  0.00     0.117 A 
HETATM   12  C3  UNL     1      24.370   5.008   4.594  1.00  0.00     0.057 A 
HETATM   13  F1  UNL     1      23.703   3.083   5.769  1.00  0.00    -0.206 F 
HETATM   14  C2  UNL     1      25.190   5.595   3.655  1.00  0.00     0.008 A 
HETATM   15  C20 UNL     1      26.129   4.797   2.993  1.00  0.00     0.023 A 
BRANCH  14  16
HETATM   16  C1  UNL     1      25.081   7.009   3.356  1.00  0.00     0.120 C 
HETATM   17  N1  UNL     1      25.732   7.561   2.410  1.00  0.00    -0.387 N 
ATOM     18  H12 UNL     1      25.656   8.556   2.200  1.00  0.00     0.157 HD
ATOM     19  H11 UNL     1      26.353   6.988   1.838  1.00  0.00     0.157 HD
HETATM   20  N2  UNL     1      24.215   7.808   4.153  1.00  0.00    -0.082 NA
ENDBRANCH  14  16
ENDBRANCH   8   9
ENDBRANCH   1   8
BRANCH   4  21
HETATM   21  C11 UNL     1      29.871   0.745   6.897  1.00  0.00     0.040 A 
HETATM   22  C12 UNL     1      30.903  -0.084   7.279  1.00  0.00     0.169 A 
HETATM   23  O1  UNL     1      30.685  -0.459   8.494  1.00  0.00    -0.307 OA
HETATM   24  C13 UNL     1      29.573   0.062   8.958  1.00  0.00     0.128 A 
HETATM   25  N4  UNL     1      29.063   0.804   7.986  1.00  0.00    -0.341 N 
ATOM     26  H4  UNL     1      28.196   1.338   8.047  1.00  0.00     0.167 HD
BRANCH  24  27
HETATM   27  C14 UNL     1      29.074  -0.199  10.332  1.00  0.00     0.072 C 
HETATM   28  C15 UNL     1      28.431   0.955  11.027  1.00  0.00     0.092 C 
HETATM   29  C16 UNL     1      29.161   0.529  12.307  1.00  0.00     0.245 C 
HETATM   30  F2  UNL     1      28.479  -0.448  13.011  1.00  0.00    -0.206 F 
HETATM   31  F3  UNL     1      29.659   1.561  13.047  1.00  0.00    -0.206 F 
HETATM   32  C17 UNL     1      30.185  -0.148  11.389  1.00  0.00     0.092 C 
ENDBRANCH  24  27
ENDBRANCH   4  21
TORSDOF 5
ENDMDL
MODEL 3
REMARK VINA RESULT: -9.904295340      1.038      1.310
REMARK  5 active torsions:
REMARK  status: ('A' for Active; 'I' for Inactive)
REMARK    1  A    between atoms: C1_4  and  C2_6 
REMARK    2  A    between atoms: C6_11  and  C7_12 
REMARK    3  A    between atoms: C7_12  and  N3_13 
REMARK    4  A    between atoms: C10_16  and  C11_17 
REMARK    5  A    between atoms: C13_20  and  C14_21 
ROOT
HETATM    1  N3  UNL     1      27.718   1.098   2.423  1.00  0.00    -0.386 N 
HETATM    2  C8  UNL     1      27.540  -0.075   3.181  1.00  0.00     0.059 C 
HETATM    3  C9  UNL     1      27.729   0.085   4.667  1.00  0.00     0.058 C 
HETATM    4  C10 UNL     1      29.161   0.605   4.849  1.00  0.00     0.078 C 
HETATM    5  C18 UNL     1      29.158   1.982   4.222  1.00  0.00     0.198 C 
HETATM    6  F4  UNL     1      30.451   2.478   4.351  1.00  0.00    -0.247 F 
HETATM    7  C19 UNL     1      28.725   2.007   2.809  1.00  0.00     0.160 C 
ENDROOT
BRANCH   1   8
HETATM    8  C7  UNL     1      26.548   1.662   1.849  1.00  0.00     0.160 C 
BRANCH   8   9
HETATM    9  C6  UNL     1      25.951   2.723   2.696  1.00  0.00    -0.036 A 
HETATM   10  C5  UNL     1      24.897   2.429   3.555  1.00  0.00     0.051 A 
HETATM   11  C4  UNL     1      24.346   3.408   4.344  1.00  0.00     0.117 A 
HETATM   12  C3  UNL     1      24.807   4.713   4.321  1.00  0.00     0.057 A 
HETATM   13  F1  UNL     1      23.322   3.098   5.170  1.00  0.00    -0.206 F 
HETATM   14  C2  UNL     1      25.852   5.032   3.480  1.00  0.00     0.008 A 
HETATM   15  C20 UNL     1      26.402   4.024   2.682  1.00  0.00     0.023 A 
BRANCH  14  16
HETATM   16  C1  UNL     1      26.369   6.385   3.422  1.00  0.00     0.120 C 
HETATM   17  N1  UNL     1      25.658   7.374   3.051  1.00  0.00    -0.387 N 
ATOM     18  H12 UNL     1      26.022   8.325   3.009  1.00  0.00     0.157 HD
ATOM     19  H11 UNL     1      24.687   7.212   2.785  1.00  0.00     0.157 HD
HETATM   20  N2  UNL     1      27.724   6.611   3.794  1.00  0.00    -0.082 NA
ENDBRANCH  14  16
ENDBRANCH   8   9
ENDBRANCH   1   8
BRANCH   4  21
HETATM   21  C11 UNL     1      29.533   0.691   6.256  1.00  0.00     0.040 A 
HETATM   22  C12 UNL     1      29.689   1.860   6.969  1.00  0.00     0.169 A 
HETATM   23  O1  UNL     1      30.020   1.548   8.177  1.00  0.00    -0.307 OA
HETATM   24  C13 UNL     1      30.099   0.247   8.326  1.00  0.00     0.128 A 
HETATM   25  N4  UNL     1      29.802  -0.292   7.152  1.00  0.00    -0.341 N 
ATOM     26  H4  UNL     1      29.779  -1.292   6.952  1.00  0.00     0.167 HD
BRANCH  24  27
HETATM   27  C14 UNL     1      30.462  -0.396   9.614  1.00  0.00     0.072 C 
HETATM   28  C15 UNL     1      29.341  -0.627  10.572  1.00  0.00     0.092 C 
HETATM   29  C16 UNL     1      30.276  -0.176  11.701  1.00  0.00     0.245 C 
HETATM   30  F2  UNL     1      31.072  -1.204  12.177  1.00  0.00    -0.206 F 
HETATM   31  F3  UNL     1      29.686   0.610  12.646  1.00  0.00    -0.206 F 
HETATM   32  C17 UNL     1      31.053   0.593  10.627  1.00  0.00     0.092 C 
ENDBRANCH  24  27
ENDBRANCH   4  21
TORSDOF 5
ENDMDL
MODEL 4
REMARK VINA RESULT: -9.574369606      1.826      2.377
REMARK  5 active torsions:
REMARK  status: ('A' for Active; 'I' for Inactive)
REMARK    1  A    between atoms: C1_4  and  C2_6 
REMARK    2  A    between atoms: C6_11  and  C7_12 
REMARK    3  A    between atoms: C7_12  and  N3_13 
REMARK    4  A    between atoms: C10_16  and  C11_17 
REMARK    5  A    between atoms: C13_20  and  C14_21 
ROOT
HETATM    1  N3  UNL     1      28.927   2.228   3.406  1.00  0.00    -0.386 N 
HETATM    2  C8  UNL     1      29.428   0.915   3.481  1.00  0.00     0.059 C 
HETATM    3  C9  UNL     1      29.243   0.231   4.810  1.00  0.00     0.058 C 
HETATM    4  C10 UNL     1      29.961   1.116   5.837  1.00  0.00     0.078 C 
HETATM    5  C18 UNL     1      29.173   2.408   5.855  1.00  0.00     0.198 C 
HETATM    6  F4  UNL     1      29.811   3.247   6.764  1.00  0.00    -0.247 F 
HETATM    7  C19 UNL     1      29.046   3.063   4.536  1.00  0.00     0.160 C 
ENDROOT
BRANCH   1   8
HETATM    8  C7  UNL     1      27.772   2.418   2.603  1.00  0.00     0.160 C 
BRANCH   8   9
HETATM    9  C6  UNL     1      26.955   3.575   3.041  1.00  0.00    -0.036 A 
HETATM   10  C5  UNL     1      27.465   4.868   2.960  1.00  0.00     0.051 A 
HETATM   11  C4  UNL     1      26.709   5.941   3.360  1.00  0.00     0.117 A 
HETATM   12  C3  UNL     1      25.425   5.790   3.856  1.00  0.00     0.057 A 
HETATM   13  F1  UNL     1      27.225   7.187   3.272  1.00  0.00    -0.206 F 
HETATM   14  C2  UNL     1      24.896   4.521   3.946  1.00  0.00     0.008 A 
HETATM   15  C20 UNL     1      25.678   3.436   3.535  1.00  0.00     0.023 A 
BRANCH  14  16
HETATM   16  C1  UNL     1      23.556   4.312   4.459  1.00  0.00     0.120 C 
HETATM   17  N1  UNL     1      22.527   4.827   3.914  1.00  0.00    -0.387 N 
ATOM     18  H12 UNL     1      21.584   4.681   4.275  1.00  0.00     0.157 HD
ATOM     19  H11 UNL     1      22.646   5.409   3.085  1.00  0.00     0.157 HD
HETATM   20  N2  UNL     1      23.389   3.500   5.615  1.00  0.00    -0.082 NA
ENDBRANCH  14  16
ENDBRANCH   8   9
ENDBRANCH   1   8
BRANCH   4  21
HETATM   21  C11 UNL     1      29.972   0.512   7.163  1.00  0.00     0.040 A 
HETATM   22  C12 UNL     1      30.879  -0.428   7.603  1.00  0.00     0.169 A 
HETATM   23  O1  UNL     1      30.580  -0.729   8.822  1.00  0.00    -0.307 OA
HETATM   24  C13 UNL     1      29.532  -0.055   9.234  1.00  0.00     0.128 A 
HETATM   25  N4  UNL     1      29.148   0.712   8.223  1.00  0.00    -0.341 N 
ATOM     26  H4  UNL     1      28.356   1.354   8.239  1.00  0.00     0.167 HD
BRANCH  24  27
HETATM   27  C14 UNL     1      28.965  -0.202  10.598  1.00  0.00     0.072 C 
HETATM   28  C15 UNL     1      28.415   1.038  11.218  1.00  0.00     0.092 C 
HETATM   29  C16 UNL     1      29.058   0.606  12.541  1.00  0.00     0.245 C 
HETATM   30  F2  UNL     1      28.261  -0.268  13.262  1.00  0.00    -0.206 F 
HETATM   31  F3  UNL     1      29.629   1.619  13.253  1.00  0.00    -0.206 F 
HETATM   32  C17 UNL     1      30.041  -0.208  11.692  1.00  0.00     0.092 C 
ENDBRANCH  24  27
ENDBRANCH   4  21
TORSDOF 5
ENDMDL
MODEL 5
REMARK VINA RESULT: -9.334924506      0.962      1.171
REMARK  5 active torsions:
REMARK  status: ('A' for Active; 'I' for Inactive)
REMARK    1  A    between atoms: C1_4  and  C2_6 
REMARK    2  A    between atoms: C6_11  and  C7_12 
REMARK    3  A    between atoms: C7_12  and  N3_13 
REMARK    4  A    between atoms: C10_16  and  C11_17 
REMARK    5  A    between atoms: C13_20  and  C14_21 
ROOT
HETATM    1  N3  UNL     1      27.624   1.829   2.427  1.00  0.00    -0.386 N 
HETATM    2  C8  UNL     1      28.059   0.497   2.560  1.00  0.00     0.059 C 
HETATM    3  C9  UNL     1      28.355   0.055   3.970  1.00  0.00     0.058 C 
HETATM    4  C10 UNL     1      29.444   1.006   4.482  1.00  0.00     0.078 C 
HETATM    5  C18 UNL     1      28.779   2.364   4.542  1.00  0.00     0.198 C 
HETATM    6  F4  UNL     1      29.747   3.259   4.985  1.00  0.00    -0.247 F 
HETATM    7  C19 UNL     1      28.196   2.813   3.260  1.00  0.00     0.160 C 
ENDROOT
BRANCH   1   8
HETATM    8  C7  UNL     1      26.262   2.016   2.075  1.00  0.00     0.160 C 
BRANCH   8   9
HETATM    9  C6  UNL     1      25.565   2.967   2.974  1.00  0.00    -0.036 A 
HETATM   10  C5  UNL     1      24.628   2.508   3.894  1.00  0.00     0.051 A 
HETATM   11  C4  UNL     1      23.986   3.386   4.732  1.00  0.00     0.117 A 
HETATM   12  C3  UNL     1      24.236   4.746   4.699  1.00  0.00     0.057 A 
HETATM   13  F1  UNL     1      23.080   2.916   5.617  1.00  0.00    -0.206 F 
HETATM   14  C2  UNL     1      25.160   5.228   3.797  1.00  0.00     0.008 A 
HETATM   15  C20 UNL     1      25.807   4.322   2.950  1.00  0.00     0.023 A 
BRANCH  14  16
HETATM   16  C1  UNL     1      25.457   6.646   3.726  1.00  0.00     0.120 C 
HETATM   17  N1  UNL     1      26.637   7.090   3.548  1.00  0.00    -0.387 N 
ATOM     18  H12 UNL     1      26.845   8.087   3.498  1.00  0.00     0.157 HD
ATOM     19  H11 UNL     1      27.405   6.427   3.450  1.00  0.00     0.157 HD
HETATM   20  N2  UNL     1      24.385   7.572   3.862  1.00  0.00    -0.082 NA
ENDBRANCH  14  16
ENDBRANCH   8   9
ENDBRANCH   1   8
BRANCH   4  21
HETATM   21  C11 UNL     1      29.926   0.621   5.803  1.00  0.00     0.040 A 
HETATM   22  C12 UNL     1      30.975  -0.238   6.049  1.00  0.00     0.169 A 
HETATM   23  O1  UNL     1      31.112  -0.342   7.329  1.00  0.00    -0.307 OA
HETATM   24  C13 UNL     1      30.226   0.390   7.961  1.00  0.00     0.128 A 
HETATM   25  N4  UNL     1      29.490   0.987   7.035  1.00  0.00    -0.341 N 
ATOM     26  H4  UNL     1      28.715   1.624   7.219  1.00  0.00     0.167 HD
BRANCH  24  27
HETATM   27  C14 UNL     1      30.151   0.462   9.442  1.00  0.00     0.072 C 
HETATM   28  C15 UNL     1      29.247  -0.524  10.104  1.00  0.00     0.092 C 
HETATM   29  C16 UNL     1      28.786   0.599  11.041  1.00  0.00     0.245 C 
HETATM   30  F2  UNL     1      29.624   0.763  12.131  1.00  0.00    -0.206 F 
HETATM   31  F3  UNL     1      27.449   0.601  11.310  1.00  0.00    -0.206 F 
HETATM   32  C17 UNL     1      29.215   1.572   9.938  1.00  0.00     0.092 C 
ENDBRANCH  24  27
ENDBRANCH   4  21
TORSDOF 5
ENDMDL
