MODEL 1
REMARK VINA RESULT: -8.771721300      0.000      0.000
REMARK  5 active torsions:
REMARK  status: ('A' for Active; 'I' for Inactive)
REMARK    1  A    between atoms: C3_7  and  C4_8 
REMARK    2  A    between atoms: N2_9  and  O2_11 
REMARK    3  A    between atoms: O2_11  and  C5_12 
REMARK    4  A    between atoms: C5_12  and  C6_13 
REMARK    5  A    between atoms: C6_13  and  C7_14 
ROOT
HETATM    1  O2  UNL     1      29.184   2.653   5.394  1.00  0.00    -0.280 OA
ENDROOT
BRANCH   1   2
HETATM    2  N2  UNL     1      28.916   1.957   6.561  1.00  0.00    -0.276 N 
HETATM    3  C4  UNL     1      29.441   2.342   7.669  1.00  0.00     0.146 C 
ATOM      4  H2  UNL     1      28.304   1.142   6.541  1.00  0.00     0.193 HD
BRANCH   3   5
HETATM    5  C3  UNL     1      29.178   1.633   8.900  1.00  0.00     0.092 A 
HETATM    6  C2  UNL     1      29.716   0.426   9.261  1.00  0.00     0.136 A 
HETATM    7  N1  UNL     1      29.220   0.102  10.476  1.00  0.00    -0.297 N 
HETATM    8 CL1  UNL     1      30.840  -0.508   8.305  1.00  0.00    -0.062 Cl
HETATM    9  C1  UNL     1      28.384   1.066  10.895  1.00  0.00     0.326 A 
ATOM     10  H1  UNL     1      29.446  -0.747  10.996  1.00  0.00     0.171 HD
HETATM   11  O1  UNL     1      27.724   1.160  11.947  1.00  0.00    -0.247 OA
HETATM   12  N3  UNL     1      28.378   2.000   9.901  1.00  0.00    -0.305 N 
ATOM     13  H3  UNL     1      27.835   2.863   9.921  1.00  0.00     0.171 HD
ENDBRANCH   3   5
ENDBRANCH   1   2
BRANCH   1  14
HETATM   14  C5  UNL     1      29.167   1.885   4.217  1.00  0.00     0.206 C 
BRANCH  14  15
HETATM   15  C6  UNL     1      28.452   2.566   3.098  1.00  0.00     0.071 C 
BRANCH  15  16
HETATM   16  C7  UNL     1      27.084   3.005   3.389  1.00  0.00    -0.011 A 
HETATM   17  C8  UNL     1      26.024   2.222   3.740  1.00  0.00     0.043 A 
HETATM   18 CL2  UNL     1      26.277   0.496   3.951  1.00  0.00    -0.084 Cl
HETATM   19  C9  UNL     1      24.756   2.691   3.969  1.00  0.00     0.050 A 
HETATM   20  C10 UNL     1      24.519   4.052   3.841  1.00  0.00     0.059 A 
HETATM   21 CL3  UNL     1      22.902   4.654   4.134  1.00  0.00    -0.082 Cl
HETATM   22  C11 UNL     1      25.549   4.900   3.490  1.00  0.00     0.078 A 
HETATM   23 CL4  UNL     1      25.197   6.601   3.343  1.00  0.00    -0.081 Cl
HETATM   24  C12 UNL     1      26.804   4.370   3.271  1.00  0.00     0.065 A 
HETATM   25 CL5  UNL     1      28.100   5.478   2.822  1.00  0.00    -0.082 Cl
ENDBRANCH  15  16
ENDBRANCH  14  15
ENDBRANCH   1  14
TORSDOF 5
ENDMDL
MODEL 2
REMARK VINA RESULT: -8.463258080      1.704      1.906
REMARK  5 active torsions:
REMARK  status: ('A' for Active; 'I' for Inactive)
REMARK    1  A    between atoms: C3_7  and  C4_8 
REMARK    2  A    between atoms: N2_9  and  O2_11 
REMARK    3  A    between atoms: O2_11  and  C5_12 
REMARK    4  A    between atoms: C5_12  and  C6_13 
REMARK    5  A    between atoms: C6_13  and  C7_14 
ROOT
HETATM    1  O2  UNL     1      29.850   1.775   4.836  1.00  0.00    -0.280 OA
ENDROOT
BRANCH   1   2
HETATM    2  N2  UNL     1      29.602   0.873   5.857  1.00  0.00    -0.276 N 
HETATM    3  C4  UNL     1      29.944   1.160   7.061  1.00  0.00     0.146 C 
ATOM      4  H2  UNL     1      29.148  -0.018   5.653  1.00  0.00     0.193 HD
BRANCH   3   5
HETATM    5  C3  UNL     1      29.697   0.236   8.144  1.00  0.00     0.092 A 
HETATM    6  C2  UNL     1      29.044   0.526   9.312  1.00  0.00     0.136 A 
HETATM    7  N1  UNL     1      29.023  -0.599  10.062  1.00  0.00    -0.297 N 
HETATM    8 CL1  UNL     1      28.366   2.080   9.734  1.00  0.00    -0.062 Cl
HETATM    9  C1  UNL     1      29.645  -1.592   9.405  1.00  0.00     0.326 A 
ATOM     10  H1  UNL     1      28.600  -0.681  10.987  1.00  0.00     0.171 HD
HETATM   11  O1  UNL     1      29.844  -2.775   9.735  1.00  0.00    -0.247 OA
HETATM   12  N3  UNL     1      30.050  -1.047   8.222  1.00  0.00    -0.305 N 
ATOM     13  H3  UNL     1      30.555  -1.553   7.494  1.00  0.00     0.171 HD
ENDBRANCH   3   5
ENDBRANCH   1   2
BRANCH   1  14
HETATM   14  C5  UNL     1      29.038   2.922   4.834  1.00  0.00     0.206 C 
BRANCH  14  15
HETATM   15  C6  UNL     1      28.294   3.094   3.551  1.00  0.00     0.071 C 
BRANCH  15  16
HETATM   16  C7  UNL     1      26.861   3.371   3.678  1.00  0.00    -0.011 A 
HETATM   17  C8  UNL     1      25.853   2.460   3.804  1.00  0.00     0.043 A 
HETATM   18 CL2  UNL     1      26.260   0.753   3.904  1.00  0.00    -0.084 Cl
HETATM   19  C9  UNL     1      24.523   2.782   3.887  1.00  0.00     0.050 A 
HETATM   20  C10 UNL     1      24.160   4.120   3.841  1.00  0.00     0.059 A 
HETATM   21 CL3  UNL     1      22.463   4.534   3.947  1.00  0.00    -0.082 Cl
HETATM   22  C11 UNL     1      25.131   5.093   3.715  1.00  0.00     0.078 A 
HETATM   23 CL4  UNL     1      24.620   6.758   3.662  1.00  0.00    -0.081 Cl
HETATM   24  C12 UNL     1      26.453   4.707   3.636  1.00  0.00     0.065 A 
HETATM   25 CL5  UNL     1      27.671   5.973   3.473  1.00  0.00    -0.082 Cl
ENDBRANCH  15  16
ENDBRANCH  14  15
ENDBRANCH   1  14
TORSDOF 5
ENDMDL
MODEL 3
REMARK VINA RESULT: -7.919579424      1.714      1.952
REMARK  5 active torsions:
REMARK  status: ('A' for Active; 'I' for Inactive)
REMARK    1  A    between atoms: C3_7  and  C4_8 
REMARK    2  A    between atoms: N2_9  and  O2_11 
REMARK    3  A    between atoms: O2_11  and  C5_12 
REMARK    4  A    between atoms: C5_12  and  C6_13 
REMARK    5  A    between atoms: C6_13  and  C7_14 
ROOT
HETATM    1  O2  UNL     1      29.256   0.840   3.590  1.00  0.00    -0.280 OA
ENDROOT
BRANCH   1   2
HETATM    2  N2  UNL     1      29.126   0.840   4.969  1.00  0.00    -0.276 N 
HETATM    3  C4  UNL     1      30.080   0.389   5.700  1.00  0.00     0.146 C 
ATOM      4  H2  UNL     1      28.275   1.198   5.402  1.00  0.00     0.193 HD
BRANCH   3   5
HETATM    5  C3  UNL     1      29.970   0.377   7.141  1.00  0.00     0.092 A 
HETATM    6  C2  UNL     1      29.862   1.480   7.946  1.00  0.00     0.136 A 
HETATM    7  N1  UNL     1      29.786   1.050   9.225  1.00  0.00    -0.297 N 
HETATM    8 CL1  UNL     1      29.831   3.137   7.394  1.00  0.00    -0.062 Cl
HETATM    9  C1  UNL     1      29.843  -0.292   9.255  1.00  0.00     0.326 A 
ATOM     10  H1  UNL     1      29.699   1.653  10.044  1.00  0.00     0.171 HD
HETATM   11  O1  UNL     1      29.805  -1.079  10.218  1.00  0.00    -0.247 OA
HETATM   12  N3  UNL     1      29.956  -0.680   7.952  1.00  0.00    -0.305 N 
ATOM     13  H3  UNL     1      30.020  -1.649   7.641  1.00  0.00     0.171 HD
ENDBRANCH   3   5
ENDBRANCH   1   2
BRANCH   1  14
HETATM   14  C5  UNL     1      28.541   1.846   2.917  1.00  0.00     0.206 C 
BRANCH  14  15
HETATM   15  C6  UNL     1      28.149   2.971   3.817  1.00  0.00     0.071 C 
BRANCH  15  16
HETATM   16  C7  UNL     1      26.723   3.307   3.834  1.00  0.00    -0.011 A 
HETATM   17  C8  UNL     1      25.671   2.440   3.887  1.00  0.00     0.043 A 
HETATM   18 CL2  UNL     1      25.998   0.719   4.023  1.00  0.00    -0.084 Cl
HETATM   19  C9  UNL     1      24.354   2.818   3.868  1.00  0.00     0.050 A 
HETATM   20  C10 UNL     1      24.052   4.170   3.790  1.00  0.00     0.059 A 
HETATM   21 CL3  UNL     1      22.371   4.655   3.766  1.00  0.00    -0.082 Cl
HETATM   22  C11 UNL     1      25.070   5.100   3.734  1.00  0.00     0.078 A 
HETATM   23 CL4  UNL     1      24.636   6.785   3.637  1.00  0.00    -0.081 Cl
HETATM   24  C12 UNL     1      26.377   4.660   3.757  1.00  0.00     0.065 A 
HETATM   25 CL5  UNL     1      27.656   5.872   3.681  1.00  0.00    -0.082 Cl
ENDBRANCH  15  16
ENDBRANCH  14  15
ENDBRANCH   1  14
TORSDOF 5
ENDMDL
MODEL 4
REMARK VINA RESULT: -7.744812547      0.647      2.191
REMARK  5 active torsions:
REMARK  status: ('A' for Active; 'I' for Inactive)
REMARK    1  A    between atoms: C3_7  and  C4_8 
REMARK    2  A    between atoms: N2_9  and  O2_11 
REMARK    3  A    between atoms: O2_11  and  C5_12 
REMARK    4  A    between atoms: C5_12  and  C6_13 
REMARK    5  A    between atoms: C6_13  and  C7_14 
ROOT
HETATM    1  O2  UNL     1      28.933   2.802   5.237  1.00  0.00    -0.280 OA
ENDROOT
BRANCH   1   2
HETATM    2  N2  UNL     1      28.723   2.084   6.403  1.00  0.00    -0.276 N 
HETATM    3  C4  UNL     1      29.350   2.410   7.475  1.00  0.00     0.146 C 
ATOM      4  H2  UNL     1      28.073   1.298   6.410  1.00  0.00     0.193 HD
BRANCH   3   5
HETATM    5  C3  UNL     1      29.151   1.678   8.704  1.00  0.00     0.092 A 
HETATM    6  C2  UNL     1      29.744   0.488   9.034  1.00  0.00     0.136 A 
HETATM    7  N1  UNL     1      29.296   0.130  10.259  1.00  0.00    -0.297 N 
HETATM    8 CL1  UNL     1      30.875  -0.391   8.034  1.00  0.00    -0.062 Cl
HETATM    9  C1  UNL     1      28.436   1.057  10.714  1.00  0.00     0.326 A 
ATOM     10  H1  UNL     1      29.569  -0.715  10.761  1.00  0.00     0.171 HD
HETATM   11  O1  UNL     1      27.804   1.113  11.785  1.00  0.00    -0.247 OA
HETATM   12  N3  UNL     1      28.366   2.001   9.732  1.00  0.00    -0.305 N 
ATOM     13  H3  UNL     1      27.792   2.843   9.779  1.00  0.00     0.171 HD
ENDBRANCH   3   5
ENDBRANCH   1   2
BRANCH   1  14
HETATM   14  C5  UNL     1      29.327   2.040   4.123  1.00  0.00     0.206 C 
BRANCH  14  15
HETATM   15  C6  UNL     1      28.398   2.194   2.965  1.00  0.00     0.071 C 
BRANCH  15  16
HETATM   16  C7  UNL     1      27.238   3.061   3.189  1.00  0.00    -0.011 A 
HETATM   17  C8  UNL     1      27.179   4.416   3.034  1.00  0.00     0.043 A 
HETATM   18 CL2  UNL     1      28.596   5.263   2.433  1.00  0.00    -0.084 Cl
HETATM   19  C9  UNL     1      26.068   5.177   3.291  1.00  0.00     0.050 A 
HETATM   20  C10 UNL     1      24.918   4.543   3.739  1.00  0.00     0.059 A 
HETATM   21 CL3  UNL     1      23.499   5.512   4.068  1.00  0.00    -0.082 Cl
HETATM   22  C11 UNL     1      24.911   3.174   3.918  1.00  0.00     0.078 A 
HETATM   23 CL4  UNL     1      23.441   2.429   4.483  1.00  0.00    -0.081 Cl
HETATM   24  C12 UNL     1      26.059   2.462   3.642  1.00  0.00     0.065 A 
HETATM   25 CL5  UNL     1      26.021   0.714   3.881  1.00  0.00    -0.082 Cl
ENDBRANCH  15  16
ENDBRANCH  14  15
ENDBRANCH   1  14
TORSDOF 5
ENDMDL
MODEL 5
REMARK VINA RESULT: -7.654448544      0.988      1.026
REMARK  5 active torsions:
REMARK  status: ('A' for Active; 'I' for Inactive)
REMARK    1  A    between atoms: C3_7  and  C4_8 
REMARK    2  A    between atoms: N2_9  and  O2_11 
REMARK    3  A    between atoms: O2_11  and  C5_12 
REMARK    4  A    between atoms: C5_12  and  C6_13 
REMARK    5  A    between atoms: C6_13  and  C7_14 
ROOT
HETATM    1  O2  UNL     1      29.993   0.921   5.368  1.00  0.00    -0.280 OA
ENDROOT
BRANCH   1   2
HETATM    2  N2  UNL     1      29.473   0.609   6.613  1.00  0.00    -0.276 N 
HETATM    3  C4  UNL     1      29.914   1.211   7.658  1.00  0.00     0.146 C 
ATOM      4  H2  UNL     1      28.743  -0.098   6.700  1.00  0.00     0.193 HD
BRANCH   3   5
HETATM    5  C3  UNL     1      29.389   0.904   8.968  1.00  0.00     0.092 A 
HETATM    6  C2  UNL     1      29.479  -0.306   9.605  1.00  0.00     0.136 A 
HETATM    7  N1  UNL     1      28.864  -0.187  10.803  1.00  0.00    -0.297 N 
HETATM    8 CL1  UNL     1      30.255  -1.733   8.962  1.00  0.00    -0.062 Cl
HETATM    9  C1  UNL     1      28.387   1.061  10.945  1.00  0.00     0.326 A 
ATOM     10  H1  UNL     1      28.776  -0.932  11.495  1.00  0.00     0.171 HD
HETATM   11  O1  UNL     1      27.764   1.583  11.887  1.00  0.00    -0.247 OA
HETATM   12  N3  UNL     1      28.727   1.713   9.796  1.00  0.00    -0.305 N 
ATOM     13  H3  UNL     1      28.505   2.688   9.597  1.00  0.00     0.171 HD
ENDBRANCH   3   5
ENDBRANCH   1   2
BRANCH   1  14
HETATM   14  C5  UNL     1      29.756   2.235   4.927  1.00  0.00     0.206 C 
BRANCH  14  15
HETATM   15  C6  UNL     1      28.998   2.281   3.642  1.00  0.00     0.071 C 
BRANCH  15  16
HETATM   16  C7  UNL     1      27.549   2.457   3.763  1.00  0.00    -0.011 A 
HETATM   17  C8  UNL     1      26.610   1.482   3.938  1.00  0.00     0.043 A 
HETATM   18 CL2  UNL     1      27.142  -0.183   4.117  1.00  0.00    -0.084 Cl
HETATM   19  C9  UNL     1      25.260   1.710   4.012  1.00  0.00     0.050 A 
HETATM   20  C10 UNL     1      24.801   3.014   3.904  1.00  0.00     0.059 A 
HETATM   21 CL3  UNL     1      23.078   3.307   3.999  1.00  0.00    -0.082 Cl
HETATM   22  C11 UNL     1      25.697   4.048   3.726  1.00  0.00     0.078 A 
HETATM   23 CL4  UNL     1      25.066   5.667   3.597  1.00  0.00    -0.081 Cl
HETATM   24  C12 UNL     1      27.044   3.757   3.659  1.00  0.00     0.065 A 
HETATM   25 CL5  UNL     1      28.166   5.099   3.430  1.00  0.00    -0.082 Cl
ENDBRANCH  15  16
ENDBRANCH  14  15
ENDBRANCH   1  14
TORSDOF 5
ENDMDL
