MODEL 1
REMARK VINA RESULT: -1.435572887      0.000      0.000
REMARK  9 active torsions:
REMARK  status: ('A' for Active; 'I' for Inactive)
REMARK    1  A    between atoms: C2_2  and  C3_3 
REMARK    2  A    between atoms: C3_3  and  C4_4 
REMARK    3  A    between atoms: C4_4  and  N1_5 
REMARK    4  A    between atoms: N2_8  and  C7_9 
REMARK    5  A    between atoms: C9_13  and  C10_14 
REMARK    6  A    between atoms: C11_15  and  C12_16 
REMARK    7  A    between atoms: C12_16  and  O1_17 
REMARK    8  A    between atoms: N4_24  and  C18_26 
REMARK    9  A    between atoms: C18_26  and  C20_30 
ROOT
HETATM    1  C7  UNL     1      29.602   1.215   8.076  1.00  0.00     0.681 A 
HETATM    2  N3  UNL     1      29.732   2.554   8.104  1.00  0.00    -0.200 N 
ATOM      3  H3  UNL     1      30.142   2.996   8.927  1.00  0.00     0.183 HD
HETATM    4  C8  UNL     1      29.338   3.318   7.083  1.00  0.00     0.130 A 
HETATM    5  C9  UNL     1      28.774   2.736   5.941  1.00  0.00     0.078 A 
HETATM    6  C17 UNL     1      28.646   1.370   5.922  1.00  0.00     0.142 A 
HETATM    7  N4  UNL     1      28.162   0.767   4.961  1.00  0.00    -0.330 N 
ATOM      8  H4  UNL     1      28.167  -0.233   5.165  1.00  0.00     0.168 HD
HETATM    9  N6  UNL     1      29.077   0.632   7.022  1.00  0.00    -0.175 N 
ATOM     10  H6  UNL     1      28.983  -0.383   7.009  1.00  0.00     0.186 HD
ENDROOT
BRANCH   1  11
HETATM   11  N2  UNL     1      30.038   0.435   9.204  1.00  0.00    -0.214 N 
HETATM   12  C6  UNL     1      31.410   0.485   9.613  1.00  0.00     0.171 C 
HETATM   13  C5  UNL     1      31.478   0.232  11.098  1.00  0.00     0.292 C 
HETATM   14  N1  UNL     1      30.988  -1.101  11.433  1.00  0.00     0.091 N 
HETATM   15  C24 UNL     1      30.024  -1.557  10.497  1.00  0.00     0.292 C 
HETATM   16  C23 UNL     1      29.151  -0.425   9.961  1.00  0.00     0.171 C 
BRANCH  14  17
HETATM   17  C4  UNL     1      30.551  -1.049  12.790  1.00  0.00     0.272 C 
BRANCH  17  18
HETATM   18  C3  UNL     1      29.681   0.131  13.085  1.00  0.00     0.030 C 
BRANCH  18  19
HETATM   19  C2  UNL     1      28.384  -0.318  13.725  1.00  0.00    -0.003 C 
HETATM   20  C1  UNL     1      28.682  -0.981  15.055  1.00  0.00     0.005 C 
ENDBRANCH  18  19
ENDBRANCH  17  18
ENDBRANCH  14  17
ENDBRANCH   1  11
BRANCH   5  21
HETATM   21  C10 UNL     1      28.372   3.606   4.881  1.00  0.00    -0.059 C 
HETATM   22  C11 UNL     1      28.012   4.355   4.009  1.00  0.00    -0.063 C 
BRANCH  22  23
HETATM   23  C12 UNL     1      27.559   5.278   2.967  1.00  0.00     0.121 C 
HETATM   24  C13 UNL     1      26.143   4.891   2.596  1.00  0.00     0.051 C 
HETATM   25  C14 UNL     1      25.309   6.129   2.629  1.00  0.00     0.004 C 
HETATM   26  C15 UNL     1      26.195   7.272   3.057  1.00  0.00     0.004 C 
HETATM   27  C16 UNL     1      27.473   6.652   3.580  1.00  0.00     0.051 C 
BRANCH  23  28
HETATM   28  O1  UNL     1      28.345   5.243   1.832  1.00  0.00    -0.378 OA
ATOM     29  H1  UNL     1      27.862   5.001   1.051  1.00  0.00     0.211 HD
ENDBRANCH  23  28
ENDBRANCH  22  23
ENDBRANCH   5  21
BRANCH   7  30
HETATM   30  C18 UNL     1      27.633   0.954   3.744  1.00  0.00     0.082 C 
HETATM   31  N5  UNL     1      26.382   1.353   3.589  1.00  0.00    -0.384 N 
HETATM   32  C19 UNL     1      25.775   1.566   2.313  1.00  0.00     0.147 C 
ATOM     33  H5  UNL     1      25.820   1.516   4.425  1.00  0.00     0.160 HD
BRANCH  30  34
HETATM   34  C20 UNL     1      28.385   0.783   2.446  1.00  0.00     0.053 A 
HETATM   35  C21 UNL     1      29.843   0.594   2.461  1.00  0.00     0.013 A 
HETATM   36  C22 UNL     1      28.928  -0.559   2.114  1.00  0.00     0.013 A 
ENDBRANCH  30  34
ENDBRANCH   7  30
TORSDOF 9
ENDMDL
MODEL 2
REMARK VINA RESULT: 0.474139337      1.209      1.639
REMARK  9 active torsions:
REMARK  status: ('A' for Active; 'I' for Inactive)
REMARK    1  A    between atoms: C2_2  and  C3_3 
REMARK    2  A    between atoms: C3_3  and  C4_4 
REMARK    3  A    between atoms: C4_4  and  N1_5 
REMARK    4  A    between atoms: N2_8  and  C7_9 
REMARK    5  A    between atoms: C9_13  and  C10_14 
REMARK    6  A    between atoms: C11_15  and  C12_16 
REMARK    7  A    between atoms: C12_16  and  O1_17 
REMARK    8  A    between atoms: N4_24  and  C18_26 
REMARK    9  A    between atoms: C18_26  and  C20_30 
ROOT
HETATM    1  C7  UNL     1      29.617   0.888   8.746  1.00  0.00     0.681 A 
HETATM    2  N3  UNL     1      29.183   2.162   8.780  1.00  0.00    -0.200 N 
ATOM      3  H3  UNL     1      29.133   2.645   9.677  1.00  0.00     0.183 HD
HETATM    4  C8  UNL     1      28.818   2.808   7.672  1.00  0.00     0.130 A 
HETATM    5  C9  UNL     1      28.879   2.168   6.427  1.00  0.00     0.078 A 
HETATM    6  C17 UNL     1      29.322   0.870   6.403  1.00  0.00     0.142 A 
HETATM    7  N4  UNL     1      29.412   0.224   5.355  1.00  0.00    -0.330 N 
ATOM      8  H4  UNL     1      29.761  -0.710   5.574  1.00  0.00     0.168 HD
HETATM    9  N6  UNL     1      29.688   0.253   7.597  1.00  0.00    -0.175 N 
ATOM     10  H6  UNL     1      30.017  -0.711   7.580  1.00  0.00     0.186 HD
ENDROOT
BRANCH   1  11
HETATM   11  N2  UNL     1      29.994   0.233   9.970  1.00  0.00    -0.214 N 
HETATM   12  C6  UNL     1      31.352   0.300  10.421  1.00  0.00     0.171 C 
HETATM   13  C5  UNL     1      31.364   0.216  11.926  1.00  0.00     0.292 C 
HETATM   14  N1  UNL     1      30.830  -1.060  12.391  1.00  0.00     0.091 N 
HETATM   15  C24 UNL     1      29.887  -1.599  11.478  1.00  0.00     0.292 C 
HETATM   16  C23 UNL     1      29.061  -0.517  10.786  1.00  0.00     0.171 C 
BRANCH  14  17
HETATM   17  C4  UNL     1      30.349  -0.844  13.717  1.00  0.00     0.272 C 
BRANCH  17  18
HETATM   18  C3  UNL     1      29.019  -0.162  13.758  1.00  0.00     0.030 C 
BRANCH  18  19
HETATM   19  C2  UNL     1      28.053  -0.941  14.627  1.00  0.00    -0.003 C 
HETATM   20  C1  UNL     1      28.609  -1.040  16.034  1.00  0.00     0.005 C 
ENDBRANCH  18  19
ENDBRANCH  17  18
ENDBRANCH  14  17
ENDBRANCH   1  11
BRANCH   5  21
HETATM   21  C10 UNL     1      28.476   2.912   5.276  1.00  0.00    -0.059 C 
HETATM   22  C11 UNL     1      28.113   3.558   4.325  1.00  0.00    -0.063 C 
BRANCH  22  23
HETATM   23  C12 UNL     1      27.658   4.356   3.186  1.00  0.00     0.121 C 
HETATM   24  C13 UNL     1      26.168   4.130   3.036  1.00  0.00     0.051 C 
HETATM   25  C14 UNL     1      25.513   5.468   2.931  1.00  0.00     0.004 C 
HETATM   26  C15 UNL     1      26.587   6.519   3.055  1.00  0.00     0.004 C 
HETATM   27  C16 UNL     1      27.828   5.809   3.548  1.00  0.00     0.051 C 
BRANCH  23  28
HETATM   28  O1  UNL     1      28.284   4.019   2.002  1.00  0.00    -0.378 OA
ATOM     29  H1  UNL     1      29.221   3.892   2.099  1.00  0.00     0.211 HD
ENDBRANCH  23  28
ENDBRANCH  22  23
ENDBRANCH   5  21
BRANCH   7  30
HETATM   30  C18 UNL     1      29.215   0.309   4.032  1.00  0.00     0.082 C 
HETATM   31  N5  UNL     1      30.193   0.643   3.209  1.00  0.00    -0.384 N 
HETATM   32  C19 UNL     1      30.030   0.745   1.792  1.00  0.00     0.147 C 
ATOM     33  H5  UNL     1      31.113   0.837   3.605  1.00  0.00     0.160 HD
BRANCH  30  34
HETATM   34  C20 UNL     1      27.909   0.003   3.339  1.00  0.00     0.053 A 
HETATM   35  C21 UNL     1      27.074  -1.115   3.803  1.00  0.00     0.013 A 
HETATM   36  C22 UNL     1      26.640   0.313   4.047  1.00  0.00     0.013 A 
ENDBRANCH  30  34
ENDBRANCH   7  30
TORSDOF 9
ENDMDL
MODEL 3
REMARK VINA RESULT: 1.153235893      0.897      1.525
REMARK  9 active torsions:
REMARK  status: ('A' for Active; 'I' for Inactive)
REMARK    1  A    between atoms: C2_2  and  C3_3 
REMARK    2  A    between atoms: C3_3  and  C4_4 
REMARK    3  A    between atoms: C4_4  and  N1_5 
REMARK    4  A    between atoms: N2_8  and  C7_9 
REMARK    5  A    between atoms: C9_13  and  C10_14 
REMARK    6  A    between atoms: C11_15  and  C12_16 
REMARK    7  A    between atoms: C12_16  and  O1_17 
REMARK    8  A    between atoms: N4_24  and  C18_26 
REMARK    9  A    between atoms: C18_26  and  C20_30 
ROOT
HETATM    1  C7  UNL     1      29.582   1.256   8.006  1.00  0.00     0.681 A 
HETATM    2  N3  UNL     1      29.905   2.562   7.936  1.00  0.00    -0.200 N 
ATOM      3  H3  UNL     1      30.474   2.973   8.677  1.00  0.00     0.183 HD
HETATM    4  C8  UNL     1      29.500   3.331   6.924  1.00  0.00     0.130 A 
HETATM    5  C9  UNL     1      28.719   2.791   5.894  1.00  0.00     0.078 A 
HETATM    6  C17 UNL     1      28.395   1.460   5.974  1.00  0.00     0.142 A 
HETATM    7  N4  UNL     1      27.714   0.895   5.115  1.00  0.00    -0.330 N 
ATOM      8  H4  UNL     1      27.601  -0.085   5.378  1.00  0.00     0.168 HD
HETATM    9  N6  UNL     1      28.851   0.713   7.059  1.00  0.00    -0.175 N 
ATOM     10  H6  UNL     1      28.611  -0.276   7.119  1.00  0.00     0.186 HD
ENDROOT
BRANCH   1  11
HETATM   11  N2  UNL     1      30.039   0.470   9.121  1.00  0.00    -0.214 N 
HETATM   12  C6  UNL     1      31.410   0.547   9.528  1.00  0.00     0.171 C 
HETATM   13  C5  UNL     1      31.488   0.273  11.009  1.00  0.00     0.292 C 
HETATM   14  N1  UNL     1      31.032  -1.077  11.323  1.00  0.00     0.091 N 
HETATM   15  C24 UNL     1      30.077  -1.542  10.382  1.00  0.00     0.292 C 
HETATM   16  C23 UNL     1      29.175  -0.423   9.866  1.00  0.00     0.171 C 
BRANCH  14  17
HETATM   17  C4  UNL     1      30.598  -1.057  12.682  1.00  0.00     0.272 C 
BRANCH  17  18
HETATM   18  C3  UNL     1      29.740   0.124  13.009  1.00  0.00     0.030 C 
BRANCH  18  19
HETATM   19  C2  UNL     1      28.425  -0.330  13.609  1.00  0.00    -0.003 C 
HETATM   20  C1  UNL     1      28.674  -0.914  14.986  1.00  0.00     0.005 C 
ENDBRANCH  18  19
ENDBRANCH  17  18
ENDBRANCH  14  17
ENDBRANCH   1  11
BRANCH   5  21
HETATM   21  C10 UNL     1      28.317   3.664   4.837  1.00  0.00    -0.059 C 
HETATM   22  C11 UNL     1      27.953   4.413   3.966  1.00  0.00    -0.063 C 
BRANCH  22  23
HETATM   23  C12 UNL     1      27.493   5.334   2.925  1.00  0.00     0.121 C 
HETATM   24  C13 UNL     1      26.067   4.960   2.581  1.00  0.00     0.051 C 
HETATM   25  C14 UNL     1      25.247   6.208   2.618  1.00  0.00     0.004 C 
HETATM   26  C15 UNL     1      26.153   7.343   3.023  1.00  0.00     0.004 C 
HETATM   27  C16 UNL     1      27.432   6.713   3.530  1.00  0.00     0.051 C 
BRANCH  23  28
HETATM   28  O1  UNL     1      28.261   5.282   1.778  1.00  0.00    -0.378 OA
ATOM     29  H1  UNL     1      27.865   5.737   1.044  1.00  0.00     0.211 HD
ENDBRANCH  23  28
ENDBRANCH  22  23
ENDBRANCH   5  21
BRANCH   7  30
HETATM   30  C18 UNL     1      27.068   1.106   3.960  1.00  0.00     0.082 C 
HETATM   31  N5  UNL     1      27.720   1.214   2.815  1.00  0.00    -0.384 N 
HETATM   32  C19 UNL     1      27.074   1.439   1.559  1.00  0.00     0.147 C 
ATOM     33  H5  UNL     1      28.736   1.132   2.828  1.00  0.00     0.160 HD
BRANCH  30  34
HETATM   34  C20 UNL     1      25.568   1.201   3.821  1.00  0.00     0.053 A 
HETATM   35  C21 UNL     1      24.835   2.290   4.484  1.00  0.00     0.013 A 
HETATM   36  C22 UNL     1      25.000   2.286   2.981  1.00  0.00     0.013 A 
ENDBRANCH  30  34
ENDBRANCH   7  30
TORSDOF 9
ENDMDL
MODEL 4
REMARK VINA RESULT: 2.143720961      1.572      2.216
REMARK  9 active torsions:
REMARK  status: ('A' for Active; 'I' for Inactive)
REMARK    1  A    between atoms: C2_2  and  C3_3 
REMARK    2  A    between atoms: C3_3  and  C4_4 
REMARK    3  A    between atoms: C4_4  and  N1_5 
REMARK    4  A    between atoms: N2_8  and  C7_9 
REMARK    5  A    between atoms: C9_13  and  C10_14 
REMARK    6  A    between atoms: C11_15  and  C12_16 
REMARK    7  A    between atoms: C12_16  and  O1_17 
REMARK    8  A    between atoms: N4_24  and  C18_26 
REMARK    9  A    between atoms: C18_26  and  C20_30 
ROOT
HETATM    1  C7  UNL     1      29.121   1.103   9.419  1.00  0.00     0.681 A 
HETATM    2  N3  UNL     1      28.688   2.353   9.172  1.00  0.00    -0.200 N 
ATOM      3  H3  UNL     1      28.537   2.990   9.953  1.00  0.00     0.183 HD
HETATM    4  C8  UNL     1      28.449   2.779   7.929  1.00  0.00     0.130 A 
HETATM    5  C9  UNL     1      28.649   1.923   6.838  1.00  0.00     0.078 A 
HETATM    6  C17 UNL     1      29.091   0.651   7.102  1.00  0.00     0.142 A 
HETATM    7  N4  UNL     1      29.298  -0.173   6.207  1.00  0.00    -0.330 N 
ATOM      8  H4  UNL     1      29.619  -1.043   6.631  1.00  0.00     0.168 HD
HETATM    9  N6  UNL     1      29.320   0.271   8.422  1.00  0.00    -0.175 N 
ATOM     10  H6  UNL     1      29.649  -0.674   8.618  1.00  0.00     0.186 HD
ENDROOT
BRANCH   1  11
HETATM   11  N2  UNL     1      29.359   0.690  10.777  1.00  0.00    -0.214 N 
HETATM   12  C6  UNL     1      28.762   1.420  11.855  1.00  0.00     0.171 C 
HETATM   13  C5  UNL     1      28.535   0.475  13.008  1.00  0.00     0.292 C 
HETATM   14  N1  UNL     1      29.796  -0.060  13.512  1.00  0.00     0.091 N 
HETATM   15  C24 UNL     1      30.785  -0.120  12.495  1.00  0.00     0.292 C 
HETATM   16  C23 UNL     1      30.193  -0.442  11.125  1.00  0.00     0.171 C 
BRANCH  14  17
HETATM   17  C4  UNL     1      29.490  -1.302  14.145  1.00  0.00     0.272 C 
BRANCH  17  18
HETATM   18  C3  UNL     1      28.074  -1.391  14.615  1.00  0.00     0.030 C 
BRANCH  18  19
HETATM   19  C2  UNL     1      28.022  -1.439  16.128  1.00  0.00    -0.003 C 
HETATM   20  C1  UNL     1      29.146  -0.596  16.698  1.00  0.00     0.005 C 
ENDBRANCH  18  19
ENDBRANCH  17  18
ENDBRANCH  14  17
ENDBRANCH   1  11
BRANCH   5  21
HETATM   21  C10 UNL     1      28.379   2.437   5.533  1.00  0.00    -0.059 C 
HETATM   22  C11 UNL     1      28.138   2.900   4.446  1.00  0.00    -0.063 C 
BRANCH  22  23
HETATM   23  C12 UNL     1      27.840   3.485   3.138  1.00  0.00     0.121 C 
HETATM   24  C13 UNL     1      26.334   3.557   3.002  1.00  0.00     0.051 C 
HETATM   25  C14 UNL     1      25.982   4.941   2.565  1.00  0.00     0.004 C 
HETATM   26  C15 UNL     1      27.261   5.734   2.469  1.00  0.00     0.004 C 
HETATM   27  C16 UNL     1      28.330   4.910   3.152  1.00  0.00     0.051 C 
BRANCH  23  28
HETATM   28  O1  UNL     1      28.351   2.750   2.086  1.00  0.00    -0.378 OA
ATOM     29  H1  UNL     1      28.174   3.139   1.239  1.00  0.00     0.211 HD
ENDBRANCH  23  28
ENDBRANCH  22  23
ENDBRANCH   5  21
BRANCH   7  30
HETATM   30  C18 UNL     1      29.250  -0.334   4.877  1.00  0.00     0.082 C 
HETATM   31  N5  UNL     1      28.100  -0.378   4.227  1.00  0.00    -0.384 N 
HETATM   32  C19 UNL     1      28.001  -0.547   2.812  1.00  0.00     0.147 C 
ATOM     33  H5  UNL     1      27.238  -0.285   4.765  1.00  0.00     0.160 HD
BRANCH  30  34
HETATM   34  C20 UNL     1      30.463  -0.439   3.983  1.00  0.00     0.053 A 
HETATM   35  C21 UNL     1      31.666  -1.138   4.455  1.00  0.00     0.013 A 
HETATM   36  C22 UNL     1      30.793  -1.759   3.388  1.00  0.00     0.013 A 
ENDBRANCH  30  34
ENDBRANCH   7  30
TORSDOF 9
ENDMDL
