MODEL 1
REMARK VINA RESULT: -7.837844059      0.000      0.000
REMARK  7 active torsions:
REMARK  status: ('A' for Active; 'I' for Inactive)
REMARK    1  A    between atoms: O1_2  and  C2_3 
REMARK    2  A    between atoms: C3_4  and  O2_5 
REMARK    3  A    between atoms: O2_5  and  C4_6 
REMARK    4  A    between atoms: C7_11  and  N2_12 
REMARK    5  A    between atoms: C9_18  and  N4_19 
REMARK    6  A    between atoms: C17_28  and  O3_29 
REMARK    7  A    between atoms: O3_29  and  C18_30 
ROOT
HETATM    1  C2  UNL     1      27.971   1.811   3.699  1.00  0.00     0.136 A 
HETATM    2  C3  UNL     1      27.980   2.839   4.652  1.00  0.00     0.116 A 
HETATM    3  C8  UNL     1      28.505   2.536   5.878  1.00  0.00     0.069 A 
HETATM    4  C9  UNL     1      29.011   1.298   6.207  1.00  0.00     0.036 A 
HETATM    5  C16 UNL     1      28.985   0.325   5.250  1.00  0.00     0.069 A 
HETATM    6  C17 UNL     1      28.459   0.557   3.952  1.00  0.00     0.113 A 
ENDROOT
BRANCH   2   7
HETATM    7  O2  UNL     1      27.469   4.030   4.267  1.00  0.00    -0.290 OA
BRANCH   7   8
HETATM    8  C4  UNL     1      26.205   4.495   4.296  1.00  0.00     0.164 A 
HETATM    9  C5  UNL     1      25.187   3.714   4.773  1.00  0.00     0.074 A 
HETATM   10  C6  UNL     1      23.898   4.261   4.774  1.00  0.00     0.110 A 
HETATM   11  N1  UNL     1      23.674   5.505   4.324  1.00  0.00    -0.202 N 
HETATM   12  C7  UNL     1      24.684   6.256   3.861  1.00  0.00     0.677 A 
ATOM     13  H1  UNL     1      22.726   5.882   4.333  1.00  0.00     0.183 HD
HETATM   14  N3  UNL     1      25.917   5.725   3.862  1.00  0.00    -0.170 N 
ATOM     15  H3  UNL     1      26.683   6.297   3.507  1.00  0.00     0.186 HD
BRANCH  12  16
HETATM   16  N2  UNL     1      24.479   7.475   3.416  1.00  0.00    -0.234 N 
ATOM     17  H22 UNL     1      23.536   7.798   3.197  1.00  0.00     0.174 HD
ATOM     18  H21 UNL     1      25.252   8.126   3.282  1.00  0.00     0.174 HD
ENDBRANCH  12  16
ENDBRANCH   7   8
ENDBRANCH   2   7
BRANCH   1  19
HETATM   19  O1  UNL     1      27.429   2.101   2.430  1.00  0.00    -0.351 OA
HETATM   20  C1  UNL     1      26.146   1.575   2.077  1.00  0.00     0.210 C 
ENDBRANCH   1  19
BRANCH   6  21
HETATM   21  O3  UNL     1      28.489  -0.483   3.086  1.00  0.00    -0.287 OA
BRANCH  21  22
HETATM   22  C18 UNL     1      29.420  -1.263   2.473  1.00  0.00     0.505 C 
HETATM   23  F1  UNL     1      29.948  -2.245   3.336  1.00  0.00    -0.184 F 
HETATM   24  F2  UNL     1      30.554  -0.473   2.161  1.00  0.00    -0.184 F 
ENDBRANCH  21  22
ENDBRANCH   6  21
BRANCH   4  25
HETATM   25  N4  UNL     1      29.544   1.053   7.516  1.00  0.00    -0.374 N 
HETATM   26  C10 UNL     1      30.554   1.910   8.120  1.00  0.00     0.130 C 
HETATM   27  C11 UNL     1      30.696   1.188   9.429  1.00  0.00     0.031 C 
HETATM   28  C12 UNL     1      30.731  -0.269   8.958  1.00  0.00     0.035 C 
HETATM   29  C14 UNL     1      29.241   0.904   9.773  1.00  0.00     0.059 C 
HETATM   30  C13 UNL     1      29.305   0.059   8.490  1.00  0.00     0.108 C 
HETATM   31  C15 UNL     1      28.301   2.065   9.608  1.00  0.00     0.035 C 
HETATM   32 CL1  UNL     1      28.993  -0.078  11.214  1.00  0.00    -0.117 Cl
ENDBRANCH   4  25
TORSDOF 7
ENDMDL
MODEL 2
REMARK VINA RESULT: -7.599146464      0.747      1.272
REMARK  7 active torsions:
REMARK  status: ('A' for Active; 'I' for Inactive)
REMARK    1  A    between atoms: O1_2  and  C2_3 
REMARK    2  A    between atoms: C3_4  and  O2_5 
REMARK    3  A    between atoms: O2_5  and  C4_6 
REMARK    4  A    between atoms: C7_11  and  N2_12 
REMARK    5  A    between atoms: C9_18  and  N4_19 
REMARK    6  A    between atoms: C17_28  and  O3_29 
REMARK    7  A    between atoms: O3_29  and  C18_30 
ROOT
HETATM    1  C2  UNL     1      28.395   1.687   3.805  1.00  0.00     0.136 A 
HETATM    2  C3  UNL     1      28.508   2.751   4.712  1.00  0.00     0.116 A 
HETATM    3  C8  UNL     1      28.922   2.440   5.977  1.00  0.00     0.069 A 
HETATM    4  C9  UNL     1      29.226   1.161   6.387  1.00  0.00     0.036 A 
HETATM    5  C16 UNL     1      29.105   0.153   5.475  1.00  0.00     0.069 A 
HETATM    6  C17 UNL     1      28.682   0.391   4.140  1.00  0.00     0.113 A 
ENDROOT
BRANCH   2   7
HETATM    7  O2  UNL     1      28.195   3.981   4.247  1.00  0.00    -0.290 OA
BRANCH   7   8
HETATM    8  C4  UNL     1      27.008   4.611   4.156  1.00  0.00     0.164 A 
HETATM    9  C5  UNL     1      26.929   5.876   3.637  1.00  0.00     0.074 A 
HETATM   10  C6  UNL     1      25.663   6.471   3.572  1.00  0.00     0.110 A 
HETATM   11  N1  UNL     1      24.571   5.823   4.005  1.00  0.00    -0.202 N 
HETATM   12  C7  UNL     1      24.667   4.584   4.510  1.00  0.00     0.677 A 
ATOM     13  H1  UNL     1      23.659   6.276   3.949  1.00  0.00     0.183 HD
HETATM   14  N3  UNL     1      25.884   4.020   4.569  1.00  0.00    -0.170 N 
ATOM     15  H3  UNL     1      25.955   3.078   4.955  1.00  0.00     0.186 HD
BRANCH  12  16
HETATM   16  N2  UNL     1      23.606   3.937   4.937  1.00  0.00    -0.234 N 
ATOM     17  H22 UNL     1      22.770   3.869   4.357  1.00  0.00     0.174 HD
ATOM     18  H21 UNL     1      23.593   3.489   5.853  1.00  0.00     0.174 HD
ENDBRANCH  12  16
ENDBRANCH   7   8
ENDBRANCH   2   7
BRANCH   1  19
HETATM   19  O1  UNL     1      27.963   1.986   2.497  1.00  0.00    -0.351 OA
HETATM   20  C1  UNL     1      26.618   1.686   2.115  1.00  0.00     0.210 C 
ENDBRANCH   1  19
BRANCH   6  21
HETATM   21  O3  UNL     1      28.602  -0.686   3.323  1.00  0.00    -0.287 OA
BRANCH  21  22
HETATM   22  C18 UNL     1      29.437  -1.439   2.557  1.00  0.00     0.505 C 
HETATM   23  F1  UNL     1      30.110  -2.424   3.308  1.00  0.00    -0.184 F 
HETATM   24  F2  UNL     1      30.494  -0.623   2.084  1.00  0.00    -0.184 F 
ENDBRANCH  21  22
ENDBRANCH   6  21
BRANCH   4  25
HETATM   25  N4  UNL     1      29.653   0.909   7.733  1.00  0.00    -0.374 N 
HETATM   26  C10 UNL     1      30.692   1.696   8.382  1.00  0.00     0.130 C 
HETATM   27  C11 UNL     1      30.690   1.002   9.714  1.00  0.00     0.031 C 
HETATM   28  C12 UNL     1      30.631  -0.466   9.280  1.00  0.00     0.035 C 
HETATM   29  C14 UNL     1      29.197   0.850   9.969  1.00  0.00     0.059 C 
HETATM   30  C13 UNL     1      29.270  -0.033   8.712  1.00  0.00     0.108 C 
HETATM   31  C15 UNL     1      28.372   2.080   9.717  1.00  0.00     0.035 C 
HETATM   32 CL1  UNL     1      28.778  -0.066  11.413  1.00  0.00    -0.117 Cl
ENDBRANCH   4  25
TORSDOF 7
ENDMDL
MODEL 3
REMARK VINA RESULT: -7.553127538      2.725      6.634
REMARK  7 active torsions:
REMARK  status: ('A' for Active; 'I' for Inactive)
REMARK    1  A    between atoms: O1_2  and  C2_3 
REMARK    2  A    between atoms: C3_4  and  O2_5 
REMARK    3  A    between atoms: O2_5  and  C4_6 
REMARK    4  A    between atoms: C7_11  and  N2_12 
REMARK    5  A    between atoms: C9_18  and  N4_19 
REMARK    6  A    between atoms: C17_28  and  O3_29 
REMARK    7  A    between atoms: O3_29  and  C18_30 
ROOT
HETATM    1  C2  UNL     1      29.062   0.999   5.274  1.00  0.00     0.136 A 
HETATM    2  C3  UNL     1      29.077   2.160   6.062  1.00  0.00     0.116 A 
HETATM    3  C8  UNL     1      28.423   3.251   5.561  1.00  0.00     0.069 A 
HETATM    4  C9  UNL     1      27.766   3.257   4.350  1.00  0.00     0.036 A 
HETATM    5  C16 UNL     1      27.774   2.107   3.615  1.00  0.00     0.069 A 
HETATM    6  C17 UNL     1      28.429   0.930   4.063  1.00  0.00     0.113 A 
ENDROOT
BRANCH   2   7
HETATM    7  O2  UNL     1      29.738   2.087   7.239  1.00  0.00    -0.290 OA
BRANCH   7   8
HETATM    8  C4  UNL     1      29.417   1.469   8.391  1.00  0.00     0.164 A 
HETATM    9  C5  UNL     1      28.602   2.082   9.306  1.00  0.00     0.074 A 
HETATM   10  C6  UNL     1      28.310   1.381  10.482  1.00  0.00     0.110 A 
HETATM   11  N1  UNL     1      28.811   0.157  10.702  1.00  0.00    -0.202 N 
HETATM   12  C7  UNL     1      29.607  -0.428   9.795  1.00  0.00     0.677 A 
ATOM     13  H1  UNL     1      28.585  -0.334  11.567  1.00  0.00     0.183 HD
HETATM   14  N3  UNL     1      29.884   0.249   8.669  1.00  0.00    -0.170 N 
ATOM     15  H3  UNL     1      30.491  -0.198   7.982  1.00  0.00     0.186 HD
BRANCH  12  16
HETATM   16  N2  UNL     1      30.105  -1.627   9.997  1.00  0.00    -0.234 N 
ATOM     17  H22 UNL     1      30.602  -1.846  10.860  1.00  0.00     0.174 HD
ATOM     18  H21 UNL     1      30.006  -2.366   9.300  1.00  0.00     0.174 HD
ENDBRANCH  12  16
ENDBRANCH   7   8
ENDBRANCH   2   7
BRANCH   1  19
HETATM   19  O1  UNL     1      29.737  -0.136   5.771  1.00  0.00    -0.351 OA
HETATM   20  C1  UNL     1      31.096  -0.366   5.390  1.00  0.00     0.210 C 
ENDBRANCH   1  19
BRANCH   6  21
HETATM   21  O3  UNL     1      28.366  -0.151   3.250  1.00  0.00    -0.287 OA
BRANCH  21  22
HETATM   22  C18 UNL     1      29.165  -0.788   2.351  1.00  0.00     0.505 C 
HETATM   23  F1  UNL     1      29.756  -1.949   2.889  1.00  0.00    -0.184 F 
HETATM   24  F2  UNL     1      30.283   0.032   2.061  1.00  0.00    -0.184 F 
ENDBRANCH  21  22
ENDBRANCH   6  21
BRANCH   4  25
HETATM   25  N4  UNL     1      27.102   4.442   3.888  1.00  0.00    -0.374 N 
HETATM   26  C10 UNL     1      26.866   4.702   2.475  1.00  0.00     0.130 C 
HETATM   27  C11 UNL     1      26.158   6.020   2.613  1.00  0.00     0.031 C 
HETATM   28  C12 UNL     1      27.038   6.717   3.655  1.00  0.00     0.035 C 
HETATM   29  C14 UNL     1      25.226   5.737   3.783  1.00  0.00     0.059 C 
HETATM   30  C13 UNL     1      26.550   5.563   4.545  1.00  0.00     0.108 C 
HETATM   31  C15 UNL     1      24.472   4.440   3.707  1.00  0.00     0.035 C 
HETATM   32 CL1  UNL     1      24.300   7.124   4.349  1.00  0.00    -0.117 Cl
ENDBRANCH   4  25
TORSDOF 7
ENDMDL
MODEL 4
REMARK VINA RESULT: -7.480197181      2.809      6.697
REMARK  7 active torsions:
REMARK  status: ('A' for Active; 'I' for Inactive)
REMARK    1  A    between atoms: O1_2  and  C2_3 
REMARK    2  A    between atoms: C3_4  and  O2_5 
REMARK    3  A    between atoms: O2_5  and  C4_6 
REMARK    4  A    between atoms: C7_11  and  N2_12 
REMARK    5  A    between atoms: C9_18  and  N4_19 
REMARK    6  A    between atoms: C17_28  and  O3_29 
REMARK    7  A    between atoms: O3_29  and  C18_30 
ROOT
HETATM    1  C2  UNL     1      29.228   0.654   5.845  1.00  0.00     0.136 A 
HETATM    2  C3  UNL     1      28.981   1.839   6.554  1.00  0.00     0.116 A 
HETATM    3  C8  UNL     1      28.049   2.688   6.024  1.00  0.00     0.069 A 
HETATM    4  C9  UNL     1      27.361   2.435   4.859  1.00  0.00     0.036 A 
HETATM    5  C16 UNL     1      27.629   1.270   4.200  1.00  0.00     0.069 A 
HETATM    6  C17 UNL     1      28.582   0.333   4.682  1.00  0.00     0.113 A 
ENDROOT
BRANCH   2   7
HETATM    7  O2  UNL     1      29.689   2.027   7.689  1.00  0.00    -0.290 OA
BRANCH   7   8
HETATM    8  C4  UNL     1      29.524   1.514   8.924  1.00  0.00     0.164 A 
HETATM    9  C5  UNL     1      28.387   1.779   9.641  1.00  0.00     0.074 A 
HETATM   10  C6  UNL     1      28.282   1.213  10.917  1.00  0.00     0.110 A 
HETATM   11  N1  UNL     1      29.260   0.443  11.416  1.00  0.00    -0.202 N 
HETATM   12  C7  UNL     1      30.366   0.194  10.700  1.00  0.00     0.677 A 
ATOM     13  H1  UNL     1      29.162   0.043  12.349  1.00  0.00     0.183 HD
HETATM   14  N3  UNL     1      30.461   0.740   9.476  1.00  0.00    -0.170 N 
ATOM     15  H3  UNL     1      31.305   0.551   8.934  1.00  0.00     0.186 HD
BRANCH  12  16
HETATM   16  N2  UNL     1      31.332  -0.558  11.176  1.00  0.00    -0.234 N 
ATOM     17  H22 UNL     1      31.586  -0.518  12.163  1.00  0.00     0.174 HD
ATOM     18  H21 UNL     1      31.849  -1.200  10.574  1.00  0.00     0.174 HD
ENDBRANCH  12  16
ENDBRANCH   7   8
ENDBRANCH   2   7
BRANCH   1  19
HETATM   19  O1  UNL     1      30.190  -0.233   6.371  1.00  0.00    -0.351 OA
HETATM   20  C1  UNL     1      31.503  -0.262   5.803  1.00  0.00     0.210 C 
ENDBRANCH   1  19
BRANCH   6  21
HETATM   21  O3  UNL     1      28.761  -0.789   3.946  1.00  0.00    -0.287 OA
BRANCH  21  22
HETATM   22  C18 UNL     1      29.464  -1.176   2.847  1.00  0.00     0.505 C 
HETATM   23  F1  UNL     1      30.490  -2.089   3.161  1.00  0.00    -0.184 F 
HETATM   24  F2  UNL     1      30.176  -0.062   2.336  1.00  0.00    -0.184 F 
ENDBRANCH  21  22
ENDBRANCH   6  21
BRANCH   4  25
HETATM   25  N4  UNL     1      26.397   3.375   4.362  1.00  0.00    -0.374 N 
HETATM   26  C10 UNL     1      26.433   3.881   2.998  1.00  0.00     0.130 C 
HETATM   27  C11 UNL     1      25.226   4.773   3.066  1.00  0.00     0.031 C 
HETATM   28  C12 UNL     1      25.440   5.452   4.422  1.00  0.00     0.035 C 
HETATM   29  C14 UNL     1      24.242   3.886   3.814  1.00  0.00     0.059 C 
HETATM   30  C13 UNL     1      25.280   4.015   4.941  1.00  0.00     0.108 C 
HETATM   31  C15 UNL     1      24.150   2.468   3.324  1.00  0.00     0.035 C 
HETATM   32 CL1  UNL     1      22.708   4.652   4.220  1.00  0.00    -0.117 Cl
ENDBRANCH   4  25
TORSDOF 7
ENDMDL
MODEL 5
REMARK VINA RESULT: -7.427184343      0.946      1.358
REMARK  7 active torsions:
REMARK  status: ('A' for Active; 'I' for Inactive)
REMARK    1  A    between atoms: O1_2  and  C2_3 
REMARK    2  A    between atoms: C3_4  and  O2_5 
REMARK    3  A    between atoms: O2_5  and  C4_6 
REMARK    4  A    between atoms: C7_11  and  N2_12 
REMARK    5  A    between atoms: C9_18  and  N4_19 
REMARK    6  A    between atoms: C17_28  and  O3_29 
REMARK    7  A    between atoms: O3_29  and  C18_30 
ROOT
HETATM    1  C2  UNL     1      28.176   1.460   3.692  1.00  0.00     0.136 A 
HETATM    2  C3  UNL     1      27.579   2.165   4.748  1.00  0.00     0.116 A 
HETATM    3  C8  UNL     1      28.090   1.949   5.998  1.00  0.00     0.069 A 
HETATM    4  C9  UNL     1      29.139   1.094   6.256  1.00  0.00     0.036 A 
HETATM    5  C16 UNL     1      29.694   0.429   5.201  1.00  0.00     0.069 A 
HETATM    6  C17 UNL     1      29.223   0.597   3.872  1.00  0.00     0.113 A 
ENDROOT
BRANCH   2   7
HETATM    7  O2  UNL     1      26.555   2.987   4.428  1.00  0.00    -0.290 OA
BRANCH   7   8
HETATM    8  C4  UNL     1      26.534   4.311   4.183  1.00  0.00     0.164 A 
HETATM    9  C5  UNL     1      27.685   4.977   3.854  1.00  0.00     0.074 A 
HETATM   10  C6  UNL     1      27.589   6.353   3.613  1.00  0.00     0.110 A 
HETATM   11  N1  UNL     1      26.413   6.991   3.704  1.00  0.00    -0.202 N 
HETATM   12  C7  UNL     1      25.296   6.323   4.027  1.00  0.00     0.677 A 
ATOM     13  H1  UNL     1      26.368   7.995   3.525  1.00  0.00     0.183 HD
HETATM   14  N3  UNL     1      25.395   5.004   4.257  1.00  0.00    -0.170 N 
ATOM     15  H3  UNL     1      24.544   4.499   4.505  1.00  0.00     0.186 HD
BRANCH  12  16
HETATM   16  N2  UNL     1      24.138   6.936   4.119  1.00  0.00    -0.234 N 
ATOM     17  H22 UNL     1      23.985   7.834   3.659  1.00  0.00     0.174 HD
ATOM     18  H21 UNL     1      23.366   6.531   4.649  1.00  0.00     0.174 HD
ENDBRANCH  12  16
ENDBRANCH   7   8
ENDBRANCH   2   7
BRANCH   1  19
HETATM   19  O1  UNL     1      27.659   1.665   2.396  1.00  0.00    -0.351 OA
HETATM   20  C1  UNL     1      26.317   1.265   2.105  1.00  0.00     0.210 C 
ENDBRANCH   1  19
BRANCH   6  21
HETATM   21  O3  UNL     1      29.853  -0.113   2.906  1.00  0.00    -0.287 OA
BRANCH  21  22
HETATM   22  C18 UNL     1      30.085  -1.418   2.599  1.00  0.00     0.505 C 
HETATM   23  F1  UNL     1      29.266  -2.296   3.337  1.00  0.00    -0.184 F 
HETATM   24  F2  UNL     1      31.390  -1.770   3.025  1.00  0.00    -0.184 F 
ENDBRANCH  21  22
ENDBRANCH   6  21
BRANCH   4  25
HETATM   25  N4  UNL     1      29.622   0.916   7.595  1.00  0.00    -0.374 N 
HETATM   26  C10 UNL     1      30.622   1.794   8.186  1.00  0.00     0.130 C 
HETATM   27  C11 UNL     1      30.707   1.145   9.538  1.00  0.00     0.031 C 
HETATM   28  C12 UNL     1      30.738  -0.336   9.151  1.00  0.00     0.035 C 
HETATM   29  C14 UNL     1      29.237   0.899   9.844  1.00  0.00     0.059 C 
HETATM   30  C13 UNL     1      29.334  -0.017   8.614  1.00  0.00     0.108 C 
HETATM   31  C15 UNL     1      28.320   2.061   9.581  1.00  0.00     0.035 C 
HETATM   32 CL1  UNL     1      28.925   0.004  11.329  1.00  0.00    -0.117 Cl
ENDBRANCH   4  25
TORSDOF 7
ENDMDL
