MODEL 1
REMARK VINA RESULT: -7.879994953      0.000      0.000
REMARK  7 active torsions:
REMARK  status: ('A' for Active; 'I' for Inactive)
REMARK    1  A    between atoms: C2_2  and  C3_3 
REMARK    2  A    between atoms: C2_2  and  N1_5 
REMARK       I    between atoms: N1_5  and  C4_7 
REMARK    3  A    between atoms: C4_7  and  C5_9 
REMARK    4  A    between atoms: C6_12  and  C7_13 
REMARK    5  A    between atoms: C7_13  and  O3_14 
REMARK    6  A    between atoms: C8_17  and  C9_18 
REMARK    7  A    between atoms: C9_18  and  C10_20 
ROOT
HETATM    1  C5  UNL     1      29.422   0.937   5.494  1.00  0.00     0.141 A 
HETATM    2  N2  UNL     1      29.932  -0.251   5.019  1.00  0.00    -0.332 N 
ATOM      3  H2  UNL     1      30.403  -0.962   5.579  1.00  0.00     0.168 HD
HETATM    4  C6  UNL     1      29.710  -0.320   3.705  1.00  0.00     0.148 A 
HETATM    5  O4  UNL     1      29.095   0.771   3.372  1.00  0.00    -0.289 OA
HETATM    6  C8  UNL     1      28.886   1.584   4.407  1.00  0.00     0.160 A 
ENDROOT
BRANCH   6   7
HETATM    7  C9  UNL     1      28.217   2.876   4.280  1.00  0.00     0.222 C 
HETATM    8  O5  UNL     1      28.832   3.936   4.291  1.00  0.00    -0.284 OA
BRANCH   7   9
HETATM    9  C10 UNL     1      26.725   2.879   4.129  1.00  0.00     0.070 A 
HETATM   10  C11 UNL     1      26.026   1.702   4.129  1.00  0.00     0.092 A 
HETATM   11 CL1  UNL     1      26.691   0.066   4.305  1.00  0.00    -0.075 Cl
HETATM   12  S1  UNL     1      24.417   2.209   3.948  1.00  0.00    -0.063 SA
HETATM   13  C12 UNL     1      24.660   3.892   3.875  1.00  0.00     0.099 A 
HETATM   14 CL2  UNL     1      23.470   5.196   3.684  1.00  0.00    -0.074 Cl
HETATM   15  C13 UNL     1      26.013   4.016   3.996  1.00  0.00     0.079 A 
HETATM   16 CL3  UNL     1      26.754   5.651   3.960  1.00  0.00    -0.081 Cl
ENDBRANCH   7   9
ENDBRANCH   6   7
BRANCH   1  17
HETATM   17  C4  UNL     1      29.506   1.438   6.843  1.00  0.00     0.271 C 
HETATM   18  N1  UNL     1      29.625   0.599   8.007  1.00  0.00    -0.345 N 
ATOM     19  H1  UNL     1      29.653  -0.414   7.888  1.00  0.00     0.163 HD
HETATM   20  O2  UNL     1      29.493   2.688   7.059  1.00  0.00    -0.266 OA
BRANCH  18  21
HETATM   21  C2  UNL     1      29.705   1.153   9.344  1.00  0.00     0.142 C 
HETATM   22  C1  UNL     1      28.387   1.565   9.907  1.00  0.00     0.039 C 
BRANCH  21  23
HETATM   23  C3  UNL     1      30.381   0.135  10.237  1.00  0.00     0.255 C 
HETATM   24  O1  UNL     1      30.212   0.137  11.440  1.00  0.00    -0.305 OA
ENDBRANCH  21  23
ENDBRANCH  18  21
ENDBRANCH   1  17
BRANCH   4  25
HETATM   25  C7  UNL     1      30.094  -1.450   2.784  1.00  0.00     0.248 C 
BRANCH  25  26
HETATM   26  O3  UNL     1      31.306  -1.972   3.142  1.00  0.00    -0.393 OA
ATOM     27  H3  UNL     1      31.823  -2.177   2.371  1.00  0.00     0.210 HD
ENDBRANCH  25  26
ENDBRANCH   4  25
TORSDOF 7
ENDMDL
MODEL 2
REMARK VINA RESULT: -7.661186183      1.296      4.450
REMARK  7 active torsions:
REMARK  status: ('A' for Active; 'I' for Inactive)
REMARK    1  A    between atoms: C2_2  and  C3_3 
REMARK    2  A    between atoms: C2_2  and  N1_5 
REMARK       I    between atoms: N1_5  and  C4_7 
REMARK    3  A    between atoms: C4_7  and  C5_9 
REMARK    4  A    between atoms: C6_12  and  C7_13 
REMARK    5  A    between atoms: C7_13  and  O3_14 
REMARK    6  A    between atoms: C8_17  and  C9_18 
REMARK    7  A    between atoms: C9_18  and  C10_20 
ROOT
HETATM    1  C5  UNL     1      29.466   1.458   5.647  1.00  0.00     0.141 A 
HETATM    2  N2  UNL     1      29.649   1.194   6.986  1.00  0.00    -0.332 N 
ATOM      3  H2  UNL     1      30.286   0.498   7.373  1.00  0.00     0.168 HD
HETATM    4  C6  UNL     1      28.855   2.000   7.695  1.00  0.00     0.148 A 
HETATM    5  O4  UNL     1      28.204   2.728   6.844  1.00  0.00    -0.289 OA
HETATM    6  C8  UNL     1      28.523   2.454   5.579  1.00  0.00     0.160 A 
ENDROOT
BRANCH   6   7
HETATM    7  C9  UNL     1      27.917   3.141   4.441  1.00  0.00     0.222 C 
HETATM    8  O5  UNL     1      28.579   3.786   3.637  1.00  0.00    -0.284 OA
BRANCH   7   9
HETATM    9  C10 UNL     1      26.431   3.035   4.271  1.00  0.00     0.070 A 
HETATM   10  C11 UNL     1      25.829   1.809   4.169  1.00  0.00     0.092 A 
HETATM   11 CL1  UNL     1      26.625   0.224   4.224  1.00  0.00    -0.075 Cl
HETATM   12  S1  UNL     1      24.186   2.198   4.007  1.00  0.00    -0.063 SA
HETATM   13  C12 UNL     1      24.291   3.895   4.070  1.00  0.00     0.099 A 
HETATM   14 CL2  UNL     1      23.000   5.110   3.967  1.00  0.00    -0.074 Cl
HETATM   15  C13 UNL     1      25.629   4.117   4.218  1.00  0.00     0.079 A 
HETATM   16 CL3  UNL     1      26.234   5.805   4.321  1.00  0.00    -0.081 Cl
ENDBRANCH   7   9
ENDBRANCH   6   7
BRANCH   1  17
HETATM   17  C4  UNL     1      30.078   0.771   4.537  1.00  0.00     0.271 C 
HETATM   18  N1  UNL     1      29.902  -0.632   4.264  1.00  0.00    -0.345 N 
ATOM     19  H1  UNL     1      29.311  -1.187   4.883  1.00  0.00     0.163 HD
HETATM   20  O2  UNL     1      30.811   1.408   3.721  1.00  0.00    -0.266 OA
BRANCH  18  21
HETATM   21  C2  UNL     1      30.541  -1.277   3.134  1.00  0.00     0.142 C 
HETATM   22  C1  UNL     1      30.966  -2.681   3.402  1.00  0.00     0.039 C 
BRANCH  21  23
HETATM   23  C3  UNL     1      29.594  -1.213   1.957  1.00  0.00     0.255 C 
HETATM   24  O1  UNL     1      28.816  -0.289   1.819  1.00  0.00    -0.305 OA
ENDBRANCH  21  23
ENDBRANCH  18  21
ENDBRANCH   1  17
BRANCH   4  25
HETATM   25  C7  UNL     1      28.740   2.057   9.198  1.00  0.00     0.248 C 
BRANCH  25  26
HETATM   26  O3  UNL     1      29.491   1.071   9.776  1.00  0.00    -0.393 OA
ATOM     27  H3  UNL     1      30.169   1.445  10.326  1.00  0.00     0.210 HD
ENDBRANCH  25  26
ENDBRANCH   4  25
TORSDOF 7
ENDMDL
MODEL 3
REMARK VINA RESULT: -7.390353585      3.465      5.927
REMARK  7 active torsions:
REMARK  status: ('A' for Active; 'I' for Inactive)
REMARK    1  A    between atoms: C2_2  and  C3_3 
REMARK    2  A    between atoms: C2_2  and  N1_5 
REMARK       I    between atoms: N1_5  and  C4_7 
REMARK    3  A    between atoms: C4_7  and  C5_9 
REMARK    4  A    between atoms: C6_12  and  C7_13 
REMARK    5  A    between atoms: C7_13  and  O3_14 
REMARK    6  A    between atoms: C8_17  and  C9_18 
REMARK    7  A    between atoms: C9_18  and  C10_20 
ROOT
HETATM    1  C5  UNL     1      27.922   1.978   4.446  1.00  0.00     0.141 A 
HETATM    2  N2  UNL     1      27.799   0.954   3.532  1.00  0.00    -0.332 N 
ATOM      3  H2  UNL     1      27.169   0.947   2.730  1.00  0.00     0.168 HD
HETATM    4  C6  UNL     1      28.640  -0.026   3.868  1.00  0.00     0.148 A 
HETATM    5  O4  UNL     1      29.256   0.360   4.941  1.00  0.00    -0.289 OA
HETATM    6  C8  UNL     1      28.870   1.569   5.352  1.00  0.00     0.160 A 
ENDROOT
BRANCH   6   7
HETATM    7  C9  UNL     1      29.418   2.215   6.542  1.00  0.00     0.222 C 
HETATM    8  O5  UNL     1      29.717   3.402   6.563  1.00  0.00    -0.284 OA
BRANCH   7   9
HETATM    9  C10 UNL     1      29.610   1.374   7.768  1.00  0.00     0.070 A 
HETATM   10  C11 UNL     1      30.489   0.324   7.759  1.00  0.00     0.092 A 
HETATM   11 CL1  UNL     1      31.507  -0.204   6.404  1.00  0.00    -0.075 Cl
HETATM   12  S1  UNL     1      30.368  -0.295   9.333  1.00  0.00    -0.063 SA
HETATM   13  C12 UNL     1      29.212   0.780   9.969  1.00  0.00     0.099 A 
HETATM   14 CL2  UNL     1      28.498   0.837  11.594  1.00  0.00    -0.074 Cl
HETATM   15  C13 UNL     1      28.947   1.607   8.918  1.00  0.00     0.079 A 
HETATM   16 CL3  UNL     1      27.746   2.927   9.117  1.00  0.00    -0.081 Cl
ENDBRANCH   7   9
ENDBRANCH   6   7
BRANCH   1  17
HETATM   17  C4  UNL     1      27.152   3.195   4.492  1.00  0.00     0.271 C 
HETATM   18  N1  UNL     1      25.723   3.237   4.668  1.00  0.00    -0.345 N 
ATOM     19  H1  UNL     1      25.210   2.362   4.768  1.00  0.00     0.163 HD
HETATM   20  O2  UNL     1      27.732   4.319   4.391  1.00  0.00    -0.266 OA
BRANCH  18  21
HETATM   21  C2  UNL     1      24.994   4.489   4.706  1.00  0.00     0.142 C 
HETATM   22  C1  UNL     1      25.244   5.369   3.528  1.00  0.00     0.039 C 
BRANCH  21  23
HETATM   23  C3  UNL     1      23.521   4.174   4.844  1.00  0.00     0.255 C 
HETATM   24  O1  UNL     1      22.709   4.579   4.036  1.00  0.00    -0.305 OA
ENDBRANCH  21  23
ENDBRANCH  18  21
ENDBRANCH   1  17
BRANCH   4  25
HETATM   25  C7  UNL     1      28.841  -1.331   3.139  1.00  0.00     0.248 C 
BRANCH  25  26
HETATM   26  O3  UNL     1      29.994  -1.939   3.549  1.00  0.00    -0.393 OA
ATOM     27  H3  UNL     1      30.551  -2.138   2.805  1.00  0.00     0.210 HD
ENDBRANCH  25  26
ENDBRANCH   4  25
TORSDOF 7
ENDMDL
MODEL 4
REMARK VINA RESULT: -7.364815232      1.448      4.407
REMARK  7 active torsions:
REMARK  status: ('A' for Active; 'I' for Inactive)
REMARK    1  A    between atoms: C2_2  and  C3_3 
REMARK    2  A    between atoms: C2_2  and  N1_5 
REMARK       I    between atoms: N1_5  and  C4_7 
REMARK    3  A    between atoms: C4_7  and  C5_9 
REMARK    4  A    between atoms: C6_12  and  C7_13 
REMARK    5  A    between atoms: C7_13  and  O3_14 
REMARK    6  A    between atoms: C8_17  and  C9_18 
REMARK    7  A    between atoms: C9_18  and  C10_20 
ROOT
HETATM    1  C5  UNL     1      29.208   1.403   5.311  1.00  0.00     0.141 A 
HETATM    2  N2  UNL     1      29.419   1.201   6.657  1.00  0.00    -0.332 N 
ATOM      3  H2  UNL     1      29.925   0.417   7.068  1.00  0.00     0.168 HD
HETATM    4  C6  UNL     1      28.852   2.201   7.336  1.00  0.00     0.148 A 
HETATM    5  O4  UNL     1      28.309   2.987   6.460  1.00  0.00    -0.289 OA
HETATM    6  C8  UNL     1      28.484   2.566   5.208  1.00  0.00     0.160 A 
ENDROOT
BRANCH   6   7
HETATM    7  C9  UNL     1      27.958   3.282   4.049  1.00  0.00     0.222 C 
HETATM    8  O5  UNL     1      28.633   3.496   3.049  1.00  0.00    -0.284 OA
BRANCH   7   9
HETATM    9  C10 UNL     1      26.538   3.761   4.107  1.00  0.00     0.070 A 
HETATM   10  C11 UNL     1      25.507   2.864   4.194  1.00  0.00     0.092 A 
HETATM   11 CL1  UNL     1      25.635   1.095   4.259  1.00  0.00    -0.075 Cl
HETATM   12  S1  UNL     1      24.133   3.858   4.243  1.00  0.00    -0.063 SA
HETATM   13  C12 UNL     1      24.886   5.381   4.153  1.00  0.00     0.099 A 
HETATM   14 CL2  UNL     1      24.158   7.001   4.142  1.00  0.00    -0.074 Cl
HETATM   15  C13 UNL     1      26.212   5.068   4.085  1.00  0.00     0.079 A 
HETATM   16 CL3  UNL     1      27.423   6.388   3.962  1.00  0.00    -0.081 Cl
ENDBRANCH   7   9
ENDBRANCH   6   7
BRANCH   1  17
HETATM   17  C4  UNL     1      29.595   0.528   4.232  1.00  0.00     0.271 C 
HETATM   18  N1  UNL     1      29.070  -0.800   4.046  1.00  0.00    -0.345 N 
ATOM     19  H1  UNL     1      28.381  -1.158   4.707  1.00  0.00     0.163 HD
HETATM   20  O2  UNL     1      30.434   0.920   3.366  1.00  0.00    -0.266 OA
BRANCH  18  21
HETATM   21  C2  UNL     1      29.493  -1.641   2.945  1.00  0.00     0.142 C 
HETATM   22  C1  UNL     1      29.419  -0.974   1.613  1.00  0.00     0.039 C 
BRANCH  21  23
HETATM   23  C3  UNL     1      30.898  -2.123   3.232  1.00  0.00     0.255 C 
HETATM   24  O1  UNL     1      31.127  -3.289   3.488  1.00  0.00    -0.305 OA
ENDBRANCH  21  23
ENDBRANCH  18  21
ENDBRANCH   1  17
BRANCH   4  25
HETATM   25  C7  UNL     1      28.848   2.385   8.832  1.00  0.00     0.248 C 
BRANCH  25  26
HETATM   26  O3  UNL     1      29.421   1.309   9.451  1.00  0.00    -0.393 OA
ATOM     27  H3  UNL     1      30.206   1.570   9.919  1.00  0.00     0.210 HD
ENDBRANCH  25  26
ENDBRANCH   4  25
TORSDOF 7
ENDMDL
MODEL 5
REMARK VINA RESULT: -7.206611713      1.063      2.032
REMARK  7 active torsions:
REMARK  status: ('A' for Active; 'I' for Inactive)
REMARK    1  A    between atoms: C2_2  and  C3_3 
REMARK    2  A    between atoms: C2_2  and  N1_5 
REMARK       I    between atoms: N1_5  and  C4_7 
REMARK    3  A    between atoms: C4_7  and  C5_9 
REMARK    4  A    between atoms: C6_12  and  C7_13 
REMARK    5  A    between atoms: C7_13  and  O3_14 
REMARK    6  A    between atoms: C8_17  and  C9_18 
REMARK    7  A    between atoms: C9_18  and  C10_20 
ROOT
HETATM    1  C5  UNL     1      29.367   1.128   5.637  1.00  0.00     0.141 A 
HETATM    2  N2  UNL     1      29.672  -0.087   5.064  1.00  0.00    -0.332 N 
ATOM      3  H2  UNL     1      30.003  -0.913   5.563  1.00  0.00     0.168 HD
HETATM    4  C6  UNL     1      29.465  -0.006   3.747  1.00  0.00     0.148 A 
HETATM    5  O4  UNL     1      29.054   1.199   3.507  1.00  0.00    -0.289 OA
HETATM    6  C8  UNL     1      28.971   1.947   4.607  1.00  0.00     0.160 A 
ENDROOT
BRANCH   6   7
HETATM    7  C9  UNL     1      28.538   3.342   4.588  1.00  0.00     0.222 C 
HETATM    8  O5  UNL     1      29.295   4.266   4.860  1.00  0.00    -0.284 OA
BRANCH   7   9
HETATM    9  C10 UNL     1      27.113   3.626   4.218  1.00  0.00     0.070 A 
HETATM   10  C11 UNL     1      26.713   4.904   3.931  1.00  0.00     0.092 A 
HETATM   11 CL1  UNL     1      27.724   6.363   3.928  1.00  0.00    -0.075 Cl
HETATM   12  S1  UNL     1      25.066   4.721   3.569  1.00  0.00    -0.063 SA
HETATM   13  C12 UNL     1      24.916   3.040   3.788  1.00  0.00     0.099 A 
HETATM   14 CL2  UNL     1      23.485   2.002   3.611  1.00  0.00    -0.074 Cl
HETATM   15  C13 UNL     1      26.177   2.660   4.144  1.00  0.00     0.079 A 
HETATM   16 CL3  UNL     1      26.508   0.931   4.498  1.00  0.00    -0.081 Cl
ENDBRANCH   7   9
ENDBRANCH   6   7
BRANCH   1  17
HETATM   17  C4  UNL     1      29.513   1.492   7.023  1.00  0.00     0.271 C 
HETATM   18  N1  UNL     1      29.533   0.544   8.107  1.00  0.00    -0.345 N 
ATOM     19  H1  UNL     1      29.440  -0.450   7.897  1.00  0.00     0.163 HD
HETATM   20  O2  UNL     1      29.649   2.710   7.349  1.00  0.00    -0.266 OA
BRANCH  18  21
HETATM   21  C2  UNL     1      29.681   0.962   9.486  1.00  0.00     0.142 C 
HETATM   22  C1  UNL     1      28.410   1.420  10.118  1.00  0.00     0.039 C 
BRANCH  21  23
HETATM   23  C3  UNL     1      30.290  -0.184  10.264  1.00  0.00     0.255 C 
HETATM   24  O1  UNL     1      30.749  -0.020  11.378  1.00  0.00    -0.305 OA
ENDBRANCH  21  23
ENDBRANCH  18  21
ENDBRANCH   1  17
BRANCH   4  25
HETATM   25  C7  UNL     1      29.663  -1.106   2.735  1.00  0.00     0.248 C 
BRANCH  25  26
HETATM   26  O3  UNL     1      30.081  -2.255   3.347  1.00  0.00    -0.393 OA
ATOM     27  H3  UNL     1      30.060  -2.157   4.292  1.00  0.00     0.210 HD
ENDBRANCH  25  26
ENDBRANCH   4  25
TORSDOF 7
ENDMDL
