MODEL 1
REMARK VINA RESULT: -7.922056288      0.000      0.000
REMARK  7 active torsions:
REMARK  status: ('A' for Active; 'I' for Inactive)
REMARK    1  A    between atoms: N1_2  and  C3_4 
REMARK    2  A    between atoms: C3_4  and  C4_5 
REMARK    3  A    between atoms: C4_5  and  N2_6 
REMARK    4  A    between atoms: N2_6  and  C5_8 
REMARK    5  A    between atoms: C6_13  and  S1_14 
REMARK    6  A    between atoms: S1_14  and  C7_15 
REMARK    7  A    between atoms: C7_15  and  C8_16 
ROOT
HETATM    1  C5  UNL     1      29.919   1.349   6.475  1.00  0.00     0.134 A 
HETATM    2  N3  UNL     1      29.509   2.615   6.759  1.00  0.00    -0.284 N 
ATOM      3  H3  UNL     1      29.594   2.992   7.703  1.00  0.00     0.188 HD
HETATM    4  N4  UNL     1      29.010   3.330   5.804  1.00  0.00    -0.292 N 
ATOM      5  H4  UNL     1      28.715   4.274   6.050  1.00  0.00     0.187 HD
HETATM    6  C6  UNL     1      28.839   2.961   4.517  1.00  0.00     0.096 A 
HETATM    7  C14 UNL     1      29.250   1.645   4.132  1.00  0.00     0.022 A 
HETATM    8  C15 UNL     1      29.096   1.035   2.938  1.00  0.00     0.050 A 
HETATM    9  C16 UNL     1      29.470  -0.260   2.826  1.00  0.00     0.088 A 
HETATM   10  N5  UNL     1      29.343  -1.138   1.721  1.00  0.00    -0.094 NA
HETATM   11  S2  UNL     1      30.052  -0.636   4.404  1.00  0.00    -0.071 SA
HETATM   12  C17 UNL     1      29.787   0.874   5.145  1.00  0.00     0.064 A 
ENDROOT
BRANCH   6  13
HETATM   13  S1  UNL     1      28.121   4.078   3.433  1.00  0.00    -0.105 SA
BRANCH  13  14
HETATM   14  C7  UNL     1      27.421   5.620   3.895  1.00  0.00     0.122 C 
BRANCH  14  15
HETATM   15  C8  UNL     1      25.936   5.378   4.016  1.00  0.00    -0.007 A 
HETATM   16  C9  UNL     1      25.508   4.180   4.514  1.00  0.00     0.056 A 
HETATM   17  C10 UNL     1      24.137   3.891   4.573  1.00  0.00     0.155 A 
HETATM   18  F1  UNL     1      23.666   2.697   5.009  1.00  0.00    -0.203 F 
HETATM   19  C11 UNL     1      23.261   4.844   4.120  1.00  0.00     0.157 A 
HETATM   20  F2  UNL     1      21.908   4.595   4.210  1.00  0.00    -0.203 F 
HETATM   21  C12 UNL     1      23.661   6.063   3.605  1.00  0.00     0.088 A 
HETATM   22  C13 UNL     1      25.041   6.305   3.565  1.00  0.00     0.126 A 
HETATM   23  F3  UNL     1      25.436   7.499   3.082  1.00  0.00    -0.205 F 
ENDBRANCH  14  15
ENDBRANCH  13  14
ENDBRANCH   6  13
BRANCH   1  24
HETATM   24  N2  UNL     1      30.250   0.525   7.322  1.00  0.00    -0.372 N 
ATOM     25  H2  UNL     1      30.527  -0.388   6.962  1.00  0.00     0.161 HD
BRANCH  24  26
HETATM   26  C4  UNL     1      30.299   0.668   8.732  1.00  0.00     0.151 C 
BRANCH  26  27
HETATM   27  C3  UNL     1      29.756  -0.399   9.604  1.00  0.00     0.290 C 
BRANCH  27  28
HETATM   28  N1  UNL     1      28.817   0.241  10.566  1.00  0.00     0.081 N 
HETATM   29  C1  UNL     1      28.419   1.525  10.050  1.00  0.00     0.309 C 
HETATM   30  C2  UNL     1      29.301   0.221  11.881  1.00  0.00     0.309 C 
ENDBRANCH  27  28
ENDBRANCH  26  27
ENDBRANCH  24  26
ENDBRANCH   1  24
TORSDOF 7
ENDMDL
MODEL 2
REMARK VINA RESULT: -7.700617080      1.153      2.225
REMARK  7 active torsions:
REMARK  status: ('A' for Active; 'I' for Inactive)
REMARK    1  A    between atoms: N1_2  and  C3_4 
REMARK    2  A    between atoms: C3_4  and  C4_5 
REMARK    3  A    between atoms: C4_5  and  N2_6 
REMARK    4  A    between atoms: N2_6  and  C5_8 
REMARK    5  A    between atoms: C6_13  and  S1_14 
REMARK    6  A    between atoms: S1_14  and  C7_15 
REMARK    7  A    between atoms: C7_15  and  C8_16 
ROOT
HETATM    1  C5  UNL     1      29.815   1.214   6.697  1.00  0.00     0.134 A 
HETATM    2  N3  UNL     1      28.819   2.139   6.743  1.00  0.00    -0.284 N 
ATOM      3  H3  UNL     1      28.653   2.685   7.589  1.00  0.00     0.188 HD
HETATM    4  N4  UNL     1      28.088   2.310   5.690  1.00  0.00    -0.292 N 
ATOM      5  H4  UNL     1      27.351   3.013   5.758  1.00  0.00     0.187 HD
HETATM    6  C6  UNL     1      28.194   1.661   4.513  1.00  0.00     0.096 A 
HETATM    7  C14 UNL     1      29.222   0.674   4.376  1.00  0.00     0.022 A 
HETATM    8  C15 UNL     1      29.457  -0.154   3.337  1.00  0.00     0.050 A 
HETATM    9  C16 UNL     1      30.426  -1.088   3.466  1.00  0.00     0.088 A 
HETATM   10  N5  UNL     1      30.812  -2.111   2.565  1.00  0.00    -0.094 NA
HETATM   11  S2  UNL     1      31.027  -0.809   5.057  1.00  0.00    -0.071 SA
HETATM   12  C17 UNL     1      30.011   0.484   5.495  1.00  0.00     0.064 A 
ENDROOT
BRANCH   6  13
HETATM   13  S1  UNL     1      27.082   2.040   3.264  1.00  0.00    -0.105 SA
BRANCH  13  14
HETATM   14  C7  UNL     1      25.343   2.162   3.469  1.00  0.00     0.122 C 
BRANCH  14  15
HETATM   15  C8  UNL     1      25.046   3.635   3.606  1.00  0.00    -0.007 A 
HETATM   16  C9  UNL     1      26.077   4.524   3.472  1.00  0.00     0.056 A 
HETATM   17  C10 UNL     1      25.854   5.894   3.665  1.00  0.00     0.155 A 
HETATM   18  F1  UNL     1      26.852   6.808   3.597  1.00  0.00    -0.203 F 
HETATM   19  C11 UNL     1      24.583   6.299   3.985  1.00  0.00     0.157 A 
HETATM   20  F2  UNL     1      24.335   7.647   4.136  1.00  0.00    -0.203 F 
HETATM   21  C12 UNL     1      23.520   5.426   4.133  1.00  0.00     0.088 A 
HETATM   22  C13 UNL     1      23.793   4.066   3.932  1.00  0.00     0.126 A 
HETATM   23  F3  UNL     1      22.757   3.213   4.057  1.00  0.00    -0.205 F 
ENDBRANCH  14  15
ENDBRANCH  13  14
ENDBRANCH   6  13
BRANCH   1  24
HETATM   24  N2  UNL     1      30.460   0.845   7.673  1.00  0.00    -0.372 N 
ATOM     25  H2  UNL     1      31.260   0.245   7.471  1.00  0.00     0.161 HD
BRANCH  24  26
HETATM   26  C4  UNL     1      30.246   1.138   9.044  1.00  0.00     0.151 C 
BRANCH  26  27
HETATM   27  C3  UNL     1      30.166   0.039  10.033  1.00  0.00     0.290 C 
BRANCH  27  28
HETATM   28  N1  UNL     1      28.949   0.265  10.860  1.00  0.00     0.081 N 
HETATM   29  C1  UNL     1      28.241   1.409  10.348  1.00  0.00     0.309 C 
HETATM   30  C2  UNL     1      29.226   0.266  12.233  1.00  0.00     0.309 C 
ENDBRANCH  27  28
ENDBRANCH  26  27
ENDBRANCH  24  26
ENDBRANCH   1  24
TORSDOF 7
ENDMDL
MODEL 3
REMARK VINA RESULT: -7.604448086      1.024      1.882
REMARK  7 active torsions:
REMARK  status: ('A' for Active; 'I' for Inactive)
REMARK    1  A    between atoms: N1_2  and  C3_4 
REMARK    2  A    between atoms: C3_4  and  C4_5 
REMARK    3  A    between atoms: C4_5  and  N2_6 
REMARK    4  A    between atoms: N2_6  and  C5_8 
REMARK    5  A    between atoms: C6_13  and  S1_14 
REMARK    6  A    between atoms: S1_14  and  C7_15 
REMARK    7  A    between atoms: C7_15  and  C8_16 
ROOT
HETATM    1  C5  UNL     1      29.949   1.082   6.951  1.00  0.00     0.134 A 
HETATM    2  N3  UNL     1      29.630   2.308   7.447  1.00  0.00    -0.284 N 
ATOM      3  H3  UNL     1      29.727   2.510   8.442  1.00  0.00     0.188 HD
HETATM    4  N4  UNL     1      29.201   3.211   6.627  1.00  0.00    -0.292 N 
ATOM      5  H4  UNL     1      28.972   4.120   7.031  1.00  0.00     0.187 HD
HETATM    6  C6  UNL     1      29.023   3.083   5.296  1.00  0.00     0.096 A 
HETATM    7  C14 UNL     1      29.341   1.824   4.691  1.00  0.00     0.022 A 
HETATM    8  C15 UNL     1      29.161   1.440   3.410  1.00  0.00     0.050 A 
HETATM    9  C16 UNL     1      29.439   0.159   3.079  1.00  0.00     0.088 A 
HETATM   10  N5  UNL     1      29.266  -0.505   1.839  1.00  0.00    -0.094 NA
HETATM   11  S2  UNL     1      29.967  -0.524   4.570  1.00  0.00    -0.071 SA
HETATM   12  C17 UNL     1      29.803   0.852   5.559  1.00  0.00     0.064 A 
ENDROOT
BRANCH   6  13
HETATM   13  S1  UNL     1      28.408   4.420   4.417  1.00  0.00    -0.105 SA
BRANCH  13  14
HETATM   14  C7  UNL     1      27.536   4.309   2.898  1.00  0.00     0.122 C 
BRANCH  14  15
HETATM   15  C8  UNL     1      26.073   4.413   3.253  1.00  0.00    -0.007 A 
HETATM   16  C9  UNL     1      25.548   5.651   3.499  1.00  0.00     0.056 A 
HETATM   17  C10 UNL     1      24.212   5.780   3.903  1.00  0.00     0.155 A 
HETATM   18  F1  UNL     1      23.660   6.979   4.212  1.00  0.00    -0.203 F 
HETATM   19  C11 UNL     1      23.468   4.636   4.036  1.00  0.00     0.157 A 
HETATM   20  F2  UNL     1      22.140   4.746   4.391  1.00  0.00    -0.203 F 
HETATM   21  C12 UNL     1      23.970   3.369   3.800  1.00  0.00     0.088 A 
HETATM   22  C13 UNL     1      25.311   3.291   3.400  1.00  0.00     0.126 A 
HETATM   23  F3  UNL     1      25.801   2.060   3.150  1.00  0.00    -0.205 F 
ENDBRANCH  14  15
ENDBRANCH  13  14
ENDBRANCH   6  13
BRANCH   1  24
HETATM   24  N2  UNL     1      30.204   0.103   7.645  1.00  0.00    -0.372 N 
ATOM     25  H2  UNL     1      30.073  -0.803   7.193  1.00  0.00     0.161 HD
BRANCH  24  26
HETATM   26  C4  UNL     1      30.655   0.056   8.989  1.00  0.00     0.151 C 
BRANCH  26  27
HETATM   27  C3  UNL     1      29.781  -0.505  10.044  1.00  0.00     0.290 C 
BRANCH  27  28
HETATM   28  N1  UNL     1      29.356   0.620  10.921  1.00  0.00     0.081 N 
HETATM   29  C1  UNL     1      29.250   0.144  12.276  1.00  0.00     0.309 C 
HETATM   30  C2  UNL     1      28.244   1.306  10.414  1.00  0.00     0.309 C 
ENDBRANCH  27  28
ENDBRANCH  26  27
ENDBRANCH  24  26
ENDBRANCH   1  24
TORSDOF 7
ENDMDL
MODEL 4
REMARK VINA RESULT: -7.601375928      3.956      7.481
REMARK  7 active torsions:
REMARK  status: ('A' for Active; 'I' for Inactive)
REMARK    1  A    between atoms: N1_2  and  C3_4 
REMARK    2  A    between atoms: C3_4  and  C4_5 
REMARK    3  A    between atoms: C4_5  and  N2_6 
REMARK    4  A    between atoms: N2_6  and  C5_8 
REMARK    5  A    between atoms: C6_13  and  S1_14 
REMARK    6  A    between atoms: S1_14  and  C7_15 
REMARK    7  A    between atoms: C7_15  and  C8_16 
ROOT
HETATM    1  C5  UNL     1      26.207   1.202   3.280  1.00  0.00     0.134 A 
HETATM    2  N3  UNL     1      26.615   0.121   3.999  1.00  0.00    -0.284 N 
ATOM      3  H3  UNL     1      26.157  -0.783   3.888  1.00  0.00     0.188 HD
HETATM    4  N4  UNL     1      27.599   0.268   4.826  1.00  0.00    -0.292 N 
ATOM      5  H4  UNL     1      27.881  -0.562   5.348  1.00  0.00     0.187 HD
HETATM    6  C6  UNL     1      28.292   1.399   5.073  1.00  0.00     0.096 A 
HETATM    7  C14 UNL     1      27.930   2.583   4.354  1.00  0.00     0.022 A 
HETATM    8  C15 UNL     1      28.416   3.833   4.499  1.00  0.00     0.050 A 
HETATM    9  C16 UNL     1      27.850   4.829   3.779  1.00  0.00     0.088 A 
HETATM   10  N5  UNL     1      28.121   6.220   3.806  1.00  0.00    -0.094 NA
HETATM   11  S2  UNL     1      26.627   4.015   2.880  1.00  0.00    -0.071 SA
HETATM   12  C17 UNL     1      26.881   2.437   3.465  1.00  0.00     0.064 A 
ENDROOT
BRANCH   6  13
HETATM   13  S1  UNL     1      29.542   1.355   6.245  1.00  0.00    -0.105 SA
BRANCH  13  14
HETATM   14  C7  UNL     1      29.669   2.439   7.620  1.00  0.00     0.122 C 
BRANCH  14  15
HETATM   15  C8  UNL     1      29.511   1.571   8.845  1.00  0.00    -0.007 A 
HETATM   16  C9  UNL     1      28.539   1.891   9.751  1.00  0.00     0.056 A 
HETATM   17  C10 UNL     1      28.411   1.152  10.936  1.00  0.00     0.155 A 
HETATM   18  F1  UNL     1      27.499   1.464  11.889  1.00  0.00    -0.203 F 
HETATM   19  C11 UNL     1      29.283   0.114  11.142  1.00  0.00     0.157 A 
HETATM   20  F2  UNL     1      29.145  -0.650  12.281  1.00  0.00    -0.203 F 
HETATM   21  C12 UNL     1      30.280  -0.233  10.249  1.00  0.00     0.088 A 
HETATM   22  C13 UNL     1      30.370   0.537   9.081  1.00  0.00     0.126 A 
HETATM   23  F3  UNL     1      31.328   0.192   8.197  1.00  0.00    -0.205 F 
ENDBRANCH  14  15
ENDBRANCH  13  14
ENDBRANCH   6  13
BRANCH   1  24
HETATM   24  N2  UNL     1      25.189   1.230   2.596  1.00  0.00    -0.372 N 
ATOM     25  H2  UNL     1      25.202   0.641   1.763  1.00  0.00     0.161 HD
BRANCH  24  26
HETATM   26  C4  UNL     1      23.997   1.969   2.804  1.00  0.00     0.151 C 
BRANCH  26  27
HETATM   27  C3  UNL     1      23.532   2.253   4.182  1.00  0.00     0.290 C 
BRANCH  27  28
HETATM   28  N1  UNL     1      23.746   3.703   4.439  1.00  0.00     0.081 N 
HETATM   29  C1  UNL     1      24.147   3.882   5.810  1.00  0.00     0.309 C 
HETATM   30  C2  UNL     1      22.675   4.491   3.996  1.00  0.00     0.309 C 
ENDBRANCH  27  28
ENDBRANCH  26  27
ENDBRANCH  24  26
ENDBRANCH   1  24
TORSDOF 7
ENDMDL
MODEL 5
REMARK VINA RESULT: -7.566798966      1.739      2.049
REMARK  7 active torsions:
REMARK  status: ('A' for Active; 'I' for Inactive)
REMARK    1  A    between atoms: N1_2  and  C3_4 
REMARK    2  A    between atoms: C3_4  and  C4_5 
REMARK    3  A    between atoms: C4_5  and  N2_6 
REMARK    4  A    between atoms: N2_6  and  C5_8 
REMARK    5  A    between atoms: C6_13  and  S1_14 
REMARK    6  A    between atoms: S1_14  and  C7_15 
REMARK    7  A    between atoms: C7_15  and  C8_16 
ROOT
HETATM    1  C5  UNL     1      29.138   1.413   5.144  1.00  0.00     0.134 A 
HETATM    2  N3  UNL     1      29.875   2.553   5.223  1.00  0.00    -0.284 N 
ATOM      3  H3  UNL     1      30.724   2.588   5.787  1.00  0.00     0.188 HD
HETATM    4  N4  UNL     1      29.474   3.593   4.566  1.00  0.00    -0.292 N 
ATOM      5  H4  UNL     1      30.051   4.430   4.646  1.00  0.00     0.187 HD
HETATM    6  C6  UNL     1      28.378   3.689   3.787  1.00  0.00     0.096 A 
HETATM    7  C14 UNL     1      27.548   2.531   3.644  1.00  0.00     0.022 A 
HETATM    8  C15 UNL     1      26.369   2.419   2.997  1.00  0.00     0.050 A 
HETATM    9  C16 UNL     1      25.701   1.246   3.079  1.00  0.00     0.088 A 
HETATM   10  N5  UNL     1      24.427   0.902   2.562  1.00  0.00    -0.094 NA
HETATM   11  S2  UNL     1      26.730   0.278   4.065  1.00  0.00    -0.071 SA
HETATM   12  C17 UNL     1      27.968   1.413   4.340  1.00  0.00     0.064 A 
ENDROOT
BRANCH   6  13
HETATM   13  S1  UNL     1      28.033   5.192   3.038  1.00  0.00    -0.105 SA
BRANCH  13  14
HETATM   14  C7  UNL     1      27.148   6.509   3.788  1.00  0.00     0.122 C 
BRANCH  14  15
HETATM   15  C8  UNL     1      25.725   6.025   3.925  1.00  0.00    -0.007 A 
HETATM   16  C9  UNL     1      25.481   4.926   4.701  1.00  0.00     0.056 A 
HETATM   17  C10 UNL     1      24.184   4.404   4.794  1.00  0.00     0.155 A 
HETATM   18  F1  UNL     1      23.902   3.286   5.506  1.00  0.00    -0.203 F 
HETATM   19  C11 UNL     1      23.189   5.029   4.088  1.00  0.00     0.157 A 
HETATM   20  F2  UNL     1      21.898   4.555   4.200  1.00  0.00    -0.203 F 
HETATM   21  C12 UNL     1      23.401   6.138   3.290  1.00  0.00     0.088 A 
HETATM   22  C13 UNL     1      24.715   6.623   3.228  1.00  0.00     0.126 A 
HETATM   23  F3  UNL     1      24.926   7.715   2.466  1.00  0.00    -0.205 F 
ENDBRANCH  14  15
ENDBRANCH  13  14
ENDBRANCH   6  13
BRANCH   1  24
HETATM   24  N2  UNL     1      29.320   0.423   5.846  1.00  0.00    -0.372 N 
ATOM     25  H2  UNL     1      29.006  -0.462   5.449  1.00  0.00     0.161 HD
BRANCH  24  26
HETATM   26  C4  UNL     1      29.907   0.342   7.134  1.00  0.00     0.151 C 
BRANCH  26  27
HETATM   27  C3  UNL     1      29.647   1.402   8.135  1.00  0.00     0.290 C 
BRANCH  27  28
HETATM   28  N1  UNL     1      29.666   0.764   9.480  1.00  0.00     0.081 N 
HETATM   29  C1  UNL     1      29.863  -0.654   9.325  1.00  0.00     0.309 C 
HETATM   30  C2  UNL     1      28.584   1.160  10.277  1.00  0.00     0.309 C 
ENDBRANCH  27  28
ENDBRANCH  26  27
ENDBRANCH  24  26
ENDBRANCH   1  24
TORSDOF 7
ENDMDL
