MODEL 1
REMARK VINA RESULT: -9.330454049      0.000      0.000
REMARK  7 active torsions:
REMARK  status: ('A' for Active; 'I' for Inactive)
REMARK    1  A    between atoms: C4_5  and  O1_6 
REMARK    2  A    between atoms: C4_5  and  C6_10 
REMARK    3  A    between atoms: O1_6  and  C5_7 
REMARK    4  A    between atoms: C9_15  and  N1_16 
REMARK    5  A    between atoms: C9_15  and  C15_29 
REMARK       I    between atoms: N1_16  and  C10_18 
REMARK    6  A    between atoms: C10_18  and  C11_20 
REMARK    7  A    between atoms: C13_25  and  C14_26 
ROOT
HETATM    1  C1  UNL     1      26.804  -0.385   4.991  1.00  0.00     0.036 C 
HETATM    2  C2  UNL     1      27.148   0.915   4.322  1.00  0.00     0.070 C 
HETATM    3 CL1  UNL     1      26.610   0.823   2.660  1.00  0.00    -0.117 Cl
HETATM    4  C3  UNL     1      26.312   1.991   5.026  1.00  0.00     0.078 C 
HETATM    5  C4  UNL     1      26.316   3.307   4.271  1.00  0.00     0.156 C 
HETATM    6  C7  UNL     1      27.662   3.516   3.629  1.00  0.00     0.052 C 
HETATM    7  C8  UNL     1      28.757   2.806   4.378  1.00  0.00     0.046 C 
HETATM    8  C9  UNL     1      28.592   1.338   4.506  1.00  0.00     0.152 C 
ENDROOT
BRANCH   8   9
HETATM    9  N1  UNL     1      28.963   0.920   5.850  1.00  0.00    -0.337 N 
HETATM   10  C10 UNL     1      29.416   1.719   6.900  1.00  0.00     0.256 C 
HETATM   11  O4  UNL     1      29.557   2.949   6.793  1.00  0.00    -0.267 OA
ATOM     12  H1  UNL     1      28.882  -0.077   6.048  1.00  0.00     0.164 HD
BRANCH  10  13
HETATM   13  C11 UNL     1      29.760   1.156   8.198  1.00  0.00     0.086 A 
HETATM   14  C12 UNL     1      30.897   0.381   8.464  1.00  0.00     0.134 A 
HETATM   15  N2  UNL     1      30.824  -0.006   9.725  1.00  0.00    -0.271 N 
HETATM   16  O5  UNL     1      29.758   0.462  10.233  1.00  0.00    -0.236 OA
ATOM     17  H2  UNL     1      31.510  -0.585  10.209  1.00  0.00     0.194 HD
HETATM   18  C13 UNL     1      29.057   1.190   9.349  1.00  0.00     0.157 A 
BRANCH  18  19
HETATM   19  C14 UNL     1      27.800   1.815   9.784  1.00  0.00     0.413 C 
HETATM   20  F3  UNL     1      27.758   3.164   9.428  1.00  0.00    -0.207 F 
HETATM   21  F4  UNL     1      27.793   1.825  11.187  1.00  0.00    -0.207 F 
ENDBRANCH  18  19
ENDBRANCH  10  13
ENDBRANCH   8   9
BRANCH   8  22
HETATM   22  C15 UNL     1      29.479   0.651   3.505  1.00  0.00     0.414 C 
HETATM   23  F5  UNL     1      28.890   0.374   2.303  1.00  0.00    -0.168 F 
HETATM   24  F6  UNL     1      30.611   1.442   3.229  1.00  0.00    -0.168 F 
HETATM   25  F7  UNL     1      29.992  -0.497   4.027  1.00  0.00    -0.168 F 
ENDBRANCH   8  22
BRANCH   5  26
HETATM   26  O1  UNL     1      25.296   3.223   3.330  1.00  0.00    -0.310 OA
BRANCH  26  27
HETATM   27  C5  UNL     1      24.055   2.930   3.816  1.00  0.00     0.501 C 
HETATM   28  F1  UNL     1      23.519   1.734   3.383  1.00  0.00    -0.184 F 
HETATM   29  F2  UNL     1      23.182   3.984   3.539  1.00  0.00    -0.184 F 
ENDBRANCH  26  27
ENDBRANCH   5  26
BRANCH   5  30
HETATM   30  C6  UNL     1      26.036   4.345   5.313  1.00  0.00     0.209 C 
HETATM   31  O2  UNL     1      26.015   4.020   6.508  1.00  0.00    -0.646 OA
HETATM   32  O3  UNL     1      25.805   5.653   4.928  1.00  0.00    -0.646 OA
ENDBRANCH   5  30
TORSDOF 7
ENDMDL
MODEL 2
REMARK VINA RESULT: -8.440301509      1.606      1.985
REMARK  7 active torsions:
REMARK  status: ('A' for Active; 'I' for Inactive)
REMARK    1  A    between atoms: C4_5  and  O1_6 
REMARK    2  A    between atoms: C4_5  and  C6_10 
REMARK    3  A    between atoms: O1_6  and  C5_7 
REMARK    4  A    between atoms: C9_15  and  N1_16 
REMARK    5  A    between atoms: C9_15  and  C15_29 
REMARK       I    between atoms: N1_16  and  C10_18 
REMARK    6  A    between atoms: C10_18  and  C11_20 
REMARK    7  A    between atoms: C13_25  and  C14_26 
ROOT
HETATM    1  C1  UNL     1      27.307  -0.397   5.007  1.00  0.00     0.036 C 
HETATM    2  C2  UNL     1      27.532   0.983   4.459  1.00  0.00     0.070 C 
HETATM    3 CL1  UNL     1      27.623   0.863   2.717  1.00  0.00    -0.117 Cl
HETATM    4  C3  UNL     1      26.275   1.790   4.808  1.00  0.00     0.078 C 
HETATM    5  C4  UNL     1      26.215   3.111   4.064  1.00  0.00     0.156 C 
HETATM    6  C7  UNL     1      27.606   3.668   3.912  1.00  0.00     0.052 C 
HETATM    7  C8  UNL     1      28.523   3.193   5.008  1.00  0.00     0.046 C 
HETATM    8  C9  UNL     1      28.683   1.723   5.112  1.00  0.00     0.152 C 
ENDROOT
BRANCH   8   9
HETATM    9  N1  UNL     1      28.669   1.329   6.513  1.00  0.00    -0.337 N 
HETATM   10  C10 UNL     1      28.761   2.152   7.635  1.00  0.00     0.256 C 
HETATM   11  O4  UNL     1      28.869   3.387   7.552  1.00  0.00    -0.267 OA
ATOM     12  H1  UNL     1      28.582   0.329   6.696  1.00  0.00     0.164 HD
BRANCH  10  13
HETATM   13  C11 UNL     1      28.742   1.611   8.987  1.00  0.00     0.086 A 
HETATM   14  C12 UNL     1      27.794   1.929   9.968  1.00  0.00     0.134 A 
HETATM   15  N2  UNL     1      28.149   1.305  11.077  1.00  0.00    -0.271 N 
HETATM   16  O5  UNL     1      29.214   0.649  10.851  1.00  0.00    -0.236 OA
ATOM     17  H2  UNL     1      27.652   1.344  11.966  1.00  0.00     0.194 HD
HETATM   18  C13 UNL     1      29.632   0.791   9.583  1.00  0.00     0.157 A 
BRANCH  18  19
HETATM   19  C14 UNL     1      30.847   0.083   9.154  1.00  0.00     0.413 C 
HETATM   20  F3  UNL     1      31.927   0.388   9.982  1.00  0.00    -0.207 F 
HETATM   21  F4  UNL     1      31.215   0.592   7.899  1.00  0.00    -0.207 F 
ENDBRANCH  18  19
ENDBRANCH  10  13
ENDBRANCH   8   9
BRANCH   8  22
HETATM   22  C15 UNL     1      29.993   1.324   4.491  1.00  0.00     0.414 C 
HETATM   23  F5  UNL     1      29.991   1.261   3.126  1.00  0.00    -0.168 F 
HETATM   24  F6  UNL     1      31.005   2.232   4.855  1.00  0.00    -0.168 F 
HETATM   25  F7  UNL     1      30.417   0.131   4.993  1.00  0.00    -0.168 F 
ENDBRANCH   8  22
BRANCH   5  26
HETATM   26  O1  UNL     1      25.624   2.843   2.834  1.00  0.00    -0.310 OA
BRANCH  26  27
HETATM   27  C5  UNL     1      24.625   1.913   2.840  1.00  0.00     0.501 C 
HETATM   28  F1  UNL     1      24.565   1.104   1.724  1.00  0.00    -0.184 F 
HETATM   29  F2  UNL     1      23.397   2.545   3.051  1.00  0.00    -0.184 F 
ENDBRANCH  26  27
ENDBRANCH   5  26
BRANCH   5  30
HETATM   30  C6  UNL     1      25.359   3.993   4.920  1.00  0.00     0.209 C 
HETATM   31  O2  UNL     1      25.214   3.721   6.120  1.00  0.00    -0.646 OA
HETATM   32  O3  UNL     1      24.745   5.097   4.361  1.00  0.00    -0.646 OA
ENDBRANCH   5  30
TORSDOF 7
ENDMDL
MODEL 3
REMARK VINA RESULT: -8.177610289      1.652      2.130
REMARK  7 active torsions:
REMARK  status: ('A' for Active; 'I' for Inactive)
REMARK    1  A    between atoms: C4_5  and  O1_6 
REMARK    2  A    between atoms: C4_5  and  C6_10 
REMARK    3  A    between atoms: O1_6  and  C5_7 
REMARK    4  A    between atoms: C9_15  and  N1_16 
REMARK    5  A    between atoms: C9_15  and  C15_29 
REMARK       I    between atoms: N1_16  and  C10_18 
REMARK    6  A    between atoms: C10_18  and  C11_20 
REMARK    7  A    between atoms: C13_25  and  C14_26 
ROOT
HETATM    1  C1  UNL     1      27.318  -0.377   5.035  1.00  0.00     0.036 C 
HETATM    2  C2  UNL     1      27.555   0.999   4.481  1.00  0.00     0.070 C 
HETATM    3 CL1  UNL     1      27.704   0.863   2.744  1.00  0.00    -0.117 Cl
HETATM    4  C3  UNL     1      26.284   1.803   4.781  1.00  0.00     0.078 C 
HETATM    5  C4  UNL     1      26.242   3.117   4.023  1.00  0.00     0.156 C 
HETATM    6  C7  UNL     1      27.635   3.679   3.911  1.00  0.00     0.052 C 
HETATM    7  C8  UNL     1      28.517   3.220   5.041  1.00  0.00     0.046 C 
HETATM    8  C9  UNL     1      28.681   1.751   5.164  1.00  0.00     0.152 C 
ENDROOT
BRANCH   8   9
HETATM    9  N1  UNL     1      28.623   1.370   6.568  1.00  0.00    -0.337 N 
HETATM   10  C10 UNL     1      28.829   2.180   7.684  1.00  0.00     0.256 C 
HETATM   11  O4  UNL     1      29.098   3.390   7.593  1.00  0.00    -0.267 OA
ATOM     12  H1  UNL     1      28.405   0.392   6.758  1.00  0.00     0.164 HD
BRANCH  10  13
HETATM   13  C11 UNL     1      28.746   1.654   9.040  1.00  0.00     0.086 A 
HETATM   14  C12 UNL     1      27.789   2.029   9.992  1.00  0.00     0.134 A 
HETATM   15  N2  UNL     1      28.082   1.399  11.115  1.00  0.00    -0.271 N 
HETATM   16  O5  UNL     1      29.118   0.688  10.924  1.00  0.00    -0.236 OA
ATOM     17  H2  UNL     1      27.564   1.472  11.990  1.00  0.00     0.194 HD
HETATM   18  C13 UNL     1      29.577   0.797   9.667  1.00  0.00     0.157 A 
BRANCH  18  19
HETATM   19  C14 UNL     1      30.765   0.024   9.277  1.00  0.00     0.413 C 
HETATM   20  F3  UNL     1      30.953   0.050   7.895  1.00  0.00    -0.207 F 
HETATM   21  F4  UNL     1      30.510  -1.324   9.569  1.00  0.00    -0.207 F 
ENDBRANCH  18  19
ENDBRANCH  10  13
ENDBRANCH   8   9
BRANCH   8  22
HETATM   22  C15 UNL     1      30.012   1.352   4.591  1.00  0.00     0.414 C 
HETATM   23  F5  UNL     1      30.463   0.121   4.978  1.00  0.00    -0.168 F 
HETATM   24  F6  UNL     1      29.955   1.340   3.185  1.00  0.00    -0.168 F 
HETATM   25  F7  UNL     1      30.958   2.286   4.881  1.00  0.00    -0.168 F 
ENDBRANCH   8  22
BRANCH   5  26
HETATM   26  O1  UNL     1      25.693   2.835   2.777  1.00  0.00    -0.310 OA
BRANCH  26  27
HETATM   27  C5  UNL     1      24.722   1.876   2.754  1.00  0.00     0.501 C 
HETATM   28  F1  UNL     1      24.688   1.097   1.616  1.00  0.00    -0.184 F 
HETATM   29  F2  UNL     1      23.476   2.466   2.979  1.00  0.00    -0.184 F 
ENDBRANCH  26  27
ENDBRANCH   5  26
BRANCH   5  30
HETATM   30  C6  UNL     1      25.355   4.003   4.841  1.00  0.00     0.209 C 
HETATM   31  O2  UNL     1      25.371   5.226   4.650  1.00  0.00    -0.646 OA
HETATM   32  O3  UNL     1      24.529   3.443   5.798  1.00  0.00    -0.646 OA
ENDBRANCH   5  30
TORSDOF 7
ENDMDL
MODEL 4
REMARK VINA RESULT: -7.365823206      2.665      6.464
REMARK  7 active torsions:
REMARK  status: ('A' for Active; 'I' for Inactive)
REMARK    1  A    between atoms: C4_5  and  O1_6 
REMARK    2  A    between atoms: C4_5  and  C6_10 
REMARK    3  A    between atoms: O1_6  and  C5_7 
REMARK    4  A    between atoms: C9_15  and  N1_16 
REMARK    5  A    between atoms: C9_15  and  C15_29 
REMARK       I    between atoms: N1_16  and  C10_18 
REMARK    6  A    between atoms: C10_18  and  C11_20 
REMARK    7  A    between atoms: C13_25  and  C14_26 
ROOT
HETATM    1  C1  UNL     1      29.212   4.092   4.643  1.00  0.00     0.036 C 
HETATM    2  C2  UNL     1      29.153   2.750   5.314  1.00  0.00     0.070 C 
HETATM    3 CL1  UNL     1      30.700   1.967   5.089  1.00  0.00    -0.117 Cl
HETATM    4  C3  UNL     1      28.983   3.030   6.813  1.00  0.00     0.078 C 
HETATM    5  C4  UNL     1      29.211   1.792   7.659  1.00  0.00     0.156 C 
HETATM    6  C7  UNL     1      28.700   0.579   6.925  1.00  0.00     0.052 C 
HETATM    7  C8  UNL     1      27.595   0.929   5.966  1.00  0.00     0.046 C 
HETATM    8  C9  UNL     1      27.949   1.917   4.919  1.00  0.00     0.152 C 
ENDROOT
BRANCH   8   9
HETATM    9  N1  UNL     1      26.852   2.858   4.744  1.00  0.00    -0.337 N 
HETATM   10  C10 UNL     1      25.499   2.571   4.562  1.00  0.00     0.256 C 
HETATM   11  O4  UNL     1      25.060   1.409   4.530  1.00  0.00    -0.267 OA
ATOM     12  H1  UNL     1      27.103   3.846   4.755  1.00  0.00     0.164 HD
BRANCH  10  13
HETATM   13  C11 UNL     1      24.508   3.624   4.390  1.00  0.00     0.086 A 
HETATM   14  C12 UNL     1      23.124   3.456   4.526  1.00  0.00     0.134 A 
HETATM   15  N2  UNL     1      22.556   4.609   4.222  1.00  0.00    -0.271 N 
HETATM   16  O5  UNL     1      23.465   5.444   3.919  1.00  0.00    -0.236 OA
ATOM     17  H2  UNL     1      21.553   4.798   4.228  1.00  0.00     0.194 HD
HETATM   18  C13 UNL     1      24.691   4.903   4.004  1.00  0.00     0.157 A 
BRANCH  18  19
HETATM   19  C14 UNL     1      25.858   5.743   3.698  1.00  0.00     0.413 C 
HETATM   20  F3  UNL     1      25.470   6.963   3.143  1.00  0.00    -0.207 F 
HETATM   21  F4  UNL     1      26.581   5.110   2.675  1.00  0.00    -0.207 F 
ENDBRANCH  18  19
ENDBRANCH  10  13
ENDBRANCH   8   9
BRANCH   8  22
HETATM   22  C15 UNL     1      28.203   1.197   3.624  1.00  0.00     0.414 C 
HETATM   23  F5  UNL     1      29.521   1.049   3.292  1.00  0.00    -0.168 F 
HETATM   24  F6  UNL     1      27.647  -0.096   3.666  1.00  0.00    -0.168 F 
HETATM   25  F7  UNL     1      27.550   1.809   2.598  1.00  0.00    -0.168 F 
ENDBRANCH   8  22
BRANCH   5  26
HETATM   26  O1  UNL     1      30.579   1.721   7.893  1.00  0.00    -0.310 OA
BRANCH  26  27
HETATM   27  C5  UNL     1      31.046   0.528   8.362  1.00  0.00     0.501 C 
HETATM   28  F1  UNL     1      31.769   0.598   9.536  1.00  0.00    -0.184 F 
HETATM   29  F2  UNL     1      31.791  -0.108   7.367  1.00  0.00    -0.184 F 
ENDBRANCH  26  27
ENDBRANCH   5  26
BRANCH   5  30
HETATM   30  C6  UNL     1      28.437   2.041   8.916  1.00  0.00     0.209 C 
HETATM   31  O2  UNL     1      27.680   3.019   8.982  1.00  0.00    -0.646 OA
HETATM   32  O3  UNL     1      28.577   1.176   9.985  1.00  0.00    -0.646 OA
ENDBRANCH   5  30
TORSDOF 7
ENDMDL
MODEL 5
REMARK VINA RESULT: -7.020149850      2.994      4.270
REMARK  7 active torsions:
REMARK  status: ('A' for Active; 'I' for Inactive)
REMARK    1  A    between atoms: C4_5  and  O1_6 
REMARK    2  A    between atoms: C4_5  and  C6_10 
REMARK    3  A    between atoms: O1_6  and  C5_7 
REMARK    4  A    between atoms: C9_15  and  N1_16 
REMARK    5  A    between atoms: C9_15  and  C15_29 
REMARK       I    between atoms: N1_16  and  C10_18 
REMARK    6  A    between atoms: C10_18  and  C11_20 
REMARK    7  A    between atoms: C13_25  and  C14_26 
ROOT
HETATM    1  C1  UNL     1      26.890   2.728   6.802  1.00  0.00     0.036 C 
HETATM    2  C2  UNL     1      26.337   3.209   5.492  1.00  0.00     0.070 C 
HETATM    3 CL1  UNL     1      24.776   3.935   5.800  1.00  0.00    -0.117 Cl
HETATM    4  C3  UNL     1      27.282   4.317   5.010  1.00  0.00     0.078 C 
HETATM    5  C4  UNL     1      26.698   5.110   3.857  1.00  0.00     0.156 C 
HETATM    6  C7  UNL     1      25.890   4.196   2.973  1.00  0.00     0.052 C 
HETATM    7  C8  UNL     1      26.376   2.773   3.047  1.00  0.00     0.046 C 
HETATM    8  C9  UNL     1      26.351   2.160   4.396  1.00  0.00     0.152 C 
ENDROOT
BRANCH   8   9
HETATM    9  N1  UNL     1      27.564   1.383   4.602  1.00  0.00    -0.337 N 
HETATM   10  C10 UNL     1      28.264   0.623   3.665  1.00  0.00     0.256 C 
HETATM   11  O4  UNL     1      27.903   0.525   2.479  1.00  0.00    -0.267 OA
ATOM     12  H1  UNL     1      27.949   1.396   5.546  1.00  0.00     0.164 HD
BRANCH  10  13
HETATM   13  C11 UNL     1      29.468  -0.114   4.019  1.00  0.00     0.086 A 
HETATM   14  C12 UNL     1      29.991  -1.197   3.299  1.00  0.00     0.134 A 
HETATM   15  N2  UNL     1      31.037  -1.646   3.968  1.00  0.00    -0.271 N 
HETATM   16  O5  UNL     1      31.187  -0.939   5.013  1.00  0.00    -0.236 OA
ATOM     17  H2  UNL     1      31.627  -2.431   3.691  1.00  0.00     0.194 HD
HETATM   18  C13 UNL     1      30.256   0.024   5.105  1.00  0.00     0.157 A 
BRANCH  18  19
HETATM   19  C14 UNL     1      30.297   0.941   6.253  1.00  0.00     0.413 C 
HETATM   20  F3  UNL     1      29.234   0.706   7.125  1.00  0.00    -0.207 F 
HETATM   21  F4  UNL     1      30.070   2.239   5.769  1.00  0.00    -0.207 F 
ENDBRANCH  18  19
ENDBRANCH  10  13
ENDBRANCH   8   9
BRANCH   8  22
HETATM   22  C15 UNL     1      25.153   1.258   4.508  1.00  0.00     0.414 C 
HETATM   23  F5  UNL     1      24.093   1.785   5.192  1.00  0.00    -0.168 F 
HETATM   24  F6  UNL     1      24.680   0.912   3.228  1.00  0.00    -0.168 F 
HETATM   25  F7  UNL     1      25.500   0.068   5.070  1.00  0.00    -0.168 F 
ENDBRANCH   8  22
BRANCH   5  26
HETATM   26  O1  UNL     1      25.917   6.111   4.423  1.00  0.00    -0.310 OA
BRANCH  26  27
HETATM   27  C5  UNL     1      24.923   6.613   3.635  1.00  0.00     0.501 C 
HETATM   28  F1  UNL     1      25.335   7.487   2.650  1.00  0.00    -0.184 F 
HETATM   29  F2  UNL     1      23.945   7.207   4.436  1.00  0.00    -0.184 F 
ENDBRANCH  26  27
ENDBRANCH   5  26
BRANCH   5  30
HETATM   30  C6  UNL     1      27.887   5.665   3.134  1.00  0.00     0.209 C 
HETATM   31  O2  UNL     1      28.787   6.220   3.779  1.00  0.00    -0.646 OA
HETATM   32  O3  UNL     1      27.964   5.548   1.759  1.00  0.00    -0.646 OA
ENDBRANCH   5  30
TORSDOF 7
ENDMDL
