MODEL 1
REMARK VINA RESULT: -8.054808201      0.000      0.000
REMARK  11 active torsions:
REMARK  status: ('A' for Active; 'I' for Inactive)
REMARK    1  A    between atoms: O1_1  and  C1_3 
REMARK    2  A    between atoms: C1_3  and  N1_4 
REMARK    3  A    between atoms: C1_3  and  C7_12 
REMARK    4  A    between atoms: C1_3  and  C19_33 
REMARK    5  A    between atoms: C2_6  and  C3_7 
REMARK    6  A    between atoms: C7_12  and  C8_13 
REMARK    7  A    between atoms: C8_13  and  C9_14 
REMARK    8  A    between atoms: C9_14  and  O3_15 
REMARK    9  A    between atoms: C9_14  and  C10_17 
REMARK   10  A    between atoms: C9_14  and  C11_20 
REMARK   11  A    between atoms: N2_24  and  C12_26 
ROOT
HETATM    1  C7  UNL     1      27.829   1.707   5.694  1.00  0.00     0.070 C 
HETATM    2  N2  UNL     1      26.683   2.373   5.658  1.00  0.00    -0.384 N 
ATOM      3  H2  UNL     1      26.673   3.211   6.241  1.00  0.00     0.160 HD
ENDROOT
BRANCH   1   4
HETATM    4  C1  UNL     1      28.810   2.355   6.573  1.00  0.00     0.276 C 
BRANCH   4   5
HETATM    5  O1  UNL     1      30.045   1.589   6.347  1.00  0.00    -0.359 OA
ATOM      6  H1  UNL     1      30.522   2.197   5.795  1.00  0.00     0.213 HD
ENDBRANCH   4   5
BRANCH   4   7
HETATM    7  N1  UNL     1      28.549   2.020   7.973  1.00  0.00    -0.353 N 
HETATM    8  C2  UNL     1      29.285   1.236   8.631  1.00  0.00     0.123 C 
ATOM      9  H1  UNL     1      27.741   2.438   8.435  1.00  0.00     0.162 HD
BRANCH   8  10
HETATM   10  C3  UNL     1      28.922   0.973  10.037  1.00  0.00     0.090 A 
HETATM   11  C4  UNL     1      29.594   0.134  10.912  1.00  0.00     0.040 A 
HETATM   12  C5  UNL     1      28.936   0.172  12.112  1.00  0.00     0.027 A 
HETATM   13  C6  UNL     1      27.880   1.036  11.934  1.00  0.00     0.142 A 
HETATM   14  O2  UNL     1      27.921   1.472  10.708  1.00  0.00    -0.321 OA
ENDBRANCH   8  10
ENDBRANCH   4   7
BRANCH   4  15
HETATM   15  C19 UNL     1      29.272   3.731   6.385  1.00  0.00     0.444 C 
HETATM   16  F6  UNL     1      28.436   4.500   5.643  1.00  0.00    -0.166 F 
HETATM   17  F7  UNL     1      29.894   4.377   7.397  1.00  0.00    -0.166 F 
HETATM   18  F8  UNL     1      30.420   3.538   5.469  1.00  0.00    -0.166 F 
ENDBRANCH   4  15
ENDBRANCH   1   4
BRANCH   1  19
HETATM   19  C8  UNL     1      27.972   0.528   4.892  1.00  0.00     0.055 C 
BRANCH  19  20
HETATM   20  C9  UNL     1      28.897   0.320   3.787  1.00  0.00     0.235 C 
BRANCH  20  21
HETATM   21  O3  UNL     1      30.190   0.751   3.862  1.00  0.00    -0.373 OA
ATOM     22  H3  UNL     1      30.689   0.663   4.665  1.00  0.00     0.211 HD
ENDBRANCH  20  21
BRANCH  20  23
HETATM   23  C10 UNL     1      28.314   1.215   2.633  1.00  0.00     0.400 C 
HETATM   24  F1  UNL     1      28.576   2.506   2.951  1.00  0.00    -0.210 F 
HETATM   25  F2  UNL     1      27.022   0.900   2.378  1.00  0.00    -0.210 F 
ENDBRANCH  20  23
BRANCH  20  26
HETATM   26  C11 UNL     1      28.925  -1.062   3.166  1.00  0.00     0.427 C 
HETATM   27  F3  UNL     1      29.954  -1.832   3.581  1.00  0.00    -0.167 F 
HETATM   28  F4  UNL     1      28.795  -1.018   1.786  1.00  0.00    -0.167 F 
HETATM   29  F5  UNL     1      27.751  -1.698   3.604  1.00  0.00    -0.167 F 
ENDBRANCH  20  26
ENDBRANCH  19  20
ENDBRANCH   1  19
BRANCH   2  30
HETATM   30  C12 UNL     1      25.515   2.150   4.990  1.00  0.00     0.086 C 
HETATM   31  C13 UNL     1      24.259   2.638   5.744  1.00  0.00     0.030 C 
HETATM   32  C14 UNL     1      23.363   3.282   4.744  1.00  0.00    -0.012 C 
HETATM   33  C15 UNL     1      23.840   4.705   4.551  1.00  0.00     0.005 C 
HETATM   34  C18 UNL     1      23.878   2.666   3.431  1.00  0.00     0.011 C 
HETATM   35  C16 UNL     1      25.260   4.455   4.019  1.00  0.00     0.007 C 
HETATM   36  C17 UNL     1      25.356   2.998   3.712  1.00  0.00     0.009 C 
ENDBRANCH   2  30
TORSDOF 11
ENDMDL
MODEL 2
REMARK VINA RESULT: -7.896598037      0.992      1.517
REMARK  11 active torsions:
REMARK  status: ('A' for Active; 'I' for Inactive)
REMARK    1  A    between atoms: O1_1  and  C1_3 
REMARK    2  A    between atoms: C1_3  and  N1_4 
REMARK    3  A    between atoms: C1_3  and  C7_12 
REMARK    4  A    between atoms: C1_3  and  C19_33 
REMARK    5  A    between atoms: C2_6  and  C3_7 
REMARK    6  A    between atoms: C7_12  and  C8_13 
REMARK    7  A    between atoms: C8_13  and  C9_14 
REMARK    8  A    between atoms: C9_14  and  O3_15 
REMARK    9  A    between atoms: C9_14  and  C10_17 
REMARK   10  A    between atoms: C9_14  and  C11_20 
REMARK   11  A    between atoms: N2_24  and  C12_26 
ROOT
HETATM    1  C7  UNL     1      28.441   1.147   5.526  1.00  0.00     0.070 C 
HETATM    2  N2  UNL     1      27.269   1.691   5.228  1.00  0.00    -0.384 N 
ATOM      3  H2  UNL     1      27.102   2.588   5.684  1.00  0.00     0.160 HD
ENDROOT
BRANCH   1   4
HETATM    4  C1  UNL     1      29.214   1.986   6.448  1.00  0.00     0.276 C 
BRANCH   4   5
HETATM    5  O1  UNL     1      30.564   1.401   6.409  1.00  0.00    -0.359 OA
ATOM      6  H1  UNL     1      30.382   0.589   5.952  1.00  0.00     0.213 HD
ENDBRANCH   4   5
BRANCH   4   7
HETATM    7  N1  UNL     1      28.848   1.704   7.835  1.00  0.00    -0.353 N 
HETATM    8  C2  UNL     1      29.594   1.051   8.614  1.00  0.00     0.123 C 
ATOM      9  H1  UNL     1      27.954   2.049   8.186  1.00  0.00     0.162 HD
BRANCH   8  10
HETATM   10  C3  UNL     1      29.118   0.828   9.992  1.00  0.00     0.090 A 
HETATM   11  C4  UNL     1      29.722   0.023  10.947  1.00  0.00     0.040 A 
HETATM   12  C5  UNL     1      28.967   0.091  12.086  1.00  0.00     0.027 A 
HETATM   13  C6  UNL     1      27.921   0.937  11.794  1.00  0.00     0.142 A 
HETATM   14  O2  UNL     1      28.061   1.336  10.562  1.00  0.00    -0.321 OA
ENDBRANCH   8  10
ENDBRANCH   4   7
BRANCH   4  15
HETATM   15  C19 UNL     1      29.495   3.402   6.202  1.00  0.00     0.444 C 
HETATM   16  F6  UNL     1      28.532   4.043   5.493  1.00  0.00    -0.166 F 
HETATM   17  F7  UNL     1      30.089   4.148   7.161  1.00  0.00    -0.166 F 
HETATM   18  F8  UNL     1      30.606   3.321   5.224  1.00  0.00    -0.166 F 
ENDBRANCH   4  15
ENDBRANCH   1   4
BRANCH   1  19
HETATM   19  C8  UNL     1      28.800  -0.102   4.920  1.00  0.00     0.055 C 
BRANCH  19  20
HETATM   20  C9  UNL     1      29.677  -0.307   3.776  1.00  0.00     0.235 C 
BRANCH  20  21
HETATM   21  O3  UNL     1      30.336   0.740   3.199  1.00  0.00    -0.373 OA
ATOM     22  H3  UNL     1      30.455   1.560   3.665  1.00  0.00     0.211 HD
ENDBRANCH  20  21
BRANCH  20  23
HETATM   23  C10 UNL     1      28.701  -0.758   2.628  1.00  0.00     0.400 C 
HETATM   24  F1  UNL     1      28.412   0.340   1.888  1.00  0.00    -0.210 F 
HETATM   25  F2  UNL     1      27.649  -1.450   3.128  1.00  0.00    -0.210 F 
ENDBRANCH  20  23
BRANCH  20  26
HETATM   26  C11 UNL     1      30.658  -1.457   3.861  1.00  0.00     0.427 C 
HETATM   27  F3  UNL     1      30.085  -2.678   3.789  1.00  0.00    -0.167 F 
HETATM   28  F4  UNL     1      31.530  -1.324   4.932  1.00  0.00    -0.167 F 
HETATM   29  F5  UNL     1      31.482  -1.338   2.728  1.00  0.00    -0.167 F 
ENDBRANCH  20  26
ENDBRANCH  19  20
ENDBRANCH   1  19
BRANCH   2  30
HETATM   30  C12 UNL     1      26.244   1.279   4.428  1.00  0.00     0.086 C 
HETATM   31  C13 UNL     1      24.843   1.549   5.015  1.00  0.00     0.030 C 
HETATM   32  C14 UNL     1      23.981   2.037   3.902  1.00  0.00    -0.012 C 
HETATM   33  C15 UNL     1      24.236   3.521   3.744  1.00  0.00     0.005 C 
HETATM   34  C18 UNL     1      24.748   1.519   2.672  1.00  0.00     0.011 C 
HETATM   35  C16 UNL     1      25.732   3.512   3.392  1.00  0.00     0.007 C 
HETATM   36  C17 UNL     1      26.105   2.092   3.125  1.00  0.00     0.009 C 
ENDBRANCH   2  30
TORSDOF 11
ENDMDL
MODEL 3
REMARK VINA RESULT: -7.896360629      1.728      5.583
REMARK  11 active torsions:
REMARK  status: ('A' for Active; 'I' for Inactive)
REMARK    1  A    between atoms: O1_1  and  C1_3 
REMARK    2  A    between atoms: C1_3  and  N1_4 
REMARK    3  A    between atoms: C1_3  and  C7_12 
REMARK    4  A    between atoms: C1_3  and  C19_33 
REMARK    5  A    between atoms: C2_6  and  C3_7 
REMARK    6  A    between atoms: C7_12  and  C8_13 
REMARK    7  A    between atoms: C8_13  and  C9_14 
REMARK    8  A    between atoms: C9_14  and  O3_15 
REMARK    9  A    between atoms: C9_14  and  C10_17 
REMARK   10  A    between atoms: C9_14  and  C11_20 
REMARK   11  A    between atoms: N2_24  and  C12_26 
ROOT
HETATM    1  C7  UNL     1      28.773   1.438   6.460  1.00  0.00     0.070 C 
HETATM    2  N2  UNL     1      29.191   1.204   7.697  1.00  0.00    -0.384 N 
ATOM      3  H2  UNL     1      29.098   2.004   8.323  1.00  0.00     0.160 HD
ENDROOT
BRANCH   1   4
HETATM    4  C1  UNL     1      28.274   2.809   6.302  1.00  0.00     0.276 C 
BRANCH   4   5
HETATM    5  O1  UNL     1      27.904   3.209   7.669  1.00  0.00    -0.359 OA
ATOM      6  H1  UNL     1      28.376   4.029   7.738  1.00  0.00     0.213 HD
ENDBRANCH   4   5
BRANCH   4   7
HETATM    7  N1  UNL     1      26.957   2.809   5.666  1.00  0.00    -0.353 N 
HETATM    8  C2  UNL     1      26.110   3.723   5.859  1.00  0.00     0.123 C 
ATOM      9  H1  UNL     1      26.714   2.039   5.041  1.00  0.00     0.162 HD
BRANCH   8  10
HETATM   10  C3  UNL     1      24.814   3.615   5.163  1.00  0.00     0.090 A 
HETATM   11  C4  UNL     1      24.385   2.545   4.394  1.00  0.00     0.040 A 
HETATM   12  C5  UNL     1      23.132   2.841   3.930  1.00  0.00     0.027 A 
HETATM   13  C6  UNL     1      22.831   4.087   4.430  1.00  0.00     0.142 A 
HETATM   14  O2  UNL     1      23.846   4.489   5.141  1.00  0.00    -0.321 OA
ENDBRANCH   8  10
ENDBRANCH   4   7
BRANCH   4  15
HETATM   15  C19 UNL     1      29.118   3.928   5.881  1.00  0.00     0.444 C 
HETATM   16  F6  UNL     1      30.353   3.562   5.457  1.00  0.00    -0.166 F 
HETATM   17  F7  UNL     1      28.571   4.971   5.215  1.00  0.00    -0.166 F 
HETATM   18  F8  UNL     1      29.411   4.585   7.176  1.00  0.00    -0.166 F 
ENDBRANCH   4  15
ENDBRANCH   1   4
BRANCH   1  19
HETATM   19  C8  UNL     1      28.827   0.377   5.497  1.00  0.00     0.055 C 
BRANCH  19  20
HETATM   20  C9  UNL     1      29.541   0.373   4.228  1.00  0.00     0.235 C 
BRANCH  20  21
HETATM   21  O3  UNL     1      30.604   1.203   4.018  1.00  0.00    -0.373 OA
ATOM     22  H3  UNL     1      31.020   1.260   3.165  1.00  0.00     0.211 HD
ENDBRANCH  20  21
BRANCH  20  23
HETATM   23  C10 UNL     1      28.485   0.917   3.198  1.00  0.00     0.400 C 
HETATM   24  F1  UNL     1      28.708   2.246   3.053  1.00  0.00    -0.210 F 
HETATM   25  F2  UNL     1      27.230   0.543   3.545  1.00  0.00    -0.210 F 
ENDBRANCH  20  23
BRANCH  20  26
HETATM   26  C11 UNL     1      29.913  -0.979   3.655  1.00  0.00     0.427 C 
HETATM   27  F3  UNL     1      28.865  -1.814   3.488  1.00  0.00    -0.167 F 
HETATM   28  F4  UNL     1      30.975  -1.561   4.332  1.00  0.00    -0.167 F 
HETATM   29  F5  UNL     1      30.422  -0.719   2.370  1.00  0.00    -0.167 F 
ENDBRANCH  20  26
ENDBRANCH  19  20
ENDBRANCH   1  19
BRANCH   2  30
HETATM   30  C12 UNL     1      29.720   0.096   8.290  1.00  0.00     0.086 C 
HETATM   31  C13 UNL     1      30.933   0.391   9.198  1.00  0.00     0.030 C 
HETATM   32  C14 UNL     1      30.784  -0.442  10.423  1.00  0.00    -0.012 C 
HETATM   33  C15 UNL     1      29.858   0.295  11.367  1.00  0.00     0.005 C 
HETATM   34  C18 UNL     1      29.821  -1.537   9.934  1.00  0.00     0.011 C 
HETATM   35  C16 UNL     1      28.580   0.355  10.517  1.00  0.00     0.007 C 
HETATM   36  C17 UNL     1      28.797  -0.546   9.347  1.00  0.00     0.009 C 
ENDBRANCH   2  30
TORSDOF 11
ENDMDL
MODEL 4
REMARK VINA RESULT: -7.725585900      1.849      5.732
REMARK  11 active torsions:
REMARK  status: ('A' for Active; 'I' for Inactive)
REMARK    1  A    between atoms: O1_1  and  C1_3 
REMARK    2  A    between atoms: C1_3  and  N1_4 
REMARK    3  A    between atoms: C1_3  and  C7_12 
REMARK    4  A    between atoms: C1_3  and  C19_33 
REMARK    5  A    between atoms: C2_6  and  C3_7 
REMARK    6  A    between atoms: C7_12  and  C8_13 
REMARK    7  A    between atoms: C8_13  and  C9_14 
REMARK    8  A    between atoms: C9_14  and  O3_15 
REMARK    9  A    between atoms: C9_14  and  C10_17 
REMARK   10  A    between atoms: C9_14  and  C11_20 
REMARK   11  A    between atoms: N2_24  and  C12_26 
ROOT
HETATM    1  C7  UNL     1      28.505   1.417   6.448  1.00  0.00     0.070 C 
HETATM    2  N2  UNL     1      29.189   1.253   7.572  1.00  0.00    -0.384 N 
ATOM      3  H2  UNL     1      29.371   2.121   8.075  1.00  0.00     0.160 HD
ENDROOT
BRANCH   1   4
HETATM    4  C1  UNL     1      28.176   2.826   6.209  1.00  0.00     0.276 C 
BRANCH   4   5
HETATM    5  O1  UNL     1      27.898   3.356   7.553  1.00  0.00    -0.359 OA
ATOM      6  H1  UNL     1      27.259   2.722   7.856  1.00  0.00     0.213 HD
ENDBRANCH   4   5
BRANCH   4   7
HETATM    7  N1  UNL     1      26.851   2.952   5.602  1.00  0.00    -0.353 N 
HETATM    8  C2  UNL     1      26.017   3.824   5.968  1.00  0.00     0.123 C 
ATOM      9  H1  UNL     1      26.592   2.309   4.853  1.00  0.00     0.162 HD
BRANCH   8  10
HETATM   10  C3  UNL     1      24.712   3.855   5.282  1.00  0.00     0.090 A 
HETATM   11  C4  UNL     1      23.963   2.753   4.898  1.00  0.00     0.040 A 
HETATM   12  C5  UNL     1      22.823   3.212   4.295  1.00  0.00     0.027 A 
HETATM   13  C6  UNL     1      22.909   4.586   4.329  1.00  0.00     0.142 A 
HETATM   14  O2  UNL     1      24.028   4.903   4.914  1.00  0.00    -0.321 OA
ENDBRANCH   8  10
ENDBRANCH   4   7
BRANCH   4  15
HETATM   15  C19 UNL     1      29.140   3.801   5.697  1.00  0.00     0.444 C 
HETATM   16  F6  UNL     1      30.289   3.251   5.230  1.00  0.00    -0.166 F 
HETATM   17  F7  UNL     1      28.705   4.883   5.012  1.00  0.00    -0.166 F 
HETATM   18  F8  UNL     1      29.590   4.460   6.945  1.00  0.00    -0.166 F 
ENDBRANCH   4  15
ENDBRANCH   1   4
BRANCH   1  19
HETATM   19  C8  UNL     1      28.162   0.262   5.669  1.00  0.00     0.055 C 
BRANCH  19  20
HETATM   20  C9  UNL     1      28.562  -0.027   4.299  1.00  0.00     0.235 C 
BRANCH  20  21
HETATM   21  O3  UNL     1      28.581  -1.308   3.829  1.00  0.00    -0.373 OA
ATOM     22  H3  UNL     1      28.216  -1.523   2.979  1.00  0.00     0.211 HD
ENDBRANCH  20  21
BRANCH  20  23
HETATM   23  C10 UNL     1      30.084   0.366   4.259  1.00  0.00     0.400 C 
HETATM   24  F1  UNL     1      30.491   0.273   2.969  1.00  0.00    -0.210 F 
HETATM   25  F2  UNL     1      30.793  -0.337   5.173  1.00  0.00    -0.210 F 
ENDBRANCH  20  23
BRANCH  20  26
HETATM   26  C11 UNL     1      27.957   0.836   3.211  1.00  0.00     0.427 C 
HETATM   27  F3  UNL     1      28.570   2.029   3.049  1.00  0.00    -0.167 F 
HETATM   28  F4  UNL     1      26.579   0.941   3.331  1.00  0.00    -0.167 F 
HETATM   29  F5  UNL     1      28.148   0.126   2.013  1.00  0.00    -0.167 F 
ENDBRANCH  20  26
ENDBRANCH  19  20
ENDBRANCH   1  19
BRANCH   2  30
HETATM   30  C12 UNL     1      29.694   0.143   8.183  1.00  0.00     0.086 C 
HETATM   31  C13 UNL     1      30.923   0.424   9.074  1.00  0.00     0.030 C 
HETATM   32  C14 UNL     1      30.763  -0.381  10.317  1.00  0.00    -0.012 C 
HETATM   33  C15 UNL     1      29.865   0.398  11.254  1.00  0.00     0.005 C 
HETATM   34  C18 UNL     1      29.767  -1.460   9.857  1.00  0.00     0.011 C 
HETATM   35  C16 UNL     1      28.582   0.474  10.413  1.00  0.00     0.007 C 
HETATM   36  C17 UNL     1      28.765  -0.454   9.259  1.00  0.00     0.009 C 
ENDBRANCH   2  30
TORSDOF 11
ENDMDL
MODEL 5
REMARK VINA RESULT: -7.528688177      1.122      2.015
REMARK  11 active torsions:
REMARK  status: ('A' for Active; 'I' for Inactive)
REMARK    1  A    between atoms: O1_1  and  C1_3 
REMARK    2  A    between atoms: C1_3  and  N1_4 
REMARK    3  A    between atoms: C1_3  and  C7_12 
REMARK    4  A    between atoms: C1_3  and  C19_33 
REMARK    5  A    between atoms: C2_6  and  C3_7 
REMARK    6  A    between atoms: C7_12  and  C8_13 
REMARK    7  A    between atoms: C8_13  and  C9_14 
REMARK    8  A    between atoms: C9_14  and  O3_15 
REMARK    9  A    between atoms: C9_14  and  C10_17 
REMARK   10  A    between atoms: C9_14  and  C11_20 
REMARK   11  A    between atoms: N2_24  and  C12_26 
ROOT
HETATM    1  C7  UNL     1      28.331   1.189   5.631  1.00  0.00     0.070 C 
HETATM    2  N2  UNL     1      27.171   1.743   5.303  1.00  0.00    -0.384 N 
ATOM      3  H2  UNL     1      27.009   2.650   5.741  1.00  0.00     0.160 HD
ENDROOT
BRANCH   1   4
HETATM    4  C1  UNL     1      29.100   2.035   6.551  1.00  0.00     0.276 C 
BRANCH   4   5
HETATM    5  O1  UNL     1      30.459   1.476   6.490  1.00  0.00    -0.359 OA
ATOM      6  H1  UNL     1      30.266   0.593   6.201  1.00  0.00     0.213 HD
ENDBRANCH   4   5
BRANCH   4   7
HETATM    7  N1  UNL     1      28.756   1.732   7.940  1.00  0.00    -0.353 N 
HETATM    8  C2  UNL     1      29.530   1.097   8.707  1.00  0.00     0.123 C 
ATOM      9  H1  UNL     1      27.856   2.047   8.303  1.00  0.00     0.162 HD
BRANCH   8  10
HETATM   10  C3  UNL     1      29.075   0.850  10.088  1.00  0.00     0.090 A 
HETATM   11  C4  UNL     1      29.700   0.039  11.023  1.00  0.00     0.040 A 
HETATM   12  C5  UNL     1      28.960   0.083  12.174  1.00  0.00     0.027 A 
HETATM   13  C6  UNL     1      27.902   0.923  11.908  1.00  0.00     0.142 A 
HETATM   14  O2  UNL     1      28.021   1.339  10.680  1.00  0.00    -0.321 OA
ENDBRANCH   8  10
ENDBRANCH   4   7
BRANCH   4  15
HETATM   15  C19 UNL     1      29.350   3.458   6.316  1.00  0.00     0.444 C 
HETATM   16  F6  UNL     1      28.449   4.050   5.492  1.00  0.00    -0.166 F 
HETATM   17  F7  UNL     1      29.801   4.238   7.324  1.00  0.00    -0.166 F 
HETATM   18  F8  UNL     1      30.566   3.412   5.471  1.00  0.00    -0.166 F 
ENDBRANCH   4  15
ENDBRANCH   1   4
BRANCH   1  19
HETATM   19  C8  UNL     1      28.684  -0.075   5.053  1.00  0.00     0.055 C 
BRANCH  19  20
HETATM   20  C9  UNL     1      29.211  -0.317   3.717  1.00  0.00     0.235 C 
BRANCH  20  21
HETATM   21  O3  UNL     1      28.517  -1.068   2.814  1.00  0.00    -0.373 OA
ATOM     22  H3  UNL     1      27.622  -0.848   2.579  1.00  0.00     0.211 HD
ENDBRANCH  20  21
BRANCH  20  23
HETATM   23  C10 UNL     1      30.489  -1.198   3.970  1.00  0.00     0.400 C 
HETATM   24  F1  UNL     1      30.154  -2.483   3.700  1.00  0.00    -0.210 F 
HETATM   25  F2  UNL     1      31.018  -0.949   5.191  1.00  0.00    -0.210 F 
ENDBRANCH  20  23
BRANCH  20  26
HETATM   26  C11 UNL     1      29.763   0.879   2.970  1.00  0.00     0.427 C 
HETATM   27  F3  UNL     1      30.731   1.546   3.635  1.00  0.00    -0.167 F 
HETATM   28  F4  UNL     1      28.759   1.707   2.491  1.00  0.00    -0.167 F 
HETATM   29  F5  UNL     1      30.365   0.359   1.811  1.00  0.00    -0.167 F 
ENDBRANCH  20  26
ENDBRANCH  19  20
ENDBRANCH   1  19
BRANCH   2  30
HETATM   30  C12 UNL     1      26.155   1.329   4.493  1.00  0.00     0.086 C 
HETATM   31  C13 UNL     1      24.748   1.611   5.060  1.00  0.00     0.030 C 
HETATM   32  C14 UNL     1      23.903   2.095   3.932  1.00  0.00    -0.012 C 
HETATM   33  C15 UNL     1      24.168   3.576   3.766  1.00  0.00     0.005 C 
HETATM   34  C18 UNL     1      24.683   1.564   2.716  1.00  0.00     0.011 C 
HETATM   35  C16 UNL     1      25.668   3.557   3.434  1.00  0.00     0.007 C 
HETATM   36  C17 UNL     1      26.038   2.134   3.182  1.00  0.00     0.009 C 
ENDBRANCH   2  30
TORSDOF 11
ENDMDL
