MODEL 1
REMARK VINA RESULT: -8.706712232      0.000      0.000
REMARK  8 active torsions:
REMARK  status: ('A' for Active; 'I' for Inactive)
REMARK    1  A    between atoms: O1_2  and  C2_3 
REMARK    2  A    between atoms: C5_8  and  N2_9 
REMARK    3  A    between atoms: C8_12  and  N3_13 
REMARK    4  A    between atoms: N3_13  and  C9_15 
REMARK    5  A    between atoms: C12_18  and  N4_19 
REMARK    6  A    between atoms: N4_19  and  C13_21 
REMARK    7  A    between atoms: C13_21  and  C14_22 
REMARK    8  A    between atoms: C17_28  and  C18_30 
ROOT
HETATM    1  N2  UNL     1      29.070   1.299   7.694  1.00  0.00    -0.363 N 
HETATM    2  C6  UNL     1      28.714   2.723   7.659  1.00  0.00     0.130 C 
HETATM    3  C7  UNL     1      29.693   3.420   6.698  1.00  0.00     0.076 C 
HETATM    4  C8  UNL     1      29.697   2.780   5.363  1.00  0.00     0.035 C 
HETATM    5  C17 UNL     1      29.723   1.281   5.405  1.00  0.00     0.253 C 
HETATM    6  F4  UNL     1      31.048   0.884   5.658  1.00  0.00    -0.225 F 
HETATM    7  C19 UNL     1      28.853   0.625   6.445  1.00  0.00     0.184 C 
ENDROOT
BRANCH   4   8
HETATM    8  N3  UNL     1      28.880   3.339   4.345  1.00  0.00    -0.389 N 
ATOM      9  H3  UNL     1      28.891   2.934   3.409  1.00  0.00     0.159 HD
BRANCH   8  10
HETATM   10  C9  UNL     1      28.047   4.456   4.616  1.00  0.00     0.081 C 
HETATM   11  C10 UNL     1      26.703   4.242   5.190  1.00  0.00     0.027 C 
HETATM   12  C11 UNL     1      25.898   5.541   5.175  1.00  0.00     0.027 C 
HETATM   13  C12 UNL     1      25.590   5.915   3.766  1.00  0.00     0.077 C 
HETATM   14  C15 UNL     1      26.619   5.414   2.789  1.00  0.00     0.027 C 
HETATM   15  C16 UNL     1      28.000   5.399   3.407  1.00  0.00     0.027 C 
BRANCH  13  16
HETATM   16  N4  UNL     1      24.280   5.513   3.350  1.00  0.00    -0.409 N 
ATOM     17  H4  UNL     1      24.030   5.385   2.369  1.00  0.00     0.153 HD
BRANCH  16  18
HETATM   18  C13 UNL     1      23.339   5.302   4.428  1.00  0.00     0.232 C 
BRANCH  18  19
HETATM   19  C14 UNL     1      22.976   3.839   4.532  1.00  0.00     0.402 C 
HETATM   20  F1  UNL     1      21.582   3.745   4.421  1.00  0.00    -0.169 F 
HETATM   21  F2  UNL     1      23.324   3.399   5.809  1.00  0.00    -0.169 F 
HETATM   22  F3  UNL     1      23.552   3.092   3.554  1.00  0.00    -0.169 F 
ENDBRANCH  18  19
ENDBRANCH  16  18
ENDBRANCH  13  16
ENDBRANCH   8  10
ENDBRANCH   4   8
BRANCH   5  23
HETATM   23  C18 UNL     1      29.386   0.643   4.076  1.00  0.00     0.430 C 
HETATM   24  F5  UNL     1      29.740  -0.693   4.181  1.00  0.00    -0.167 F 
HETATM   25  F6  UNL     1      30.233   1.212   3.140  1.00  0.00    -0.167 F 
HETATM   26  F7  UNL     1      28.069   0.670   3.752  1.00  0.00    -0.167 F 
ENDBRANCH   5  23
BRANCH   1  27
HETATM   27  C5  UNL     1      29.577   0.787   8.899  1.00  0.00     0.105 A 
HETATM   28  N1  UNL     1      30.879   0.471   8.941  1.00  0.00    -0.352 N 
HETATM   29  C4  UNL     1      31.458   0.015  10.057  1.00  0.00     0.092 A 
ATOM     30  H1  UNL     1      31.444   0.581   8.099  1.00  0.00     0.166 HD
HETATM   31  C3  UNL     1      30.699  -0.131  11.190  1.00  0.00     0.053 A 
HETATM   32  C2  UNL     1      29.357   0.175  11.217  1.00  0.00     0.073 A 
HETATM   33  C20 UNL     1      28.808   0.642  10.032  1.00  0.00     0.085 A 
BRANCH  32  34
HETATM   34  O1  UNL     1      28.584   0.031  12.368  1.00  0.00    -0.356 OA
HETATM   35  C1  UNL     1      27.710   1.096  12.713  1.00  0.00     0.210 C 
ENDBRANCH  32  34
ENDBRANCH   1  27
TORSDOF 8
ENDMDL
MODEL 2
REMARK VINA RESULT: -8.369639114      1.027      1.130
REMARK  8 active torsions:
REMARK  status: ('A' for Active; 'I' for Inactive)
REMARK    1  A    between atoms: O1_2  and  C2_3 
REMARK    2  A    between atoms: C5_8  and  N2_9 
REMARK    3  A    between atoms: C8_12  and  N3_13 
REMARK    4  A    between atoms: N3_13  and  C9_15 
REMARK    5  A    between atoms: C12_18  and  N4_19 
REMARK    6  A    between atoms: N4_19  and  C13_21 
REMARK    7  A    between atoms: C13_21  and  C14_22 
REMARK    8  A    between atoms: C17_28  and  C18_30 
ROOT
HETATM    1  N2  UNL     1      29.110   1.433   7.757  1.00  0.00    -0.363 N 
HETATM    2  C6  UNL     1      28.896   2.885   7.745  1.00  0.00     0.130 C 
HETATM    3  C7  UNL     1      29.936   3.497   6.789  1.00  0.00     0.076 C 
HETATM    4  C8  UNL     1      29.871   2.880   5.445  1.00  0.00     0.035 C 
HETATM    5  C17 UNL     1      29.749   1.385   5.465  1.00  0.00     0.253 C 
HETATM    6  F4  UNL     1      31.030   0.856   5.705  1.00  0.00    -0.225 F 
HETATM    7  C19 UNL     1      28.823   0.802   6.500  1.00  0.00     0.184 C 
ENDROOT
BRANCH   4   8
HETATM    8  N3  UNL     1      29.109   3.533   4.440  1.00  0.00    -0.389 N 
ATOM      9  H3  UNL     1      29.360   3.413   3.458  1.00  0.00     0.159 HD
BRANCH   8  10
HETATM   10  C9  UNL     1      28.001   4.350   4.787  1.00  0.00     0.081 C 
HETATM   11  C10 UNL     1      26.787   3.730   5.355  1.00  0.00     0.027 C 
HETATM   12  C11 UNL     1      25.647   4.746   5.426  1.00  0.00     0.027 C 
HETATM   13  C12 UNL     1      25.212   5.099   4.046  1.00  0.00     0.077 C 
HETATM   14  C15 UNL     1      26.317   4.968   3.032  1.00  0.00     0.027 C 
HETATM   15  C16 UNL     1      27.661   5.310   3.640  1.00  0.00     0.027 C 
BRANCH  13  16
HETATM   16  N4  UNL     1      24.059   4.367   3.614  1.00  0.00    -0.409 N 
ATOM     17  H4  UNL     1      23.466   4.680   2.845  1.00  0.00     0.153 HD
BRANCH  16  18
HETATM   18  C13 UNL     1      23.802   3.150   4.352  1.00  0.00     0.232 C 
BRANCH  18  19
HETATM   19  C14 UNL     1      24.418   1.965   3.646  1.00  0.00     0.402 C 
HETATM   20  F1  UNL     1      23.379   1.267   3.016  1.00  0.00    -0.169 F 
HETATM   21  F2  UNL     1      24.960   1.123   4.616  1.00  0.00    -0.169 F 
HETATM   22  F3  UNL     1      25.335   2.337   2.714  1.00  0.00    -0.169 F 
ENDBRANCH  18  19
ENDBRANCH  16  18
ENDBRANCH  13  16
ENDBRANCH   8  10
ENDBRANCH   4   8
BRANCH   5  23
HETATM   23  C18 UNL     1      29.346   0.804   4.129  1.00  0.00     0.430 C 
HETATM   24  F5  UNL     1      29.526  -0.567   4.227  1.00  0.00    -0.167 F 
HETATM   25  F6  UNL     1      30.266   1.266   3.204  1.00  0.00    -0.167 F 
HETATM   26  F7  UNL     1      28.045   1.000   3.794  1.00  0.00    -0.167 F 
ENDBRANCH   5  23
BRANCH   1  27
HETATM   27  C5  UNL     1      29.569   0.856   8.953  1.00  0.00     0.105 A 
HETATM   28  N1  UNL     1      30.852   0.468   9.003  1.00  0.00    -0.352 N 
HETATM   29  C4  UNL     1      31.387  -0.055  10.111  1.00  0.00     0.092 A 
ATOM     30  H1  UNL     1      31.436   0.574   8.173  1.00  0.00     0.166 HD
HETATM   31  C3  UNL     1      30.603  -0.196  11.228  1.00  0.00     0.053 A 
HETATM   32  C2  UNL     1      29.279   0.181  11.245  1.00  0.00     0.073 A 
HETATM   33  C20 UNL     1      28.775   0.716  10.069  1.00  0.00     0.085 A 
BRANCH  32  34
HETATM   34  O1  UNL     1      28.480   0.042  12.379  1.00  0.00    -0.356 OA
HETATM   35  C1  UNL     1      27.642   1.132  12.734  1.00  0.00     0.210 C 
ENDBRANCH  32  34
ENDBRANCH   1  27
TORSDOF 8
ENDMDL
MODEL 3
REMARK VINA RESULT: -7.390947231      1.666      2.068
REMARK  8 active torsions:
REMARK  status: ('A' for Active; 'I' for Inactive)
REMARK    1  A    between atoms: O1_2  and  C2_3 
REMARK    2  A    between atoms: C5_8  and  N2_9 
REMARK    3  A    between atoms: C8_12  and  N3_13 
REMARK    4  A    between atoms: N3_13  and  C9_15 
REMARK    5  A    between atoms: C12_18  and  N4_19 
REMARK    6  A    between atoms: N4_19  and  C13_21 
REMARK    7  A    between atoms: C13_21  and  C14_22 
REMARK    8  A    between atoms: C17_28  and  C18_30 
ROOT
HETATM    1  N2  UNL     1      29.142   1.095   7.745  1.00  0.00    -0.363 N 
HETATM    2  C6  UNL     1      28.631   2.469   7.659  1.00  0.00     0.130 C 
HETATM    3  C7  UNL     1      29.549   3.244   6.697  1.00  0.00     0.076 C 
HETATM    4  C8  UNL     1      29.655   2.571   5.383  1.00  0.00     0.035 C 
HETATM    5  C17 UNL     1      29.848   1.086   5.472  1.00  0.00     0.253 C 
HETATM    6  F4  UNL     1      31.202   0.848   5.763  1.00  0.00    -0.225 F 
HETATM    7  C19 UNL     1      29.032   0.366   6.513  1.00  0.00     0.184 C 
ENDROOT
BRANCH   4   8
HETATM    8  N3  UNL     1      28.805   3.006   4.332  1.00  0.00    -0.389 N 
ATOM      9  H3  UNL     1      29.166   3.645   3.622  1.00  0.00     0.159 HD
BRANCH   8  10
HETATM   10  C9  UNL     1      27.459   2.562   4.257  1.00  0.00     0.081 C 
HETATM   11  C10 UNL     1      26.637   2.920   3.084  1.00  0.00     0.027 C 
HETATM   12  C11 UNL     1      25.173   2.552   3.320  1.00  0.00     0.027 C 
HETATM   13  C12 UNL     1      24.609   3.426   4.387  1.00  0.00     0.077 C 
HETATM   14  C15 UNL     1      25.648   3.899   5.367  1.00  0.00     0.027 C 
HETATM   15  C16 UNL     1      26.723   2.853   5.572  1.00  0.00     0.027 C 
BRANCH  13  16
HETATM   16  N4  UNL     1      23.876   4.543   3.870  1.00  0.00    -0.409 N 
ATOM     17  H4  UNL     1      23.366   4.504   2.987  1.00  0.00     0.153 HD
BRANCH  16  18
HETATM   18  C13 UNL     1      23.915   5.729   4.696  1.00  0.00     0.232 C 
BRANCH  18  19
HETATM   19  C14 UNL     1      24.655   6.840   3.988  1.00  0.00     0.402 C 
HETATM   20  F1  UNL     1      25.985   6.426   3.834  1.00  0.00    -0.169 F 
HETATM   21  F2  UNL     1      24.659   7.955   4.826  1.00  0.00    -0.169 F 
HETATM   22  F3  UNL     1      24.129   7.115   2.765  1.00  0.00    -0.169 F 
ENDBRANCH  18  19
ENDBRANCH  16  18
ENDBRANCH  13  16
ENDBRANCH   8  10
ENDBRANCH   4   8
BRANCH   5  23
HETATM   23  C18 UNL     1      29.615   0.377   4.157  1.00  0.00     0.430 C 
HETATM   24  F5  UNL     1      30.357  -0.793   4.205  1.00  0.00    -0.167 F 
HETATM   25  F6  UNL     1      30.182   1.172   3.175  1.00  0.00    -0.167 F 
HETATM   26  F7  UNL     1      28.329   0.011   3.928  1.00  0.00    -0.167 F 
ENDBRANCH   5  23
BRANCH   1  27
HETATM   27  C5  UNL     1      29.674   0.678   8.976  1.00  0.00     0.105 A 
HETATM   28  N1  UNL     1      30.994   0.450   9.037  1.00  0.00    -0.352 N 
HETATM   29  C4  UNL     1      31.595   0.089  10.175  1.00  0.00     0.092 A 
ATOM     30  H1  UNL     1      31.556   0.555   8.192  1.00  0.00     0.166 HD
HETATM   31  C3  UNL     1      30.840  -0.050  11.312  1.00  0.00     0.053 A 
HETATM   32  C2  UNL     1      29.482   0.168  11.320  1.00  0.00     0.073 A 
HETATM   33  C20 UNL     1      28.910   0.540  10.112  1.00  0.00     0.085 A 
BRANCH  32  34
HETATM   34  O1  UNL     1      28.712   0.031  12.475  1.00  0.00    -0.356 OA
HETATM   35  C1  UNL     1      27.668   0.970  12.688  1.00  0.00     0.210 C 
ENDBRANCH  32  34
ENDBRANCH   1  27
TORSDOF 8
ENDMDL
MODEL 4
REMARK VINA RESULT: -7.352366128      3.649      7.752
REMARK  8 active torsions:
REMARK  status: ('A' for Active; 'I' for Inactive)
REMARK    1  A    between atoms: O1_2  and  C2_3 
REMARK    2  A    between atoms: C5_8  and  N2_9 
REMARK    3  A    between atoms: C8_12  and  N3_13 
REMARK    4  A    between atoms: N3_13  and  C9_15 
REMARK    5  A    between atoms: C12_18  and  N4_19 
REMARK    6  A    between atoms: N4_19  and  C13_21 
REMARK    7  A    between atoms: C13_21  and  C14_22 
REMARK    8  A    between atoms: C17_28  and  C18_30 
ROOT
HETATM    1  N2  UNL     1      26.937   3.345   4.317  1.00  0.00    -0.363 N 
HETATM    2  C6  UNL     1      27.638   3.630   5.575  1.00  0.00     0.130 C 
HETATM    3  C7  UNL     1      27.739   2.308   6.357  1.00  0.00     0.076 C 
HETATM    4  C8  UNL     1      28.382   1.245   5.550  1.00  0.00     0.035 C 
HETATM    5  C17 UNL     1      27.891   1.173   4.135  1.00  0.00     0.253 C 
HETATM    6  F4  UNL     1      26.659   0.495   4.144  1.00  0.00    -0.225 F 
HETATM    7  C19 UNL     1      27.674   2.487   3.433  1.00  0.00     0.184 C 
ENDROOT
BRANCH   4   8
HETATM    8  N3  UNL     1      29.774   1.021   5.718  1.00  0.00    -0.389 N 
ATOM      9  H3  UNL     1      30.370   0.913   4.897  1.00  0.00     0.159 HD
BRANCH   8  10
HETATM   10  C9  UNL     1      30.345   0.945   7.015  1.00  0.00     0.081 C 
HETATM   11  C10 UNL     1      30.178  -0.286   7.815  1.00  0.00     0.027 C 
HETATM   12  C11 UNL     1      30.656  -0.065   9.249  1.00  0.00     0.027 C 
HETATM   13  C12 UNL     1      29.739   0.890   9.934  1.00  0.00     0.077 C 
HETATM   14  C15 UNL     1      29.082   1.854   8.983  1.00  0.00     0.027 C 
HETATM   15  C16 UNL     1      30.000   2.198   7.829  1.00  0.00     0.027 C 
BRANCH  13  16
HETATM   16  N4  UNL     1      28.749   0.241  10.739  1.00  0.00    -0.409 N 
ATOM     17  H4  UNL     1      27.783   0.121  10.432  1.00  0.00     0.153 HD
BRANCH  16  18
HETATM   18  C13 UNL     1      29.223  -0.231  12.021  1.00  0.00     0.232 C 
BRANCH  18  19
HETATM   19  C14 UNL     1      28.508   0.483  13.144  1.00  0.00     0.402 C 
HETATM   20  F1  UNL     1      29.430   1.356  13.739  1.00  0.00    -0.169 F 
HETATM   21  F2  UNL     1      28.154  -0.467  14.100  1.00  0.00    -0.169 F 
HETATM   22  F3  UNL     1      27.438   1.197  12.704  1.00  0.00    -0.169 F 
ENDBRANCH  18  19
ENDBRANCH  16  18
ENDBRANCH  13  16
ENDBRANCH   8  10
ENDBRANCH   4   8
BRANCH   5  23
HETATM   23  C18 UNL     1      28.776   0.333   3.242  1.00  0.00     0.430 C 
HETATM   24  F5  UNL     1      28.179   0.327   1.991  1.00  0.00    -0.167 F 
HETATM   25  F6  UNL     1      28.708  -0.963   3.726  1.00  0.00    -0.167 F 
HETATM   26  F7  UNL     1      30.032   0.817   3.070  1.00  0.00    -0.167 F 
ENDBRANCH   5  23
BRANCH   1  27
HETATM   27  C5  UNL     1      25.665   3.914   4.141  1.00  0.00     0.105 A 
HETATM   28  N1  UNL     1      24.618   3.081   4.057  1.00  0.00    -0.352 N 
HETATM   29  C4  UNL     1      23.367   3.534   3.930  1.00  0.00     0.092 A 
ATOM     30  H1  UNL     1      24.780   2.075   4.092  1.00  0.00     0.166 HD
HETATM   31  C3  UNL     1      23.148   4.888   3.886  1.00  0.00     0.053 A 
HETATM   32  C2  UNL     1      24.177   5.798   3.966  1.00  0.00     0.073 A 
HETATM   33  C20 UNL     1      25.455   5.275   4.096  1.00  0.00     0.085 A 
BRANCH  32  34
HETATM   34  O1  UNL     1      23.958   7.174   3.925  1.00  0.00    -0.356 OA
HETATM   35  C1  UNL     1      24.201   7.918   5.110  1.00  0.00     0.210 C 
ENDBRANCH  32  34
ENDBRANCH   1  27
TORSDOF 8
ENDMDL
MODEL 5
REMARK VINA RESULT: -7.223064185      3.516      7.764
REMARK  8 active torsions:
REMARK  status: ('A' for Active; 'I' for Inactive)
REMARK    1  A    between atoms: O1_2  and  C2_3 
REMARK    2  A    between atoms: C5_8  and  N2_9 
REMARK    3  A    between atoms: C8_12  and  N3_13 
REMARK    4  A    between atoms: N3_13  and  C9_15 
REMARK    5  A    between atoms: C12_18  and  N4_19 
REMARK    6  A    between atoms: N4_19  and  C13_21 
REMARK    7  A    between atoms: C13_21  and  C14_22 
REMARK    8  A    between atoms: C17_28  and  C18_30 
ROOT
HETATM    1  N2  UNL     1      27.533   4.023   4.108  1.00  0.00    -0.363 N 
HETATM    2  C6  UNL     1      28.327   4.230   5.325  1.00  0.00     0.130 C 
HETATM    3  C7  UNL     1      28.090   3.019   6.244  1.00  0.00     0.076 C 
HETATM    4  C8  UNL     1      28.391   1.743   5.553  1.00  0.00     0.035 C 
HETATM    5  C17 UNL     1      27.853   1.665   4.156  1.00  0.00     0.253 C 
HETATM    6  F4  UNL     1      26.484   1.356   4.243  1.00  0.00    -0.225 F 
HETATM    7  C19 UNL     1      27.979   2.910   3.318  1.00  0.00     0.184 C 
ENDROOT
BRANCH   4   8
HETATM    8  N3  UNL     1      29.675   1.164   5.738  1.00  0.00    -0.389 N 
ATOM      9  H3  UNL     1      30.181   0.791   4.933  1.00  0.00     0.159 HD
BRANCH   8  10
HETATM   10  C9  UNL     1      30.262   1.098   7.028  1.00  0.00     0.081 C 
HETATM   11  C10 UNL     1      30.243  -0.176   7.774  1.00  0.00     0.027 C 
HETATM   12  C11 UNL     1      30.704   0.036   9.215  1.00  0.00     0.027 C 
HETATM   13  C12 UNL     1      29.690   0.850   9.944  1.00  0.00     0.077 C 
HETATM   14  C15 UNL     1      28.919   1.772   9.039  1.00  0.00     0.027 C 
HETATM   15  C16 UNL     1      29.783   2.267   7.898  1.00  0.00     0.027 C 
BRANCH  13  16
HETATM   16  N4  UNL     1      28.787   0.058  10.724  1.00  0.00    -0.409 N 
ATOM     17  H4  UNL     1      27.866  -0.220  10.383  1.00  0.00     0.153 HD
BRANCH  16  18
HETATM   18  C13 UNL     1      29.281  -0.317  12.030  1.00  0.00     0.232 C 
BRANCH  18  19
HETATM   19  C14 UNL     1      28.589   0.486  13.106  1.00  0.00     0.402 C 
HETATM   20  F1  UNL     1      28.120  -0.421  14.067  1.00  0.00    -0.169 F 
HETATM   21  F2  UNL     1      27.476   1.101  12.534  1.00  0.00    -0.169 F 
HETATM   22  F3  UNL     1      29.422   1.378  13.703  1.00  0.00    -0.169 F 
ENDBRANCH  18  19
ENDBRANCH  16  18
ENDBRANCH  13  16
ENDBRANCH   8  10
ENDBRANCH   4   8
BRANCH   5  23
HETATM   23  C18 UNL     1      28.445   0.528   3.354  1.00  0.00     0.430 C 
HETATM   24  F5  UNL     1      27.779   0.517   2.138  1.00  0.00    -0.167 F 
HETATM   25  F6  UNL     1      28.100  -0.641   4.013  1.00  0.00    -0.167 F 
HETATM   26  F7  UNL     1      29.765   0.660   3.072  1.00  0.00    -0.167 F 
ENDBRANCH   5  23
BRANCH   1  27
HETATM   27  C5  UNL     1      26.459   4.898   3.878  1.00  0.00     0.105 A 
HETATM   28  N1  UNL     1      26.708   6.016   3.180  1.00  0.00    -0.352 N 
HETATM   29  C4  UNL     1      25.740   6.887   2.878  1.00  0.00     0.092 A 
ATOM     30  H1  UNL     1      27.661   6.206   2.871  1.00  0.00     0.166 HD
HETATM   31  C3  UNL     1      24.458   6.630   3.292  1.00  0.00     0.053 A 
HETATM   32  C2  UNL     1      24.134   5.503   4.011  1.00  0.00     0.073 A 
HETATM   33  C20 UNL     1      25.175   4.633   4.298  1.00  0.00     0.085 A 
BRANCH  32  34
HETATM   34  O1  UNL     1      22.831   5.237   4.431  1.00  0.00    -0.356 OA
HETATM   35  C1  UNL     1      22.385   3.889   4.386  1.00  0.00     0.210 C 
ENDBRANCH  32  34
ENDBRANCH   1  27
TORSDOF 8
ENDMDL
