MODEL 1
REMARK VINA RESULT: -8.573659864      0.000      0.000
REMARK  11 active torsions:
REMARK  status: ('A' for Active; 'I' for Inactive)
REMARK       I    between atoms: C1_2  and  N1_3 
REMARK    1  A    between atoms: C1_2  and  O4_27 
REMARK    2  A    between atoms: N1_3  and  N2_5 
REMARK       I    between atoms: N2_5  and  C2_7 
REMARK    3  A    between atoms: C2_7  and  C3_9 
REMARK    4  A    between atoms: C3_9  and  C4_10 
REMARK    5  A    between atoms: C3_9  and  C12_20 
REMARK    6  A    between atoms: C4_10  and  S1_11 
REMARK    7  A    between atoms: S1_11  and  C5_12 
REMARK    8  A    between atoms: C5_12  and  C6_14 
REMARK    9  A    between atoms: C12_20  and  C13_23 
REMARK   10  A    between atoms: O4_27  and  C14_28 
REMARK   11  A    between atoms: C14_28  and  C15_29 
ROOT
HETATM    1  C3  UNL     1      25.795   3.468   5.472  1.00  0.00     0.171 C 
ENDROOT
BRANCH   1   2
HETATM    2  C2  UNL     1      26.256   2.256   4.666  1.00  0.00     0.247 C 
HETATM    3  N2  UNL     1      27.584   2.133   4.204  1.00  0.00    -0.265 N 
ATOM      4  H2  UNL     1      28.257   2.871   4.407  1.00  0.00     0.190 HD
HETATM    5  O2  UNL     1      25.442   1.337   4.399  1.00  0.00    -0.271 OA
BRANCH   3   6
HETATM    6  N1  UNL     1      27.993   0.996   3.463  1.00  0.00    -0.243 N 
HETATM    7  C1  UNL     1      28.430  -0.164   4.161  1.00  0.00     0.379 C 
HETATM    8  O1  UNL     1      28.458  -0.192   5.422  1.00  0.00    -0.237 OA
ATOM      9  H1  UNL     1      27.975   1.011   2.443  1.00  0.00     0.192 HD
BRANCH   7  10
HETATM   10  O4  UNL     1      28.847  -1.314   3.511  1.00  0.00    -0.294 OA
BRANCH  10  11
HETATM   11  C14 UNL     1      30.053  -1.378   2.775  1.00  0.00     0.297 C 
BRANCH  11  12
HETATM   12  C15 UNL     1      31.097  -2.166   3.515  1.00  0.00     0.409 C 
HETATM   13  F6  UNL     1      31.429  -1.558   4.717  1.00  0.00    -0.169 F 
HETATM   14  F7  UNL     1      32.257  -2.121   2.731  1.00  0.00    -0.169 F 
HETATM   15  F8  UNL     1      30.661  -3.461   3.687  1.00  0.00    -0.169 F 
ENDBRANCH  11  12
ENDBRANCH  10  11
ENDBRANCH   7  10
ENDBRANCH   3   6
ENDBRANCH   1   2
BRANCH   1  16
HETATM   16  C4  UNL     1      27.023   4.104   6.085  1.00  0.00     0.103 C 
BRANCH  16  17
HETATM   17  S1  UNL     1      27.451   3.453   7.684  1.00  0.00    -0.091 SA
BRANCH  17  18
HETATM   18  C5  UNL     1      28.862   2.376   7.570  1.00  0.00     0.190 C 
HETATM   19  O3  UNL     1      29.587   2.560   6.580  1.00  0.00    -0.285 OA
BRANCH  18  20
HETATM   20  C6  UNL     1      29.145   1.348   8.572  1.00  0.00     0.067 C 
HETATM   21  C7  UNL     1      30.611   1.114   8.844  1.00  0.00     0.013 C 
HETATM   22  C8  UNL     1      30.741  -0.183   9.611  1.00  0.00     0.001 C 
HETATM   23  C9  UNL     1      29.426  -0.706  10.124  1.00  0.00     0.000 C 
HETATM   24  C10 UNL     1      28.629   0.403  10.770  1.00  0.00     0.001 C 
HETATM   25  C11 UNL     1      28.522   1.645   9.934  1.00  0.00     0.013 C 
ENDBRANCH  18  20
ENDBRANCH  17  18
ENDBRANCH  16  17
ENDBRANCH   1  16
BRANCH   1  26
HETATM   26  C12 UNL     1      25.021   4.373   4.557  1.00  0.00     0.352 C 
HETATM   27  F1  UNL     1      25.430   4.165   3.229  1.00  0.00    -0.195 F 
HETATM   28  F2  UNL     1      25.340   5.710   4.793  1.00  0.00    -0.195 F 
BRANCH  26  29
HETATM   29  C13 UNL     1      23.541   4.157   4.624  1.00  0.00     0.455 C 
HETATM   30  F3  UNL     1      23.251   3.510   5.810  1.00  0.00    -0.165 F 
HETATM   31  F4  UNL     1      22.870   5.337   4.538  1.00  0.00    -0.165 F 
HETATM   32  F5  UNL     1      23.146   3.312   3.554  1.00  0.00    -0.165 F 
ENDBRANCH  26  29
ENDBRANCH   1  26
TORSDOF 11
ENDMDL
MODEL 2
REMARK VINA RESULT: -8.484429762      1.187      1.707
REMARK  11 active torsions:
REMARK  status: ('A' for Active; 'I' for Inactive)
REMARK       I    between atoms: C1_2  and  N1_3 
REMARK    1  A    between atoms: C1_2  and  O4_27 
REMARK    2  A    between atoms: N1_3  and  N2_5 
REMARK       I    between atoms: N2_5  and  C2_7 
REMARK    3  A    between atoms: C2_7  and  C3_9 
REMARK    4  A    between atoms: C3_9  and  C4_10 
REMARK    5  A    between atoms: C3_9  and  C12_20 
REMARK    6  A    between atoms: C4_10  and  S1_11 
REMARK    7  A    between atoms: S1_11  and  C5_12 
REMARK    8  A    between atoms: C5_12  and  C6_14 
REMARK    9  A    between atoms: C12_20  and  C13_23 
REMARK   10  A    between atoms: O4_27  and  C14_28 
REMARK   11  A    between atoms: C14_28  and  C15_29 
ROOT
HETATM    1  C3  UNL     1      25.857   3.198   5.178  1.00  0.00     0.171 C 
ENDROOT
BRANCH   1   2
HETATM    2  C2  UNL     1      26.567   2.005   4.543  1.00  0.00     0.247 C 
HETATM    3  N2  UNL     1      27.379   2.148   3.398  1.00  0.00    -0.265 N 
ATOM      4  H2  UNL     1      27.493   3.068   2.975  1.00  0.00     0.190 HD
HETATM    5  O2  UNL     1      26.436   0.860   5.044  1.00  0.00    -0.271 OA
BRANCH   3   6
HETATM    6  N1  UNL     1      28.036   1.029   2.828  1.00  0.00    -0.243 N 
HETATM    7  C1  UNL     1      29.393   0.776   3.169  1.00  0.00     0.379 C 
HETATM    8  O1  UNL     1      30.014   1.531   3.968  1.00  0.00    -0.237 OA
ATOM      9  H1  UNL     1      27.541   0.413   2.181  1.00  0.00     0.192 HD
BRANCH   7  10
HETATM   10  O4  UNL     1      30.106  -0.294   2.655  1.00  0.00    -0.294 OA
BRANCH  10  11
HETATM   11  C14 UNL     1      29.905  -1.624   3.093  1.00  0.00     0.297 C 
BRANCH  11  12
HETATM   12  C15 UNL     1      31.196  -2.243   3.551  1.00  0.00     0.409 C 
HETATM   13  F6  UNL     1      31.028  -3.586   3.858  1.00  0.00    -0.169 F 
HETATM   14  F7  UNL     1      31.531  -1.615   4.756  1.00  0.00    -0.169 F 
HETATM   15  F8  UNL     1      32.167  -2.043   2.596  1.00  0.00    -0.169 F 
ENDBRANCH  11  12
ENDBRANCH  10  11
ENDBRANCH   7  10
ENDBRANCH   3   6
ENDBRANCH   1   2
BRANCH   1  16
HETATM   16  C4  UNL     1      26.911   4.220   5.542  1.00  0.00     0.103 C 
BRANCH  16  17
HETATM   17  S1  UNL     1      28.439   3.509   6.108  1.00  0.00    -0.091 SA
BRANCH  17  18
HETATM   18  C5  UNL     1      28.326   3.051   7.823  1.00  0.00     0.190 C 
HETATM   19  O3  UNL     1      27.482   3.678   8.481  1.00  0.00    -0.285 OA
BRANCH  18  20
HETATM   20  C6  UNL     1      29.168   2.009   8.412  1.00  0.00     0.067 C 
HETATM   21  C7  UNL     1      28.546   1.275   9.576  1.00  0.00     0.013 C 
HETATM   22  C8  UNL     1      29.642   0.504  10.278  1.00  0.00     0.001 C 
HETATM   23  C9  UNL     1      30.926   0.446   9.496  1.00  0.00     0.000 C 
HETATM   24  C10 UNL     1      30.652   0.098   8.052  1.00  0.00     0.001 C 
HETATM   25  C11 UNL     1      29.574   0.925   7.417  1.00  0.00     0.013 C 
ENDBRANCH  18  20
ENDBRANCH  17  18
ENDBRANCH  16  17
ENDBRANCH   1  16
BRANCH   1  26
HETATM   26  C12 UNL     1      24.821   3.695   4.210  1.00  0.00     0.352 C 
HETATM   27  F1  UNL     1      24.372   2.631   3.409  1.00  0.00    -0.195 F 
HETATM   28  F2  UNL     1      25.383   4.582   3.291  1.00  0.00    -0.195 F 
BRANCH  26  29
HETATM   29  C13 UNL     1      23.629   4.305   4.879  1.00  0.00     0.455 C 
HETATM   30  F3  UNL     1      23.487   3.724   6.125  1.00  0.00    -0.165 F 
HETATM   31  F4  UNL     1      23.763   5.654   4.985  1.00  0.00    -0.165 F 
HETATM   32  F5  UNL     1      22.467   4.006   4.120  1.00  0.00    -0.165 F 
ENDBRANCH  26  29
ENDBRANCH   1  26
TORSDOF 11
ENDMDL
MODEL 3
REMARK VINA RESULT: -8.442709548      2.284      6.293
REMARK  11 active torsions:
REMARK  status: ('A' for Active; 'I' for Inactive)
REMARK       I    between atoms: C1_2  and  N1_3 
REMARK    1  A    between atoms: C1_2  and  O4_27 
REMARK    2  A    between atoms: N1_3  and  N2_5 
REMARK       I    between atoms: N2_5  and  C2_7 
REMARK    3  A    between atoms: C2_7  and  C3_9 
REMARK    4  A    between atoms: C3_9  and  C4_10 
REMARK    5  A    between atoms: C3_9  and  C12_20 
REMARK    6  A    between atoms: C4_10  and  S1_11 
REMARK    7  A    between atoms: S1_11  and  C5_12 
REMARK    8  A    between atoms: C5_12  and  C6_14 
REMARK    9  A    between atoms: C12_20  and  C13_23 
REMARK   10  A    between atoms: O4_27  and  C14_28 
REMARK   11  A    between atoms: C14_28  and  C15_29 
ROOT
HETATM    1  C3  UNL     1      29.116   1.498   4.410  1.00  0.00     0.171 C 
ENDROOT
BRANCH   1   2
HETATM    2  C2  UNL     1      28.114   2.632   4.617  1.00  0.00     0.247 C 
HETATM    3  N2  UNL     1      27.003   2.493   5.476  1.00  0.00    -0.265 N 
ATOM      4  H2  UNL     1      26.857   1.614   5.970  1.00  0.00     0.190 HD
HETATM    5  O2  UNL     1      28.272   3.723   4.013  1.00  0.00    -0.271 OA
BRANCH   3   6
HETATM    6  N1  UNL     1      26.089   3.561   5.660  1.00  0.00    -0.243 N 
HETATM    7  C1  UNL     1      24.879   3.571   4.911  1.00  0.00     0.379 C 
HETATM    8  O1  UNL     1      24.614   2.648   4.091  1.00  0.00    -0.237 OA
ATOM      9  H1  UNL     1      26.295   4.311   6.320  1.00  0.00     0.192 HD
BRANCH   7  10
HETATM   10  O4  UNL     1      23.935   4.577   5.031  1.00  0.00    -0.294 OA
BRANCH  10  11
HETATM   11  C14 UNL     1      23.634   5.469   3.976  1.00  0.00     0.297 C 
BRANCH  11  12
HETATM   12  C15 UNL     1      24.665   6.559   3.879  1.00  0.00     0.409 C 
HETATM   13  F6  UNL     1      24.401   7.408   2.814  1.00  0.00    -0.169 F 
HETATM   14  F7  UNL     1      25.878   5.930   3.575  1.00  0.00    -0.169 F 
HETATM   15  F8  UNL     1      24.738   7.232   5.078  1.00  0.00    -0.169 F 
ENDBRANCH  11  12
ENDBRANCH  10  11
ENDBRANCH   7  10
ENDBRANCH   3   6
ENDBRANCH   1   2
BRANCH   1  16
HETATM   16  C4  UNL     1      29.592   1.052   5.775  1.00  0.00     0.103 C 
BRANCH  16  17
HETATM   17  S1  UNL     1      29.930   2.391   6.894  1.00  0.00    -0.091 SA
BRANCH  17  18
HETATM   18  C5  UNL     1      28.905   2.278   8.343  1.00  0.00     0.190 C 
HETATM   19  O3  UNL     1      27.931   3.046   8.360  1.00  0.00    -0.285 OA
BRANCH  18  20
HETATM   20  C6  UNL     1      29.191   1.345   9.434  1.00  0.00     0.067 C 
HETATM   21  C7  UNL     1      28.091   1.213  10.459  1.00  0.00     0.013 C 
HETATM   22  C8  UNL     1      28.666   0.511  11.669  1.00  0.00     0.001 C 
HETATM   23  C9  UNL     1      30.021  -0.094  11.421  1.00  0.00     0.000 C 
HETATM   24  C10 UNL     1      30.032  -0.850  10.112  1.00  0.00     0.001 C 
HETATM   25  C11 UNL     1      29.473  -0.077   8.954  1.00  0.00     0.013 C 
ENDBRANCH  18  20
ENDBRANCH  17  18
ENDBRANCH  16  17
ENDBRANCH   1  16
BRANCH   1  26
HETATM   26  C12 UNL     1      28.445   0.421   3.605  1.00  0.00     0.352 C 
HETATM   27  F1  UNL     1      27.522   1.000   2.717  1.00  0.00    -0.195 F 
HETATM   28  F2  UNL     1      27.652  -0.387   4.420  1.00  0.00    -0.195 F 
BRANCH  26  29
HETATM   29  C13 UNL     1      29.403  -0.404   2.805  1.00  0.00     0.455 C 
HETATM   30  F3  UNL     1      28.727  -0.914   1.712  1.00  0.00    -0.165 F 
HETATM   31  F4  UNL     1      30.475   0.334   2.412  1.00  0.00    -0.165 F 
HETATM   32  F5  UNL     1      29.847  -1.496   3.595  1.00  0.00    -0.165 F 
ENDBRANCH  26  29
ENDBRANCH   1  26
TORSDOF 11
ENDMDL
MODEL 4
REMARK VINA RESULT: -8.355450778      2.229      6.402
REMARK  11 active torsions:
REMARK  status: ('A' for Active; 'I' for Inactive)
REMARK       I    between atoms: C1_2  and  N1_3 
REMARK    1  A    between atoms: C1_2  and  O4_27 
REMARK    2  A    between atoms: N1_3  and  N2_5 
REMARK       I    between atoms: N2_5  and  C2_7 
REMARK    3  A    between atoms: C2_7  and  C3_9 
REMARK    4  A    between atoms: C3_9  and  C4_10 
REMARK    5  A    between atoms: C3_9  and  C12_20 
REMARK    6  A    between atoms: C4_10  and  S1_11 
REMARK    7  A    between atoms: S1_11  and  C5_12 
REMARK    8  A    between atoms: C5_12  and  C6_14 
REMARK    9  A    between atoms: C12_20  and  C13_23 
REMARK   10  A    between atoms: O4_27  and  C14_28 
REMARK   11  A    between atoms: C14_28  and  C15_29 
ROOT
HETATM    1  C3  UNL     1      28.737   1.233   4.389  1.00  0.00     0.171 C 
ENDROOT
BRANCH   1   2
HETATM    2  C2  UNL     1      27.561   2.163   4.100  1.00  0.00     0.247 C 
HETATM    3  N2  UNL     1      26.259   1.880   4.565  1.00  0.00    -0.265 N 
ATOM      4  H2  UNL     1      26.092   1.031   5.105  1.00  0.00     0.190 HD
HETATM    5  O2  UNL     1      27.743   3.212   3.432  1.00  0.00    -0.271 OA
BRANCH   3   6
HETATM    6  N1  UNL     1      25.182   2.759   4.292  1.00  0.00    -0.243 N 
HETATM    7  C1  UNL     1      24.882   3.795   5.219  1.00  0.00     0.379 C 
HETATM    8  O1  UNL     1      25.560   3.939   6.275  1.00  0.00    -0.237 OA
ATOM      9  H1  UNL     1      24.629   2.650   3.441  1.00  0.00     0.192 HD
BRANCH   7  10
HETATM   10  O4  UNL     1      23.846   4.694   5.027  1.00  0.00    -0.294 OA
BRANCH  10  11
HETATM   11  C14 UNL     1      23.722   5.472   3.853  1.00  0.00     0.297 C 
BRANCH  11  12
HETATM   12  C15 UNL     1      24.778   6.540   3.797  1.00  0.00     0.409 C 
HETATM   13  F6  UNL     1      26.046   5.988   3.689  1.00  0.00    -0.169 F 
HETATM   14  F7  UNL     1      24.748   7.191   5.035  1.00  0.00    -0.169 F 
HETATM   15  F8  UNL     1      24.498   7.410   2.767  1.00  0.00    -0.169 F 
ENDBRANCH  11  12
ENDBRANCH  10  11
ENDBRANCH   7  10
ENDBRANCH   3   6
ENDBRANCH   1   2
BRANCH   1  16
HETATM   16  C4  UNL     1      28.750   0.959   5.877  1.00  0.00     0.103 C 
BRANCH  16  17
HETATM   17  S1  UNL     1      29.416   2.290   6.850  1.00  0.00    -0.091 SA
BRANCH  17  18
HETATM   18  C5  UNL     1      28.724   2.282   8.489  1.00  0.00     0.190 C 
HETATM   19  O3  UNL     1      27.847   3.135   8.695  1.00  0.00    -0.285 OA
BRANCH  18  20
HETATM   20  C6  UNL     1      29.158   1.336   9.517  1.00  0.00     0.067 C 
HETATM   21  C7  UNL     1      28.129   1.039  10.581  1.00  0.00     0.013 C 
HETATM   22  C8  UNL     1      28.832   0.348  11.728  1.00  0.00     0.001 C 
HETATM   23  C9  UNL     1      30.230  -0.095  11.392  1.00  0.00     0.000 C 
HETATM   24  C10 UNL     1      30.258  -0.784  10.047  1.00  0.00     0.001 C 
HETATM   25  C11 UNL     1      29.566  -0.023   8.955  1.00  0.00     0.013 C 
ENDBRANCH  18  20
ENDBRANCH  17  18
ENDBRANCH  16  17
ENDBRANCH   1  16
BRANCH   1  26
HETATM   26  C12 UNL     1      28.586   0.007   3.535  1.00  0.00     0.352 C 
HETATM   27  F1  UNL     1      28.003   0.356   2.305  1.00  0.00    -0.195 F 
HETATM   28  F2  UNL     1      27.665  -0.878   4.094  1.00  0.00    -0.195 F 
BRANCH  26  29
HETATM   29  C13 UNL     1      29.885  -0.682   3.252  1.00  0.00     0.455 C 
HETATM   30  F3  UNL     1      29.611  -1.975   2.849  1.00  0.00    -0.165 F 
HETATM   31  F4  UNL     1      30.595  -0.017   2.302  1.00  0.00    -0.165 F 
HETATM   32  F5  UNL     1      30.646  -0.746   4.449  1.00  0.00    -0.165 F 
ENDBRANCH  26  29
ENDBRANCH   1  26
TORSDOF 11
ENDMDL
MODEL 5
REMARK VINA RESULT: -8.210564454      2.039      6.377
REMARK  11 active torsions:
REMARK  status: ('A' for Active; 'I' for Inactive)
REMARK       I    between atoms: C1_2  and  N1_3 
REMARK    1  A    between atoms: C1_2  and  O4_27 
REMARK    2  A    between atoms: N1_3  and  N2_5 
REMARK       I    between atoms: N2_5  and  C2_7 
REMARK    3  A    between atoms: C2_7  and  C3_9 
REMARK    4  A    between atoms: C3_9  and  C4_10 
REMARK    5  A    between atoms: C3_9  and  C12_20 
REMARK    6  A    between atoms: C4_10  and  S1_11 
REMARK    7  A    between atoms: S1_11  and  C5_12 
REMARK    8  A    between atoms: C5_12  and  C6_14 
REMARK    9  A    between atoms: C12_20  and  C13_23 
REMARK   10  A    between atoms: O4_27  and  C14_28 
REMARK   11  A    between atoms: C14_28  and  C15_29 
ROOT
HETATM    1  C3  UNL     1      28.712   1.102   4.388  1.00  0.00     0.171 C 
ENDROOT
BRANCH   1   2
HETATM    2  C2  UNL     1      27.494   1.931   3.987  1.00  0.00     0.247 C 
HETATM    3  N2  UNL     1      27.626   3.208   3.400  1.00  0.00    -0.265 N 
ATOM      4  H2  UNL     1      28.556   3.594   3.242  1.00  0.00     0.190 HD
HETATM    5  O2  UNL     1      26.338   1.477   4.179  1.00  0.00    -0.271 OA
BRANCH   3   6
HETATM    6  N1  UNL     1      26.483   3.959   3.029  1.00  0.00    -0.243 N 
HETATM    7  C1  UNL     1      25.966   4.925   3.937  1.00  0.00     0.379 C 
HETATM    8  O1  UNL     1      26.510   5.119   5.059  1.00  0.00    -0.237 OA
ATOM      9  H1  UNL     1      26.037   3.809   2.124  1.00  0.00     0.192 HD
BRANCH   7  10
HETATM   10  O4  UNL     1      24.854   5.699   3.651  1.00  0.00    -0.294 OA
BRANCH  10  11
HETATM   11  C14 UNL     1      23.711   5.727   4.484  1.00  0.00     0.297 C 
BRANCH  11  12
HETATM   12  C15 UNL     1      23.049   4.378   4.538  1.00  0.00     0.409 C 
HETATM   13  F6  UNL     1      23.383   3.609   3.434  1.00  0.00    -0.169 F 
HETATM   14  F7  UNL     1      21.672   4.609   4.441  1.00  0.00    -0.169 F 
HETATM   15  F8  UNL     1      23.369   3.756   5.725  1.00  0.00    -0.169 F 
ENDBRANCH  11  12
ENDBRANCH  10  11
ENDBRANCH   7  10
ENDBRANCH   3   6
ENDBRANCH   1   2
BRANCH   1  16
HETATM   16  C4  UNL     1      28.653   0.895   5.885  1.00  0.00     0.103 C 
BRANCH  16  17
HETATM   17  S1  UNL     1      29.385   2.216   6.825  1.00  0.00    -0.091 SA
BRANCH  17  18
HETATM   18  C5  UNL     1      28.730   2.252   8.478  1.00  0.00     0.190 C 
HETATM   19  O3  UNL     1      27.879   3.130   8.689  1.00  0.00    -0.285 OA
BRANCH  18  20
HETATM   20  C6  UNL     1      29.165   1.313   9.513  1.00  0.00     0.067 C 
HETATM   21  C7  UNL     1      28.140   1.033  10.585  1.00  0.00     0.013 C 
HETATM   22  C8  UNL     1      28.846   0.348  11.735  1.00  0.00     0.001 C 
HETATM   23  C9  UNL     1      30.239  -0.108  11.393  1.00  0.00     0.000 C 
HETATM   24  C10 UNL     1      30.253  -0.810  10.055  1.00  0.00     0.001 C 
HETATM   25  C11 UNL     1      29.560  -0.055   8.960  1.00  0.00     0.013 C 
ENDBRANCH  18  20
ENDBRANCH  17  18
ENDBRANCH  16  17
ENDBRANCH   1  16
BRANCH   1  26
HETATM   26  C12 UNL     1      28.698  -0.169   3.586  1.00  0.00     0.352 C 
HETATM   27  F1  UNL     1      28.266   0.103   2.276  1.00  0.00    -0.195 F 
HETATM   28  F2  UNL     1      27.734  -1.052   4.071  1.00  0.00    -0.195 F 
BRANCH  26  29
HETATM   29  C13 UNL     1      30.037  -0.832   3.504  1.00  0.00     0.455 C 
HETATM   30  F3  UNL     1      30.703  -0.330   2.401  1.00  0.00    -0.165 F 
HETATM   31  F4  UNL     1      30.756  -0.627   4.640  1.00  0.00    -0.165 F 
HETATM   32  F5  UNL     1      29.853  -2.226   3.308  1.00  0.00    -0.165 F 
ENDBRANCH  26  29
ENDBRANCH   1  26
TORSDOF 11
ENDMDL
