MODEL 1
REMARK VINA RESULT: -4.996905210      0.000      0.000
REMARK  8 active torsions:
REMARK  status: ('A' for Active; 'I' for Inactive)
REMARK    1  A    between atoms: C2_2  and  C3_3 
REMARK    2  A    between atoms: C3_3  and  C4_4 
REMARK    3  A    between atoms: C4_4  and  N1_5 
REMARK    4  A    between atoms: N2_8  and  C7_9 
REMARK    5  A    between atoms: C10_12  and  O1_13 
REMARK    6  A    between atoms: C12_17  and  N4_18 
REMARK    7  A    between atoms: C14_24  and  N6_25 
REMARK    8  A    between atoms: N6_25  and  C15_27 
ROOT
HETATM    1  C7  UNL     1      29.081   1.085   6.416  1.00  0.00     0.072 A 
HETATM    2  C8  UNL     1      27.913   1.736   6.056  1.00  0.00     0.051 A 
HETATM    3  C9  UNL     1      27.469   1.806   4.779  1.00  0.00     0.047 A 
HETATM    4  C10 UNL     1      26.301   2.470   4.472  1.00  0.00     0.169 A 
HETATM    5  N3  UNL     1      25.937   2.493   3.182  1.00  0.00    -0.170 N 
ATOM      6  H3  UNL     1      25.076   2.980   2.937  1.00  0.00     0.186 HD
HETATM    7  C12 UNL     1      26.636   1.915   2.193  1.00  0.00     0.678 A 
HETATM    8  N5  UNL     1      27.773   1.267   2.491  1.00  0.00    -0.189 N 
ATOM      9  H5  UNL     1      28.311   0.823   1.746  1.00  0.00     0.184 HD
HETATM   10  C13 UNL     1      28.208   1.198   3.761  1.00  0.00     0.093 A 
HETATM   11  C14 UNL     1      29.382   0.531   4.054  1.00  0.00     0.098 A 
HETATM   12  C17 UNL     1      29.787   0.493   5.370  1.00  0.00     0.171 A 
HETATM   13  F1  UNL     1      30.935  -0.157   5.662  1.00  0.00    -0.201 F 
ENDROOT
BRANCH   1  14
HETATM   14  N2  UNL     1      29.501   1.034   7.733  1.00  0.00    -0.372 N 
HETATM   15  C6  UNL     1      30.766   0.418   8.085  1.00  0.00     0.153 C 
HETATM   16  C5  UNL     1      31.279   1.064   9.346  1.00  0.00     0.296 C 
HETATM   17  N1  UNL     1      30.380   0.753  10.434  1.00  0.00     0.131 N 
HETATM   18  C19 UNL     1      28.997   0.766  10.091  1.00  0.00     0.327 C 
HETATM   19  C18 UNL     1      28.715   1.572   8.827  1.00  0.00     0.199 C 
HETATM   20 CL1  UNL     1      28.076   1.504  11.409  1.00  0.00    -0.066 Cl
HETATM   21 CL2  UNL     1      28.315  -0.860   9.795  1.00  0.00    -0.066 Cl
BRANCH  17  22
HETATM   22  C4  UNL     1      30.850  -0.394  11.141  1.00  0.00     0.277 C 
BRANCH  22  23
HETATM   23  C3  UNL     1      31.375  -0.139  12.524  1.00  0.00     0.030 C 
BRANCH  23  24
HETATM   24  C2  UNL     1      30.184   0.313  13.366  1.00  0.00    -0.003 C 
HETATM   25  C1  UNL     1      29.456  -0.861  13.975  1.00  0.00     0.005 C 
ENDBRANCH  23  24
ENDBRANCH  22  23
ENDBRANCH  17  22
ENDBRANCH   1  14
BRANCH  11  26
HETATM   26  N6  UNL     1      30.150  -0.109   3.025  1.00  0.00    -0.386 N 
ATOM     27  H6  UNL     1      30.795   0.451   2.468  1.00  0.00     0.159 HD
BRANCH  26  28
HETATM   28  C15 UNL     1      30.037  -1.507   2.762  1.00  0.00     0.115 C 
HETATM   29  C16 UNL     1      31.043  -2.379   3.440  1.00  0.00     0.026 C 
ENDBRANCH  26  28
ENDBRANCH  11  26
BRANCH   4  30
HETATM   30  O1  UNL     1      25.593   3.060   5.500  1.00  0.00    -0.340 OA
HETATM   31  C11 UNL     1      24.317   3.606   5.132  1.00  0.00     0.211 C 
ENDBRANCH   4  30
BRANCH   7  32
HETATM   32  N4  UNL     1      26.204   1.986   0.954  1.00  0.00    -0.234 N 
ATOM     33  H42 UNL     1      25.225   1.808   0.728  1.00  0.00     0.174 HD
ATOM     34  H41 UNL     1      26.851   2.223   0.201  1.00  0.00     0.174 HD
ENDBRANCH   7  32
TORSDOF 8
ENDMDL
MODEL 2
REMARK VINA RESULT: -3.735677292      1.987      3.639
REMARK  8 active torsions:
REMARK  status: ('A' for Active; 'I' for Inactive)
REMARK    1  A    between atoms: C2_2  and  C3_3 
REMARK    2  A    between atoms: C3_3  and  C4_4 
REMARK    3  A    between atoms: C4_4  and  N1_5 
REMARK    4  A    between atoms: N2_8  and  C7_9 
REMARK    5  A    between atoms: C10_12  and  O1_13 
REMARK    6  A    between atoms: C12_17  and  N4_18 
REMARK    7  A    between atoms: C14_24  and  N6_25 
REMARK    8  A    between atoms: N6_25  and  C15_27 
ROOT
HETATM    1  C7  UNL     1      29.559   1.086   6.646  1.00  0.00     0.072 A 
HETATM    2  C8  UNL     1      29.731   0.009   5.791  1.00  0.00     0.051 A 
HETATM    3  C9  UNL     1      29.479   0.072   4.463  1.00  0.00     0.047 A 
HETATM    4  C10 UNL     1      29.663  -1.030   3.656  1.00  0.00     0.169 A 
HETATM    5  N3  UNL     1      29.385  -0.880   2.353  1.00  0.00    -0.170 N 
ATOM      6  H3  UNL     1      29.515  -1.685   1.741  1.00  0.00     0.186 HD
HETATM    7  C12 UNL     1      28.947   0.263   1.803  1.00  0.00     0.678 A 
HETATM    8  N5  UNL     1      28.769   1.337   2.588  1.00  0.00    -0.189 N 
ATOM      9  H5  UNL     1      28.436   2.211   2.181  1.00  0.00     0.184 HD
HETATM   10  C13 UNL     1      29.024   1.270   3.907  1.00  0.00     0.093 A 
HETATM   11  C14 UNL     1      28.832   2.381   4.705  1.00  0.00     0.098 A 
HETATM   12  C17 UNL     1      29.103   2.260   6.050  1.00  0.00     0.171 A 
HETATM   13  F1  UNL     1      28.917   3.344   6.836  1.00  0.00    -0.201 F 
ENDROOT
BRANCH   1  14
HETATM   14  N2  UNL     1      29.830   0.982   7.999  1.00  0.00    -0.372 N 
HETATM   15  C6  UNL     1      31.045   0.342   8.464  1.00  0.00     0.153 C 
HETATM   16  C5  UNL     1      31.418   0.935   9.799  1.00  0.00     0.296 C 
HETATM   17  N1  UNL     1      30.402   0.593  10.768  1.00  0.00     0.131 N 
HETATM   18  C19 UNL     1      29.066   0.632  10.275  1.00  0.00     0.327 C 
HETATM   19  C18 UNL     1      28.930   1.487   9.019  1.00  0.00     0.199 C 
HETATM   20 CL1  UNL     1      28.009   1.329  11.511  1.00  0.00    -0.066 Cl
HETATM   21 CL2  UNL     1      28.412  -0.975   9.844  1.00  0.00    -0.066 Cl
BRANCH  17  22
HETATM   22  C4  UNL     1      30.785  -0.584  11.478  1.00  0.00     0.277 C 
BRANCH  22  23
HETATM   23  C3  UNL     1      31.299  -0.368  12.872  1.00  0.00     0.030 C 
BRANCH  23  24
HETATM   24  C2  UNL     1      30.120   0.142  13.697  1.00  0.00    -0.003 C 
HETATM   25  C1  UNL     1      29.184  -0.979  14.081  1.00  0.00     0.005 C 
ENDBRANCH  23  24
ENDBRANCH  22  23
ENDBRANCH  17  22
ENDBRANCH   1  14
BRANCH  11  26
HETATM   26  N6  UNL     1      28.375   3.624   4.153  1.00  0.00    -0.386 N 
ATOM     27  H6  UNL     1      29.058   4.344   3.919  1.00  0.00     0.159 HD
BRANCH  26  28
HETATM   28  C15 UNL     1      26.990   3.879   3.921  1.00  0.00     0.115 C 
HETATM   29  C16 UNL     1      26.670   5.185   3.271  1.00  0.00     0.026 C 
ENDBRANCH  26  28
ENDBRANCH  11  26
BRANCH   4  30
HETATM   30  O1  UNL     1      30.113  -2.199   4.235  1.00  0.00    -0.340 OA
HETATM   31  C11 UNL     1      31.163  -2.872   3.523  1.00  0.00     0.211 C 
ENDBRANCH   4  30
BRANCH   7  32
HETATM   32  N4  UNL     1      28.700   0.321   0.514  1.00  0.00    -0.234 N 
ATOM     33  H42 UNL     1      29.320  -0.129  -0.160  1.00  0.00     0.174 HD
ATOM     34  H41 UNL     1      27.879   0.821   0.173  1.00  0.00     0.174 HD
ENDBRANCH   7  32
TORSDOF 8
ENDMDL
MODEL 3
REMARK VINA RESULT: -3.594589238      3.003      7.353
REMARK  8 active torsions:
REMARK  status: ('A' for Active; 'I' for Inactive)
REMARK    1  A    between atoms: C2_2  and  C3_3 
REMARK    2  A    between atoms: C3_3  and  C4_4 
REMARK    3  A    between atoms: C4_4  and  N1_5 
REMARK    4  A    between atoms: N2_8  and  C7_9 
REMARK    5  A    between atoms: C10_12  and  O1_13 
REMARK    6  A    between atoms: C12_17  and  N4_18 
REMARK    7  A    between atoms: C14_24  and  N6_25 
REMARK    8  A    between atoms: N6_25  and  C15_27 
ROOT
HETATM    1  C7  UNL     1      28.437   1.965   5.391  1.00  0.00     0.072 A 
HETATM    2  C8  UNL     1      28.389   2.060   6.772  1.00  0.00     0.051 A 
HETATM    3  C9  UNL     1      29.278   1.445   7.587  1.00  0.00     0.047 A 
HETATM    4  C10 UNL     1      29.184   1.568   8.956  1.00  0.00     0.169 A 
HETATM    5  N3  UNL     1      30.104   0.922   9.687  1.00  0.00    -0.170 N 
ATOM      6  H3  UNL     1      30.050   1.002  10.702  1.00  0.00     0.186 HD
HETATM    7  C12 UNL     1      31.092   0.178   9.167  1.00  0.00     0.678 A 
HETATM    8  N5  UNL     1      31.184   0.058   7.834  1.00  0.00    -0.189 N 
ATOM      9  H5  UNL     1      31.931  -0.505   7.428  1.00  0.00     0.184 HD
HETATM   10  C13 UNL     1      30.300   0.674   7.029  1.00  0.00     0.093 A 
HETATM   11  C14 UNL     1      30.405   0.540   5.658  1.00  0.00     0.098 A 
HETATM   12  C17 UNL     1      29.472   1.186   4.877  1.00  0.00     0.171 A 
HETATM   13  F1  UNL     1      29.568   1.058   3.535  1.00  0.00    -0.201 F 
ENDROOT
BRANCH   1  14
HETATM   14  N2  UNL     1      27.510   2.611   4.592  1.00  0.00    -0.372 N 
HETATM   15  C6  UNL     1      27.677   4.010   4.245  1.00  0.00     0.153 C 
HETATM   16  C5  UNL     1      27.003   4.259   2.921  1.00  0.00     0.296 C 
HETATM   17  N1  UNL     1      25.579   4.063   3.073  1.00  0.00     0.131 N 
HETATM   18  C19 UNL     1      25.209   2.972   3.911  1.00  0.00     0.327 C 
HETATM   19  C18 UNL     1      26.331   1.949   4.068  1.00  0.00     0.199 C 
HETATM   20 CL1  UNL     1      23.821   2.135   3.202  1.00  0.00    -0.066 Cl
HETATM   21 CL2  UNL     1      24.760   3.462   5.571  1.00  0.00    -0.066 Cl
BRANCH  17  22
HETATM   22  C4  UNL     1      24.942   5.313   3.336  1.00  0.00     0.277 C 
BRANCH  22  23
HETATM   23  C3  UNL     1      25.743   6.538   3.001  1.00  0.00     0.030 C 
BRANCH  23  24
HETATM   24  C2  UNL     1      24.755   7.701   2.939  1.00  0.00    -0.003 C 
HETATM   25  C1  UNL     1      23.906   7.775   4.186  1.00  0.00     0.005 C 
ENDBRANCH  23  24
ENDBRANCH  22  23
ENDBRANCH  17  22
ENDBRANCH   1  14
BRANCH  11  26
HETATM   26  N6  UNL     1      31.452  -0.239   5.064  1.00  0.00    -0.386 N 
ATOM     27  H6  UNL     1      32.370   0.185   4.927  1.00  0.00     0.159 HD
BRANCH  26  28
HETATM   28  C15 UNL     1      31.246  -1.592   4.659  1.00  0.00     0.115 C 
HETATM   29  C16 UNL     1      30.658  -1.780   3.299  1.00  0.00     0.026 C 
ENDBRANCH  26  28
ENDBRANCH  11  26
BRANCH   4  30
HETATM   30  O1  UNL     1      28.163   2.337   9.477  1.00  0.00    -0.340 OA
HETATM   31  C11 UNL     1      27.646   1.897  10.742  1.00  0.00     0.211 C 
ENDBRANCH   4  30
BRANCH   7  32
HETATM   32  N4  UNL     1      31.952  -0.421   9.960  1.00  0.00    -0.234 N 
ATOM     33  H42 UNL     1      32.815  -0.820   9.590  1.00  0.00     0.174 HD
ATOM     34  H41 UNL     1      31.761  -0.493  10.959  1.00  0.00     0.174 HD
ENDBRANCH   7  32
TORSDOF 8
ENDMDL
MODEL 4
REMARK VINA RESULT: -3.112807238      2.008      3.110
REMARK  8 active torsions:
REMARK  status: ('A' for Active; 'I' for Inactive)
REMARK    1  A    between atoms: C2_2  and  C3_3 
REMARK    2  A    between atoms: C3_3  and  C4_4 
REMARK    3  A    between atoms: C4_4  and  N1_5 
REMARK    4  A    between atoms: N2_8  and  C7_9 
REMARK    5  A    between atoms: C10_12  and  O1_13 
REMARK    6  A    between atoms: C12_17  and  N4_18 
REMARK    7  A    between atoms: C14_24  and  N6_25 
REMARK    8  A    between atoms: N6_25  and  C15_27 
ROOT
HETATM    1  C7  UNL     1      28.927   1.638   6.697  1.00  0.00     0.072 A 
HETATM    2  C8  UNL     1      28.324   0.654   5.930  1.00  0.00     0.051 A 
HETATM    3  C9  UNL     1      27.853   0.876   4.681  1.00  0.00     0.047 A 
HETATM    4  C10 UNL     1      27.256  -0.137   3.961  1.00  0.00     0.169 A 
HETATM    5  N3  UNL     1      26.814   0.171   2.733  1.00  0.00    -0.170 N 
ATOM      6  H3  UNL     1      26.370  -0.566   2.186  1.00  0.00     0.186 HD
HETATM    7  C12 UNL     1      26.920   1.389   2.179  1.00  0.00     0.678 A 
HETATM    8  N5  UNL     1      27.501   2.375   2.879  1.00  0.00    -0.189 N 
ATOM      9  H5  UNL     1      27.587   3.304   2.467  1.00  0.00     0.184 HD
HETATM   10  C13 UNL     1      27.971   2.149   4.119  1.00  0.00     0.093 A 
HETATM   11  C14 UNL     1      28.564   3.174   4.830  1.00  0.00     0.098 A 
HETATM   12  C17 UNL     1      29.024   2.892   6.098  1.00  0.00     0.171 A 
HETATM   13  F1  UNL     1      29.604   3.891   6.799  1.00  0.00    -0.201 F 
ENDROOT
BRANCH   1  14
HETATM   14  N2  UNL     1      29.398   1.371   7.970  1.00  0.00    -0.372 N 
HETATM   15  C6  UNL     1      30.626   0.624   8.165  1.00  0.00     0.153 C 
HETATM   16  C5  UNL     1      31.242   1.046   9.474  1.00  0.00     0.296 C 
HETATM   17  N1  UNL     1      30.369   0.649  10.555  1.00  0.00     0.131 N 
HETATM   18  C19 UNL     1      28.978   0.808  10.293  1.00  0.00     0.327 C 
HETATM   19  C18 UNL     1      28.705   1.803   9.168  1.00  0.00     0.199 C 
HETATM   20 CL1  UNL     1      28.175   1.414  11.748  1.00  0.00    -0.066 Cl
HETATM   21 CL2  UNL     1      28.160  -0.708   9.811  1.00  0.00    -0.066 Cl
BRANCH  17  22
HETATM   22  C4  UNL     1      30.779  -0.617  11.070  1.00  0.00     0.277 C 
BRANCH  22  23
HETATM   23  C3  UNL     1      31.328  -0.608  12.468  1.00  0.00     0.030 C 
BRANCH  23  24
HETATM   24  C2  UNL     1      30.297   0.112  13.335  1.00  0.00    -0.003 C 
HETATM   25  C1  UNL     1      29.495  -0.861  14.167  1.00  0.00     0.005 C 
ENDBRANCH  23  24
ENDBRANCH  22  23
ENDBRANCH  17  22
ENDBRANCH   1  14
BRANCH  11  26
HETATM   26  N6  UNL     1      28.705   4.486   4.268  1.00  0.00    -0.386 N 
ATOM     27  H6  UNL     1      29.625   4.796   3.956  1.00  0.00     0.159 HD
BRANCH  26  28
HETATM   28  C15 UNL     1      27.591   5.369   4.134  1.00  0.00     0.115 C 
HETATM   29  C16 UNL     1      27.170   5.673   2.734  1.00  0.00     0.026 C 
ENDBRANCH  26  28
ENDBRANCH  11  26
BRANCH   4  30
HETATM   30  O1  UNL     1      27.154  -1.384   4.544  1.00  0.00    -0.340 OA
HETATM   31  C11 UNL     1      26.365  -2.339   3.818  1.00  0.00     0.211 C 
ENDBRANCH   4  30
BRANCH   7  32
HETATM   32  N4  UNL     1      26.459   1.602   0.967  1.00  0.00    -0.234 N 
ATOM     33  H42 UNL     1      26.512   2.529   0.542  1.00  0.00     0.174 HD
ATOM     34  H41 UNL     1      26.041   0.838   0.437  1.00  0.00     0.174 HD
ENDBRANCH   7  32
TORSDOF 8
ENDMDL
MODEL 5
REMARK VINA RESULT: -2.380938962      3.260      7.371
REMARK  8 active torsions:
REMARK  status: ('A' for Active; 'I' for Inactive)
REMARK    1  A    between atoms: C2_2  and  C3_3 
REMARK    2  A    between atoms: C3_3  and  C4_4 
REMARK    3  A    between atoms: C4_4  and  N1_5 
REMARK    4  A    between atoms: N2_8  and  C7_9 
REMARK    5  A    between atoms: C10_12  and  O1_13 
REMARK    6  A    between atoms: C12_17  and  N4_18 
REMARK    7  A    between atoms: C14_24  and  N6_25 
REMARK    8  A    between atoms: N6_25  and  C15_27 
ROOT
HETATM    1  C7  UNL     1      27.756   2.408   4.582  1.00  0.00     0.072 A 
HETATM    2  C8  UNL     1      28.118   2.398   5.920  1.00  0.00     0.051 A 
HETATM    3  C9  UNL     1      29.132   1.644   6.406  1.00  0.00     0.047 A 
HETATM    4  C10 UNL     1      29.449   1.667   7.747  1.00  0.00     0.169 A 
HETATM    5  N3  UNL     1      30.465   0.886   8.142  1.00  0.00    -0.170 N 
ATOM      6  H3  UNL     1      30.714   0.891   9.131  1.00  0.00     0.186 HD
HETATM    7  C12 UNL     1      31.174   0.099   7.319  1.00  0.00     0.678 A 
HETATM    8  N5  UNL     1      30.866   0.077   6.013  1.00  0.00    -0.189 N 
ATOM      9  H5  UNL     1      31.399  -0.518   5.378  1.00  0.00     0.184 HD
HETATM   10  C13 UNL     1      29.860   0.830   5.535  1.00  0.00     0.093 A 
HETATM   11  C14 UNL     1      29.550   0.795   4.189  1.00  0.00     0.098 A 
HETATM   12  C17 UNL     1      28.508   1.582   3.749  1.00  0.00     0.171 A 
HETATM   13  F1  UNL     1      28.200   1.551   2.434  1.00  0.00    -0.201 F 
ENDROOT
BRANCH   1  14
HETATM   14  N2  UNL     1      26.714   3.195   4.124  1.00  0.00    -0.372 N 
HETATM   15  C6  UNL     1      26.821   4.641   4.127  1.00  0.00     0.153 C 
HETATM   16  C5  UNL     1      25.949   5.189   3.027  1.00  0.00     0.296 C 
HETATM   17  N1  UNL     1      24.566   4.900   3.335  1.00  0.00     0.131 N 
HETATM   18  C19 UNL     1      24.335   3.618   3.910  1.00  0.00     0.327 C 
HETATM   19  C18 UNL     1      25.470   2.637   3.630  1.00  0.00     0.199 C 
HETATM   20 CL1  UNL     1      22.855   2.929   3.226  1.00  0.00    -0.066 Cl
HETATM   21 CL2  UNL     1      24.147   3.651   5.688  1.00  0.00    -0.066 Cl
BRANCH  17  22
HETATM   22  C4  UNL     1      23.974   6.014   4.003  1.00  0.00     0.277 C 
BRANCH  22  23
HETATM   23  C3  UNL     1      24.686   7.326   3.842  1.00  0.00     0.030 C 
BRANCH  23  24
HETATM   24  C2  UNL     1      23.620   8.415   3.942  1.00  0.00    -0.003 C 
HETATM   25  C1  UNL     1      23.592   9.040   5.317  1.00  0.00     0.005 C 
ENDBRANCH  23  24
ENDBRANCH  22  23
ENDBRANCH  17  22
ENDBRANCH   1  14
BRANCH  11  26
HETATM   26  N6  UNL     1      30.292  -0.025   3.276  1.00  0.00    -0.386 N 
ATOM     27  H6  UNL     1      31.063   0.388   2.752  1.00  0.00     0.159 HD
BRANCH  26  28
HETATM   28  C15 UNL     1      29.979  -1.404   3.081  1.00  0.00     0.115 C 
HETATM   29  C16 UNL     1      31.033  -2.375   3.505  1.00  0.00     0.026 C 
ENDBRANCH  26  28
ENDBRANCH  11  26
BRANCH   4  30
HETATM   30  O1  UNL     1      28.711   2.481   8.581  1.00  0.00    -0.340 OA
HETATM   31  C11 UNL     1      28.244   1.860   9.789  1.00  0.00     0.211 C 
ENDBRANCH   4  30
BRANCH   7  32
HETATM   32  N4  UNL     1      32.155  -0.635   7.793  1.00  0.00    -0.234 N 
ATOM     33  H42 UNL     1      32.572  -0.428   8.702  1.00  0.00     0.174 HD
ATOM     34  H41 UNL     1      32.511  -1.423   7.253  1.00  0.00     0.174 HD
ENDBRANCH   7  32
TORSDOF 8
ENDMDL
