MODEL 1
REMARK VINA RESULT: -8.138959028      0.000      0.000
REMARK  8 active torsions:
REMARK  status: ('A' for Active; 'I' for Inactive)
REMARK    1  A    between atoms: C2_2  and  N1_3 
REMARK    2  A    between atoms: C5_8  and  C6_9 
REMARK    3  A    between atoms: N3_20  and  C14_21 
REMARK    4  A    between atoms: C14_21  and  C15_22 
REMARK    5  A    between atoms: C15_22  and  C16_23 
REMARK    6  A    between atoms: C16_23  and  O1_24 
REMARK    7  A    between atoms: O1_24  and  N4_25 
REMARK    8  A    between atoms: C18_30  and  N7_31 
ROOT
HETATM    1  N1  UNL     1      29.531  -0.393   3.871  1.00  0.00    -0.192 N 
HETATM    2  C3  UNL     1      28.537   0.162   3.184  1.00  0.00     0.140 A 
HETATM    3  C4  UNL     1      27.976   1.352   3.617  1.00  0.00     0.076 A 
HETATM    4  N2  UNL     1      27.010   2.153   3.236  1.00  0.00    -0.352 N 
ATOM      5  H2  UNL     1      26.438   1.996   2.406  1.00  0.00     0.166 HD
HETATM    6  C5  UNL     1      26.853   3.225   4.078  1.00  0.00     0.047 A 
HETATM    7  C12 UNL     1      27.793   3.072   5.047  1.00  0.00     0.063 A 
HETATM    8  C13 UNL     1      28.544   1.923   4.834  1.00  0.00     0.082 A 
HETATM    9  N3  UNL     1      29.546   1.328   5.489  1.00  0.00    -0.181 N 
HETATM   10  C18 UNL     1      30.041   0.167   5.011  1.00  0.00     0.680 A 
ENDROOT
BRANCH   6  11
HETATM   11  C6  UNL     1      25.841   4.262   3.887  1.00  0.00     0.017 A 
HETATM   12  C7  UNL     1      24.488   3.914   4.000  1.00  0.00     0.039 A 
HETATM   13  C8  UNL     1      23.462   4.779   3.841  1.00  0.00     0.037 A 
HETATM   14 CL1  UNL     1      21.813   4.241   4.004  1.00  0.00    -0.084 Cl
HETATM   15  C9  UNL     1      23.775   6.100   3.547  1.00  0.00     0.068 A 
HETATM   16  C10 UNL     1      25.074   6.507   3.423  1.00  0.00     0.140 A 
HETATM   17  F1  UNL     1      25.354   7.799   3.137  1.00  0.00    -0.204 F 
HETATM   18  C11 UNL     1      26.083   5.569   3.598  1.00  0.00     0.085 A 
HETATM   19 CL2  UNL     1      27.709   6.181   3.412  1.00  0.00    -0.080 Cl
ENDBRANCH   6  11
BRANCH   9  20
HETATM   20  C14 UNL     1      30.117   1.953   6.655  1.00  0.00     0.150 C 
BRANCH  20  21
HETATM   21  C15 UNL     1      29.378   1.622   7.892  1.00  0.00     0.049 C 
BRANCH  21  22
HETATM   22  C16 UNL     1      30.086   0.963   9.005  1.00  0.00     0.203 C 
BRANCH  22  23
HETATM   23  O1  UNL     1      29.318   0.110   9.793  1.00  0.00    -0.278 OA
BRANCH  23  24
HETATM   24  N4  UNL     1      29.647  -0.146  11.086  1.00  0.00    -0.241 N 
HETATM   25  C17 UNL     1      28.993   0.257  12.103  1.00  0.00     0.221 C 
HETATM   26  N5  UNL     1      27.806   1.043  12.041  1.00  0.00    -0.065 NA
HETATM   27  N6  UNL     1      29.459  -0.089  13.417  1.00  0.00    -0.065 NA
ATOM     28  H4  UNL     1      30.484  -0.704  11.257  1.00  0.00     0.196 HD
ENDBRANCH  23  24
ENDBRANCH  22  23
ENDBRANCH  21  22
ENDBRANCH  20  21
ENDBRANCH   9  20
BRANCH   1  29
HETATM   29  C2  UNL     1      30.118  -1.651   3.413  1.00  0.00     0.142 C 
HETATM   30  C1  UNL     1      31.116  -1.373   2.303  1.00  0.00     0.027 C 
ENDBRANCH   1  29
BRANCH  10  31
HETATM   31  N7  UNL     1      30.985  -0.444   5.613  1.00  0.00    -0.234 N 
ATOM     32  H72 UNL     1      31.220  -1.409   5.381  1.00  0.00     0.174 HD
ATOM     33  H71 UNL     1      31.509   0.062   6.328  1.00  0.00     0.174 HD
ENDBRANCH  10  31
TORSDOF 8
ENDMDL
MODEL 2
REMARK VINA RESULT: -7.826563383      1.177      1.935
REMARK  8 active torsions:
REMARK  status: ('A' for Active; 'I' for Inactive)
REMARK    1  A    between atoms: C2_2  and  N1_3 
REMARK    2  A    between atoms: C5_8  and  C6_9 
REMARK    3  A    between atoms: N3_20  and  C14_21 
REMARK    4  A    between atoms: C14_21  and  C15_22 
REMARK    5  A    between atoms: C15_22  and  C16_23 
REMARK    6  A    between atoms: C16_23  and  O1_24 
REMARK    7  A    between atoms: O1_24  and  N4_25 
REMARK    8  A    between atoms: C18_30  and  N7_31 
ROOT
HETATM    1  N1  UNL     1      29.495  -0.391   3.932  1.00  0.00    -0.192 N 
HETATM    2  C3  UNL     1      28.458   0.085   3.249  1.00  0.00     0.140 A 
HETATM    3  C4  UNL     1      27.839   1.255   3.658  1.00  0.00     0.076 A 
HETATM    4  N2  UNL     1      26.821   1.987   3.273  1.00  0.00    -0.352 N 
ATOM      5  H2  UNL     1      26.244   1.773   2.461  1.00  0.00     0.166 HD
HETATM    6  C5  UNL     1      26.619   3.075   4.085  1.00  0.00     0.047 A 
HETATM    7  C12 UNL     1      27.585   3.005   5.039  1.00  0.00     0.063 A 
HETATM    8  C13 UNL     1      28.397   1.895   4.845  1.00  0.00     0.082 A 
HETATM    9  N3  UNL     1      29.443   1.378   5.497  1.00  0.00    -0.181 N 
HETATM   10  C18 UNL     1      29.994   0.233   5.043  1.00  0.00     0.680 A 
ENDROOT
BRANCH   6  11
HETATM   11  C6  UNL     1      25.547   4.047   3.885  1.00  0.00     0.017 A 
HETATM   12  C7  UNL     1      25.878   5.336   3.447  1.00  0.00     0.039 A 
HETATM   13  C8  UNL     1      24.979   6.322   3.231  1.00  0.00     0.037 A 
HETATM   14 CL1  UNL     1      25.499   7.893   2.685  1.00  0.00    -0.084 Cl
HETATM   15  C9  UNL     1      23.640   6.033   3.459  1.00  0.00     0.068 A 
HETATM   16  C10 UNL     1      23.248   4.795   3.887  1.00  0.00     0.140 A 
HETATM   17  F1  UNL     1      21.938   4.537   4.102  1.00  0.00    -0.204 F 
HETATM   18  C11 UNL     1      24.220   3.825   4.091  1.00  0.00     0.085 A 
HETATM   19 CL2  UNL     1      23.625   2.279   4.645  1.00  0.00    -0.080 Cl
ENDBRANCH   6  11
BRANCH   9  20
HETATM   20  C14 UNL     1      30.000   2.071   6.630  1.00  0.00     0.150 C 
BRANCH  20  21
HETATM   21  C15 UNL     1      29.274   1.775   7.884  1.00  0.00     0.049 C 
BRANCH  21  22
HETATM   22  C16 UNL     1      30.014   1.234   9.039  1.00  0.00     0.203 C 
BRANCH  22  23
HETATM   23  O1  UNL     1      29.392   0.194   9.725  1.00  0.00    -0.278 OA
BRANCH  23  24
HETATM   24  N4  UNL     1      29.701  -0.084  11.019  1.00  0.00    -0.241 N 
HETATM   25  C17 UNL     1      29.010   0.271  12.030  1.00  0.00     0.221 C 
HETATM   26  N5  UNL     1      27.799   1.018  11.960  1.00  0.00    -0.065 NA
HETATM   27  N6  UNL     1      29.458  -0.094  13.345  1.00  0.00    -0.065 NA
ATOM     28  H4  UNL     1      30.552  -0.619  11.195  1.00  0.00     0.196 HD
ENDBRANCH  23  24
ENDBRANCH  22  23
ENDBRANCH  21  22
ENDBRANCH  20  21
ENDBRANCH   9  20
BRANCH   1  29
HETATM   29  C2  UNL     1      30.145  -1.627   3.499  1.00  0.00     0.142 C 
HETATM   30  C1  UNL     1      30.994  -1.354   2.272  1.00  0.00     0.027 C 
ENDBRANCH   1  29
BRANCH  10  31
HETATM   31  N7  UNL     1      30.984  -0.305   5.643  1.00  0.00    -0.234 N 
ATOM     32  H72 UNL     1      31.065  -0.270   6.659  1.00  0.00     0.174 HD
ATOM     33  H71 UNL     1      31.689  -0.781   5.080  1.00  0.00     0.174 HD
ENDBRANCH  10  31
TORSDOF 8
ENDMDL
MODEL 3
REMARK VINA RESULT: -6.945621028      0.852      1.143
REMARK  8 active torsions:
REMARK  status: ('A' for Active; 'I' for Inactive)
REMARK    1  A    between atoms: C2_2  and  N1_3 
REMARK    2  A    between atoms: C5_8  and  C6_9 
REMARK    3  A    between atoms: N3_20  and  C14_21 
REMARK    4  A    between atoms: C14_21  and  C15_22 
REMARK    5  A    between atoms: C15_22  and  C16_23 
REMARK    6  A    between atoms: C16_23  and  O1_24 
REMARK    7  A    between atoms: O1_24  and  N4_25 
REMARK    8  A    between atoms: C18_30  and  N7_31 
ROOT
HETATM    1  N1  UNL     1      29.403  -0.381   3.836  1.00  0.00    -0.192 N 
HETATM    2  C3  UNL     1      28.380   0.159   3.180  1.00  0.00     0.140 A 
HETATM    3  C4  UNL     1      27.858   1.374   3.592  1.00  0.00     0.076 A 
HETATM    4  N2  UNL     1      26.882   2.172   3.231  1.00  0.00    -0.352 N 
ATOM      5  H2  UNL     1      26.265   1.990   2.440  1.00  0.00     0.166 HD
HETATM    6  C5  UNL     1      26.783   3.280   4.034  1.00  0.00     0.047 A 
HETATM    7  C12 UNL     1      27.773   3.153   4.958  1.00  0.00     0.063 A 
HETATM    8  C13 UNL     1      28.498   1.986   4.753  1.00  0.00     0.082 A 
HETATM    9  N3  UNL     1      29.526   1.404   5.378  1.00  0.00    -0.181 N 
HETATM   10  C18 UNL     1      29.980   0.218   4.922  1.00  0.00     0.680 A 
ENDROOT
BRANCH   6  11
HETATM   11  C6  UNL     1      25.776   4.322   3.855  1.00  0.00     0.017 A 
HETATM   12  C7  UNL     1      24.421   3.976   3.956  1.00  0.00     0.039 A 
HETATM   13  C8  UNL     1      23.398   4.847   3.805  1.00  0.00     0.037 A 
HETATM   14 CL1  UNL     1      21.747   4.310   3.952  1.00  0.00    -0.084 Cl
HETATM   15  C9  UNL     1      23.716   6.171   3.534  1.00  0.00     0.068 A 
HETATM   16  C10 UNL     1      25.017   6.577   3.423  1.00  0.00     0.140 A 
HETATM   17  F1  UNL     1      25.301   7.872   3.159  1.00  0.00    -0.204 F 
HETATM   18  C11 UNL     1      26.022   5.634   3.588  1.00  0.00     0.085 A 
HETATM   19 CL2  UNL     1      27.651   6.244   3.420  1.00  0.00    -0.080 Cl
ENDBRANCH   6  11
BRANCH   9  20
HETATM   20  C14 UNL     1      30.167   2.068   6.484  1.00  0.00     0.150 C 
BRANCH  20  21
HETATM   21  C15 UNL     1      29.203   2.490   7.524  1.00  0.00     0.049 C 
BRANCH  21  22
HETATM   22  C16 UNL     1      29.379   2.016   8.909  1.00  0.00     0.203 C 
BRANCH  22  23
HETATM   23  O1  UNL     1      30.291   0.979   9.085  1.00  0.00    -0.278 OA
BRANCH  23  24
HETATM   24  N4  UNL     1      29.898  -0.321   9.057  1.00  0.00    -0.241 N 
HETATM   25  C17 UNL     1      29.458  -0.976  10.058  1.00  0.00     0.221 C 
HETATM   26  N5  UNL     1      29.310  -0.443  11.371  1.00  0.00    -0.065 NA
HETATM   27  N6  UNL     1      29.078  -2.350   9.882  1.00  0.00    -0.065 NA
ATOM     28  H4  UNL     1      29.959  -0.812   8.164  1.00  0.00     0.196 HD
ENDBRANCH  23  24
ENDBRANCH  22  23
ENDBRANCH  21  22
ENDBRANCH  20  21
ENDBRANCH   9  20
BRANCH   1  29
HETATM   29  C2  UNL     1      29.950  -1.664   3.399  1.00  0.00     0.142 C 
HETATM   30  C1  UNL     1      30.923  -1.442   2.256  1.00  0.00     0.027 C 
ENDBRANCH   1  29
BRANCH  10  31
HETATM   31  N7  UNL     1      30.949  -0.381   5.498  1.00  0.00    -0.234 N 
ATOM     32  H72 UNL     1      31.438  -1.151   5.041  1.00  0.00     0.174 HD
ATOM     33  H71 UNL     1      31.230  -0.063   6.426  1.00  0.00     0.174 HD
ENDBRANCH  10  31
TORSDOF 8
ENDMDL
MODEL 4
REMARK VINA RESULT: -6.413836946      4.635      8.031
REMARK  8 active torsions:
REMARK  status: ('A' for Active; 'I' for Inactive)
REMARK    1  A    between atoms: C2_2  and  N1_3 
REMARK    2  A    between atoms: C5_8  and  C6_9 
REMARK    3  A    between atoms: N3_20  and  C14_21 
REMARK    4  A    between atoms: C14_21  and  C15_22 
REMARK    5  A    between atoms: C15_22  and  C16_23 
REMARK    6  A    between atoms: C16_23  and  O1_24 
REMARK    7  A    between atoms: O1_24  and  N4_25 
REMARK    8  A    between atoms: C18_30  and  N7_31 
ROOT
HETATM    1  N1  UNL     1      29.670   0.524   4.010  1.00  0.00    -0.192 N 
HETATM    2  C3  UNL     1      29.916  -0.205   5.095  1.00  0.00     0.140 A 
HETATM    3  C4  UNL     1      29.686   0.327   6.353  1.00  0.00     0.076 A 
HETATM    4  N2  UNL     1      29.826  -0.059   7.599  1.00  0.00    -0.352 N 
ATOM      5  H2  UNL     1      30.170  -0.979   7.871  1.00  0.00     0.166 HD
HETATM    6  C5  UNL     1      29.457   0.913   8.494  1.00  0.00     0.047 A 
HETATM    7  C12 UNL     1      29.060   1.974   7.742  1.00  0.00     0.063 A 
HETATM    8  C13 UNL     1      29.170   1.692   6.387  1.00  0.00     0.082 A 
HETATM    9  N3  UNL     1      28.936   2.384   5.268  1.00  0.00    -0.181 N 
HETATM   10  C18 UNL     1      29.187   1.802   4.076  1.00  0.00     0.680 A 
ENDROOT
BRANCH   6  11
HETATM   11  C6  UNL     1      29.523   0.745   9.944  1.00  0.00     0.017 A 
HETATM   12  C7  UNL     1      28.361   0.950  10.701  1.00  0.00     0.039 A 
HETATM   13  C8  UNL     1      28.297   0.830  12.046  1.00  0.00     0.037 A 
HETATM   14 CL1  UNL     1      26.798   1.107  12.891  1.00  0.00    -0.084 Cl
HETATM   15  C9  UNL     1      29.462   0.481  12.717  1.00  0.00     0.068 A 
HETATM   16  C10 UNL     1      30.630   0.267  12.040  1.00  0.00     0.140 A 
HETATM   17  F1  UNL     1      31.751  -0.073  12.715  1.00  0.00    -0.204 F 
HETATM   18  C11 UNL     1      30.630   0.405  10.658  1.00  0.00     0.085 A 
HETATM   19 CL2  UNL     1      32.170   0.120   9.881  1.00  0.00    -0.080 Cl
ENDBRANCH   6  11
BRANCH   9  20
HETATM   20  C14 UNL     1      28.372   3.707   5.342  1.00  0.00     0.150 C 
BRANCH  20  21
HETATM   21  C15 UNL     1      27.609   4.065   4.127  1.00  0.00     0.049 C 
BRANCH  21  22
HETATM   22  C16 UNL     1      27.685   5.440   3.602  1.00  0.00     0.203 C 
BRANCH  22  23
HETATM   23  O1  UNL     1      26.564   5.888   2.909  1.00  0.00    -0.278 OA
BRANCH  23  24
HETATM   24  N4  UNL     1      25.824   6.934   3.361  1.00  0.00    -0.241 N 
HETATM   25  C17 UNL     1      24.633   6.850   3.809  1.00  0.00     0.221 C 
HETATM   26  N5  UNL     1      23.890   5.638   3.905  1.00  0.00    -0.065 NA
HETATM   27  N6  UNL     1      23.968   8.042   4.255  1.00  0.00    -0.065 NA
ATOM     28  H4  UNL     1      26.254   7.859   3.341  1.00  0.00     0.196 HD
ENDBRANCH  23  24
ENDBRANCH  22  23
ENDBRANCH  21  22
ENDBRANCH  20  21
ENDBRANCH   9  20
BRANCH   1  29
HETATM   29  C2  UNL     1      29.916  -0.040   2.684  1.00  0.00     0.142 C 
HETATM   30  C1  UNL     1      30.257  -1.513   2.811  1.00  0.00     0.027 C 
ENDBRANCH   1  29
BRANCH  10  31
HETATM   31  N7  UNL     1      28.994   2.431   2.982  1.00  0.00    -0.234 N 
ATOM     32  H72 UNL     1      29.544   2.221   2.150  1.00  0.00     0.174 HD
ATOM     33  H71 UNL     1      28.264   3.144   2.959  1.00  0.00     0.174 HD
ENDBRANCH  10  31
TORSDOF 8
ENDMDL
MODEL 5
REMARK VINA RESULT: -6.103897363      4.485      7.790
REMARK  8 active torsions:
REMARK  status: ('A' for Active; 'I' for Inactive)
REMARK    1  A    between atoms: C2_2  and  N1_3 
REMARK    2  A    between atoms: C5_8  and  C6_9 
REMARK    3  A    between atoms: N3_20  and  C14_21 
REMARK    4  A    between atoms: C14_21  and  C15_22 
REMARK    5  A    between atoms: C15_22  and  C16_23 
REMARK    6  A    between atoms: C16_23  and  O1_24 
REMARK    7  A    between atoms: O1_24  and  N4_25 
REMARK    8  A    between atoms: C18_30  and  N7_31 
ROOT
HETATM    1  N1  UNL     1      29.634   0.542   3.876  1.00  0.00    -0.192 N 
HETATM    2  C3  UNL     1      29.926  -0.170   4.960  1.00  0.00     0.140 A 
HETATM    3  C4  UNL     1      29.677   0.352   6.219  1.00  0.00     0.076 A 
HETATM    4  N2  UNL     1      29.845  -0.023   7.465  1.00  0.00    -0.352 N 
ATOM      5  H2  UNL     1      30.239  -0.923   7.737  1.00  0.00     0.166 HD
HETATM    6  C5  UNL     1      29.432   0.931   8.361  1.00  0.00     0.047 A 
HETATM    7  C12 UNL     1      28.975   1.968   7.610  1.00  0.00     0.063 A 
HETATM    8  C13 UNL     1      29.090   1.688   6.254  1.00  0.00     0.082 A 
HETATM    9  N3  UNL     1      28.812   2.364   5.135  1.00  0.00    -0.181 N 
HETATM   10  C18 UNL     1      29.085   1.793   3.943  1.00  0.00     0.680 A 
ENDROOT
BRANCH   6  11
HETATM   11  C6  UNL     1      29.517   0.770   9.810  1.00  0.00     0.017 A 
HETATM   12  C7  UNL     1      28.366   0.979  10.582  1.00  0.00     0.039 A 
HETATM   13  C8  UNL     1      28.319   0.866  11.928  1.00  0.00     0.037 A 
HETATM   14 CL1  UNL     1      26.832   1.148  12.791  1.00  0.00    -0.084 Cl
HETATM   15  C9  UNL     1      29.492   0.520  12.585  1.00  0.00     0.068 A 
HETATM   16  C10 UNL     1      30.651   0.301  11.894  1.00  0.00     0.140 A 
HETATM   17  F1  UNL     1      31.780  -0.036  12.556  1.00  0.00    -0.204 F 
HETATM   18  C11 UNL     1      30.633   0.433  10.512  1.00  0.00     0.085 A 
HETATM   19 CL2  UNL     1      32.162   0.143   9.716  1.00  0.00    -0.080 Cl
ENDBRANCH   6  11
BRANCH   9  20
HETATM   20  C14 UNL     1      28.180   3.656   5.211  1.00  0.00     0.150 C 
BRANCH  20  21
HETATM   21  C15 UNL     1      26.952   3.733   4.390  1.00  0.00     0.049 C 
BRANCH  21  22
HETATM   22  C16 UNL     1      26.602   5.003   3.727  1.00  0.00     0.203 C 
BRANCH  22  23
HETATM   23  O1  UNL     1      25.508   5.682   4.255  1.00  0.00    -0.278 OA
BRANCH  23  24
HETATM   24  N4  UNL     1      24.249   5.462   3.795  1.00  0.00    -0.241 N 
HETATM   25  C17 UNL     1      23.405   4.662   4.318  1.00  0.00     0.221 C 
HETATM   26  N5  UNL     1      23.654   3.870   5.476  1.00  0.00    -0.065 NA
HETATM   27  N6  UNL     1      22.106   4.529   3.722  1.00  0.00    -0.065 NA
ATOM     28  H4  UNL     1      23.955   5.977   2.964  1.00  0.00     0.196 HD
ENDBRANCH  23  24
ENDBRANCH  22  23
ENDBRANCH  21  22
ENDBRANCH  20  21
ENDBRANCH   9  20
BRANCH   1  29
HETATM   29  C2  UNL     1      29.900  -0.012   2.550  1.00  0.00     0.142 C 
HETATM   30  C1  UNL     1      30.379  -1.445   2.682  1.00  0.00     0.027 C 
ENDBRANCH   1  29
BRANCH  10  31
HETATM   31  N7  UNL     1      28.851   2.409   2.849  1.00  0.00    -0.234 N 
ATOM     32  H72 UNL     1      28.766   1.902   1.968  1.00  0.00     0.174 HD
ATOM     33  H71 UNL     1      28.741   3.423   2.881  1.00  0.00     0.174 HD
ENDBRANCH  10  31
TORSDOF 8
ENDMDL
