MODEL 1
REMARK VINA RESULT: -6.375869523      0.000      0.000
REMARK  1 active torsions:
REMARK  status: ('A' for Active; 'I' for Inactive)
REMARK    1  A    between atoms: N1_1  and  C1_5 
ROOT
HETATM    1  C1  UNL     1      14.246  10.466  -7.247  1.00  0.00     0.318 C 
HETATM    2  C2  UNL     1      15.477   9.619  -7.351  1.00  0.00     0.061 C 
HETATM    3  C3  UNL     1      16.729  10.403  -7.606  1.00  0.00     0.004 C 
HETATM    4  C4  UNL     1      17.108  10.427  -9.082  1.00  0.00     0.000 C 
HETATM    5  C5  UNL     1      17.680  11.791  -9.437  1.00  0.00     0.002 C 
HETATM    6  C6  UNL     1      17.205  12.280 -10.773  1.00  0.00     0.026 C 
HETATM    7  C7  UNL     1      15.827  12.845 -10.762  1.00  0.00     0.167 C 
HETATM    8  O1  UNL     1      15.301  13.046  -9.502  1.00  0.00    -0.389 OA
HETATM    9  C8  UNL     1      13.901  12.942  -9.557  1.00  0.00     0.193 C 
HETATM   10  C9  UNL     1      13.370  12.298  -8.284  1.00  0.00     0.196 C 
HETATM   11  O2  UNL     1      14.466  11.801  -7.571  1.00  0.00    -0.357 OA
ENDROOT
BRANCH   1  12
HETATM   12  N1  UNL     1      13.683  10.459  -5.895  1.00  0.00    -0.053 N 
ATOM     13  H13 UNL     1      13.922   9.599  -5.399  1.00  0.00     0.277 HD
ATOM     14  H12 UNL     1      14.161  11.130  -5.293  1.00  0.00     0.277 HD
ATOM     15  H11 UNL     1      12.675  10.617  -5.896  1.00  0.00     0.277 HD
ENDBRANCH   1  12
TORSDOF 1
ENDMDL
MODEL 2
REMARK VINA RESULT: -6.320803604      2.385      3.873
REMARK  1 active torsions:
REMARK  status: ('A' for Active; 'I' for Inactive)
REMARK    1  A    between atoms: N1_1  and  C1_5 
ROOT
HETATM    1  C1  UNL     1      16.899  12.884 -10.712  1.00  0.00     0.318 C 
HETATM    2  C2  UNL     1      17.943  12.092  -9.988  1.00  0.00     0.061 C 
HETATM    3  C3  UNL     1      17.478  10.733  -9.555  1.00  0.00     0.004 C 
HETATM    4  C4  UNL     1      17.026  10.711  -8.101  1.00  0.00     0.000 C 
HETATM    5  C5  UNL     1      15.828   9.786  -7.956  1.00  0.00     0.002 C 
HETATM    6  C6  UNL     1      14.785  10.342  -7.031  1.00  0.00     0.026 C 
HETATM    7  C7  UNL     1      13.922  11.389  -7.644  1.00  0.00     0.167 C 
HETATM    8  O1  UNL     1      14.055  11.513  -9.011  1.00  0.00    -0.389 OA
HETATM    9  C8  UNL     1      13.761  12.833  -9.392  1.00  0.00     0.193 C 
HETATM   10  C9  UNL     1      14.656  13.260 -10.549  1.00  0.00     0.196 C 
HETATM   11  O2  UNL     1      15.644  12.283 -10.703  1.00  0.00    -0.357 OA
ENDROOT
BRANCH   1  12
HETATM   12  N1  UNL     1      17.242  13.095 -12.120  1.00  0.00    -0.053 N 
ATOM     13  H13 UNL     1      18.182  12.757 -12.326  1.00  0.00     0.277 HD
ATOM     14  H12 UNL     1      16.709  12.472 -12.727  1.00  0.00     0.277 HD
ATOM     15  H11 UNL     1      17.131  14.070 -12.402  1.00  0.00     0.277 HD
ENDBRANCH   1  12
TORSDOF 1
ENDMDL
MODEL 3
REMARK VINA RESULT: -6.258875624      1.019      1.368
REMARK  1 active torsions:
REMARK  status: ('A' for Active; 'I' for Inactive)
REMARK    1  A    between atoms: N1_1  and  C1_5 
ROOT
HETATM    1  C1  UNL     1      15.122   9.780  -6.954  1.00  0.00     0.318 C 
HETATM    2  C2  UNL     1      16.339   9.427  -7.751  1.00  0.00     0.061 C 
HETATM    3  C3  UNL     1      17.125  10.618  -8.212  1.00  0.00     0.004 C 
HETATM    4  C4  UNL     1      16.794  11.011  -9.646  1.00  0.00     0.000 C 
HETATM    5  C5  UNL     1      16.811  12.527  -9.773  1.00  0.00     0.002 C 
HETATM    6  C6  UNL     1      15.693  13.041 -10.632  1.00  0.00     0.026 C 
HETATM    7  C7  UNL     1      14.373  13.098  -9.945  1.00  0.00     0.167 C 
HETATM    8  O1  UNL     1      14.429  12.900  -8.581  1.00  0.00    -0.389 OA
HETATM    9  C8  UNL     1      13.217  12.342  -8.139  1.00  0.00     0.193 C 
HETATM   10  C9  UNL     1      13.473  11.355  -7.008  1.00  0.00     0.196 C 
HETATM   11  O2  UNL     1      14.854  11.145  -6.932  1.00  0.00    -0.357 OA
ENDROOT
BRANCH   1  12
HETATM   12  N1  UNL     1      15.235   9.361  -5.556  1.00  0.00    -0.053 N 
ATOM     13  H13 UNL     1      16.211   9.264  -5.277  1.00  0.00     0.277 HD
ATOM     14  H12 UNL     1      14.959  10.112  -4.922  1.00  0.00     0.277 HD
ATOM     15  H11 UNL     1      14.710   8.507  -5.365  1.00  0.00     0.277 HD
ENDBRANCH   1  12
TORSDOF 1
ENDMDL
MODEL 4
REMARK VINA RESULT: -6.190026523      2.028      3.681
REMARK  1 active torsions:
REMARK  status: ('A' for Active; 'I' for Inactive)
REMARK    1  A    between atoms: N1_1  and  C1_5 
ROOT
HETATM    1  C1  UNL     1      14.834  12.848  -9.683  1.00  0.00     0.318 C 
HETATM    2  C2  UNL     1      16.247  12.398  -9.889  1.00  0.00     0.061 C 
HETATM    3  C3  UNL     1      16.449  10.926  -9.683  1.00  0.00     0.004 C 
HETATM    4  C4  UNL     1      16.973  10.602  -8.290  1.00  0.00     0.000 C 
HETATM    5  C5  UNL     1      16.341   9.309  -7.798  1.00  0.00     0.002 C 
HETATM    6  C6  UNL     1      15.965   9.373  -6.346  1.00  0.00     0.026 C 
HETATM    7  C7  UNL     1      14.700  10.112  -6.076  1.00  0.00     0.167 C 
HETATM    8  O1  UNL     1      13.960  10.411  -7.201  1.00  0.00    -0.389 OA
HETATM    9  C8  UNL     1      13.212  11.579  -6.972  1.00  0.00     0.193 C 
HETATM   10  C9  UNL     1      13.117  12.403  -8.249  1.00  0.00     0.196 C 
HETATM   11  O2  UNL     1      14.006  11.851  -9.177  1.00  0.00    -0.357 OA
ENDROOT
BRANCH   1  12
HETATM   12  N1  UNL     1      14.212  13.305 -10.927  1.00  0.00    -0.053 N 
ATOM     13  H13 UNL     1      13.346  13.812 -10.742  1.00  0.00     0.277 HD
ATOM     14  H12 UNL     1      14.752  14.058 -11.355  1.00  0.00     0.277 HD
ATOM     15  H11 UNL     1      14.058  12.541 -11.586  1.00  0.00     0.277 HD
ENDBRANCH   1  12
TORSDOF 1
ENDMDL
MODEL 5
REMARK VINA RESULT: -6.176041216      1.173      1.457
REMARK  1 active torsions:
REMARK  status: ('A' for Active; 'I' for Inactive)
REMARK    1  A    between atoms: N1_1  and  C1_5 
ROOT
HETATM    1  C1  UNL     1      13.590  11.983  -7.453  1.00  0.00     0.318 C 
HETATM    2  C2  UNL     1      14.276  10.755  -6.940  1.00  0.00     0.061 C 
HETATM    3  C3  UNL     1      15.767  10.786  -7.094  1.00  0.00     0.004 C 
HETATM    4  C4  UNL     1      16.237  10.042  -8.338  1.00  0.00     0.000 C 
HETATM    5  C5  UNL     1      17.416  10.778  -8.955  1.00  0.00     0.002 C 
HETATM    6  C6  UNL     1      17.347  10.813 -10.453  1.00  0.00     0.026 C 
HETATM    7  C7  UNL     1      16.407  11.832 -10.997  1.00  0.00     0.167 C 
HETATM    8  O1  UNL     1      15.933  12.730 -10.063  1.00  0.00    -0.389 OA
HETATM    9  C8  UNL     1      14.662  13.184 -10.453  1.00  0.00     0.193 C 
HETATM   10  C9  UNL     1      13.781  13.400  -9.230  1.00  0.00     0.196 C 
HETATM   11  O2  UNL     1      14.444  12.851  -8.128  1.00  0.00    -0.357 OA
ENDROOT
BRANCH   1  12
HETATM   12  N1  UNL     1      12.977  12.765  -6.377  1.00  0.00    -0.053 N 
ATOM     13  H13 UNL     1      11.959  12.722  -6.423  1.00  0.00     0.277 HD
ATOM     14  H12 UNL     1      13.117  12.319  -5.471  1.00  0.00     0.277 HD
ATOM     15  H11 UNL     1      13.305  13.731  -6.367  1.00  0.00     0.277 HD
ENDBRANCH   1  12
TORSDOF 1
ENDMDL
