MODEL 1
REMARK VINA RESULT: -6.638941659      0.000      0.000
REMARK  0 active torsions:
REMARK  status: ('A' for Active; 'I' for Inactive)
ROOT
HETATM    1  C1  UNL     1      17.938  10.762 -11.023  1.00  0.00     0.003 C 
HETATM    2  C2  UNL     1      16.744  11.341 -11.712  1.00  0.00     0.032 C 
HETATM    3  C3  UNL     1      15.699  11.457 -10.641  1.00  0.00     0.129 C 
HETATM    4  O1  UNL     1      15.300  10.244 -10.071  1.00  0.00    -0.374 OA
HETATM    5  C4  UNL     1      15.275  10.943  -8.836  1.00  0.00     0.070 C 
HETATM    6  C5  UNL     1      15.648  10.101  -7.689  1.00  0.00     0.066 C 
HETATM    7  C6  UNL     1      14.855  10.272  -6.448  1.00  0.00     0.235 C 
HETATM    8  N1  UNL     1      13.453  10.549  -6.672  1.00  0.00    -0.075 N 
ATOM      9  H11 UNL     1      12.898  10.550  -5.816  1.00  0.00     0.277 HD
ATOM     10  H12 UNL     1      12.959   9.789  -7.140  1.00  0.00     0.277 HD
HETATM   11  C7  UNL     1      13.400  11.802  -7.394  1.00  0.00     0.235 C 
HETATM   12  C8  UNL     1      14.031  11.730  -8.734  1.00  0.00     0.066 C 
HETATM   13  C9  UNL     1      16.489  11.692  -9.386  1.00  0.00     0.049 C 
HETATM   14  C10 UNL     1      17.651  10.781  -9.532  1.00  0.00     0.010 C 
ENDROOT
TORSDOF 0
ENDMDL
MODEL 2
REMARK VINA RESULT: -6.569743486      2.107      4.096
REMARK  0 active torsions:
REMARK  status: ('A' for Active; 'I' for Inactive)
ROOT
HETATM    1  C1  UNL     1      15.875   9.073  -5.642  1.00  0.00     0.003 C 
HETATM    2  C2  UNL     1      14.700   9.987  -5.768  1.00  0.00     0.032 C 
HETATM    3  C3  UNL     1      14.806  10.566  -7.149  1.00  0.00     0.129 C 
HETATM    4  O1  UNL     1      15.953  11.331  -7.381  1.00  0.00    -0.374 OA
HETATM    5  C4  UNL     1      15.976  10.730  -8.667  1.00  0.00     0.070 C 
HETATM    6  C5  UNL     1      17.339  10.527  -9.183  1.00  0.00     0.066 C 
HETATM    7  C6  UNL     1      17.561  10.823 -10.619  1.00  0.00     0.235 C 
HETATM    8  N1  UNL     1      16.795  11.943 -11.120  1.00  0.00    -0.075 N 
ATOM      9  H11 UNL     1      17.042  12.210 -12.073  1.00  0.00     0.277 HD
ATOM     10  H12 UNL     1      17.036  12.830 -10.677  1.00  0.00     0.277 HD
HETATM   11  C7  UNL     1      15.403  11.581 -10.965  1.00  0.00     0.235 C 
HETATM   12  C8  UNL     1      15.001  11.400  -9.549  1.00  0.00     0.066 C 
HETATM   13  C9  UNL     1      15.468   9.481  -7.947  1.00  0.00     0.049 C 
HETATM   14  C10 UNL     1      16.499   8.948  -7.022  1.00  0.00     0.010 C 
ENDROOT
TORSDOF 0
ENDMDL
MODEL 3
REMARK VINA RESULT: -6.472123278      1.620      2.494
REMARK  0 active torsions:
REMARK  status: ('A' for Active; 'I' for Inactive)
ROOT
HETATM    1  C1  UNL     1      17.370  13.195 -11.312  1.00  0.00     0.003 C 
HETATM    2  C2  UNL     1      18.390  13.003 -10.236  1.00  0.00     0.032 C 
HETATM    3  C3  UNL     1      17.813  11.947  -9.340  1.00  0.00     0.129 C 
HETATM    4  O1  UNL     1      16.611  12.295  -8.715  1.00  0.00    -0.374 OA
HETATM    5  C4  UNL     1      16.208  10.956  -8.957  1.00  0.00     0.070 C 
HETATM    6  C5  UNL     1      14.765  10.826  -9.215  1.00  0.00     0.066 C 
HETATM    7  C6  UNL     1      14.076   9.672  -8.590  1.00  0.00     0.235 C 
HETATM    8  N1  UNL     1      14.576   9.319  -7.280  1.00  0.00    -0.075 N 
ATOM      9  H11 UNL     1      14.022   8.601  -6.813  1.00  0.00     0.277 HD
ATOM     10  H12 UNL     1      14.442  10.052  -6.583  1.00  0.00     0.277 HD
HETATM   11  C7  UNL     1      15.963   8.946  -7.465  1.00  0.00     0.235 C 
HETATM   12  C8  UNL     1      16.808  10.064  -7.947  1.00  0.00     0.066 C 
HETATM   13  C9  UNL     1      16.989  11.097 -10.264  1.00  0.00     0.049 C 
HETATM   14  C10 UNL     1      16.343  12.086 -11.163  1.00  0.00     0.010 C 
ENDROOT
TORSDOF 0
ENDMDL
MODEL 4
REMARK VINA RESULT: -6.466718789      1.366      2.286
REMARK  0 active torsions:
REMARK  status: ('A' for Active; 'I' for Inactive)
ROOT
HETATM    1  C1  UNL     1      17.090  11.448 -11.071  1.00  0.00     0.003 C 
HETATM    2  C2  UNL     1      17.651  10.709  -9.899  1.00  0.00     0.032 C 
HETATM    3  C3  UNL     1      16.630  10.875  -8.812  1.00  0.00     0.129 C 
HETATM    4  O1  UNL     1      16.412  12.195  -8.404  1.00  0.00    -0.374 OA
HETATM    5  C4  UNL     1      15.039  11.842  -8.324  1.00  0.00     0.070 C 
HETATM    6  C5  UNL     1      14.137  12.954  -8.661  1.00  0.00     0.066 C 
HETATM    7  C6  UNL     1      12.927  13.112  -7.819  1.00  0.00     0.235 C 
HETATM    8  N1  UNL     1      13.126  12.786  -6.424  1.00  0.00    -0.075 N 
ATOM      9  H11 UNL     1      12.323  13.008  -5.836  1.00  0.00     0.277 HD
ATOM     10  H12 UNL     1      13.795  13.398  -5.956  1.00  0.00     0.277 HD
HETATM   11  C7  UNL     1      13.499  11.388  -6.386  1.00  0.00     0.235 C 
HETATM   12  C8  UNL     1      14.785  11.109  -7.069  1.00  0.00     0.066 C 
HETATM   13  C9  UNL     1      15.326  10.975  -9.551  1.00  0.00     0.049 C 
HETATM   14  C10 UNL     1      15.657  11.817 -10.727  1.00  0.00     0.010 C 
ENDROOT
TORSDOF 0
ENDMDL
MODEL 5
REMARK VINA RESULT: -6.425618504      2.273      4.358
REMARK  0 active torsions:
REMARK  status: ('A' for Active; 'I' for Inactive)
ROOT
HETATM    1  C1  UNL     1      14.824  10.357  -6.649  1.00  0.00     0.003 C 
HETATM    2  C2  UNL     1      15.774   9.258  -7.000  1.00  0.00     0.032 C 
HETATM    3  C3  UNL     1      16.501   9.750  -8.218  1.00  0.00     0.129 C 
HETATM    4  O1  UNL     1      15.693   9.972  -9.338  1.00  0.00    -0.374 OA
HETATM    5  C4  UNL     1      16.496  11.120  -9.569  1.00  0.00     0.070 C 
HETATM    6  C5  UNL     1      15.748  12.234 -10.173  1.00  0.00     0.066 C 
HETATM    7  C6  UNL     1      16.433  12.996 -11.245  1.00  0.00     0.235 C 
HETATM    8  N1  UNL     1      17.278  12.191 -12.099  1.00  0.00    -0.075 N 
ATOM      9  H11 UNL     1      17.651  12.702 -12.899  1.00  0.00     0.277 HD
ATOM     10  H12 UNL     1      16.766  11.487 -12.630  1.00  0.00     0.277 HD
HETATM   11  C7  UNL     1      18.304  11.634 -11.242  1.00  0.00     0.235 C 
HETATM   12  C8  UNL     1      17.765  10.720 -10.207  1.00  0.00     0.066 C 
HETATM   13  C9  UNL     1      16.530  11.241  -8.045  1.00  0.00     0.049 C 
HETATM   14  C10 UNL     1      15.182  11.555  -7.510  1.00  0.00     0.010 C 
ENDROOT
TORSDOF 0
ENDMDL
