MODEL 1
REMARK VINA RESULT: -6.661874466      0.000      0.000
REMARK  0 active torsions:
REMARK  status: ('A' for Active; 'I' for Inactive)
ROOT
HETATM    1  C1  UNL     1      16.301  11.884 -11.372  1.00  0.00     0.005 C 
HETATM    2  C2  UNL     1      17.691  11.344 -11.095  1.00  0.00     0.030 C 
HETATM    3  C3  UNL     1      17.794  10.989  -9.650  1.00  0.00     0.275 C 
HETATM    4  N1  UNL     1      16.504  10.557  -9.087  1.00  0.00     0.113 N 
HETATM    5  C4  UNL     1      16.801  10.085  -7.747  1.00  0.00     0.301 C 
HETATM    6  C5  UNL     1      15.628   9.498  -7.041  1.00  0.00     0.131 C 
HETATM    7  C6  UNL     1      14.625  10.582  -6.700  1.00  0.00     0.076 C 
HETATM    8  C7  UNL     1      13.775  10.573  -7.915  1.00  0.00     0.196 C 
HETATM    9  N2  UNL     1      13.830   9.206  -8.314  1.00  0.00    -0.317 N 
ATOM     10  H2  UNL     1      13.137   8.755  -8.911  1.00  0.00     0.182 HD
HETATM   11  N3  UNL     1      14.815   8.639  -7.848  1.00  0.00    -0.332 N 
ATOM     12  H3  UNL     1      15.033   7.657  -8.020  1.00  0.00     0.180 HD
HETATM   13  N4  UNL     1      14.262  11.355  -9.006  1.00  0.00    -0.372 N 
ATOM     14  H4  UNL     1      13.655  11.633  -9.777  1.00  0.00     0.157 HD
HETATM   15  C8  UNL     1      15.622  11.728  -8.965  1.00  0.00     0.319 C 
HETATM   16  C9  UNL     1      15.857  12.675 -10.150  1.00  0.00     0.057 C 
ENDROOT
TORSDOF 0
ENDMDL
MODEL 2
REMARK VINA RESULT: -6.650519539      1.993      4.002
REMARK  0 active torsions:
REMARK  status: ('A' for Active; 'I' for Inactive)
ROOT
HETATM    1  C1  UNL     1      13.836  14.212  -9.482  1.00  0.00     0.005 C 
HETATM    2  C2  UNL     1      13.298  13.233  -8.456  1.00  0.00     0.030 C 
HETATM    3  C3  UNL     1      13.966  11.913  -8.646  1.00  0.00     0.275 C 
HETATM    4  N1  UNL     1      15.338  12.051  -9.163  1.00  0.00     0.113 N 
HETATM    5  C4  UNL     1      15.906  10.716  -9.127  1.00  0.00     0.301 C 
HETATM    6  C5  UNL     1      17.343  10.662  -9.514  1.00  0.00     0.131 C 
HETATM    7  C6  UNL     1      17.498  10.950 -10.994  1.00  0.00     0.076 C 
HETATM    8  C7  UNL     1      17.660  12.424 -10.978  1.00  0.00     0.196 C 
HETATM    9  N2  UNL     1      18.321  12.645  -9.736  1.00  0.00    -0.317 N 
ATOM     10  H2  UNL     1      18.868  13.477  -9.518  1.00  0.00     0.182 HD
HETATM   11  N3  UNL     1      18.150  11.706  -8.961  1.00  0.00    -0.332 N 
ATOM     12  H3  UNL     1      18.543  11.675  -8.020  1.00  0.00     0.180 HD
HETATM   13  N4  UNL     1      16.442  13.171 -10.952  1.00  0.00    -0.372 N 
ATOM     14  H4  UNL     1      16.417  14.161 -11.198  1.00  0.00     0.157 HD
HETATM   15  C8  UNL     1      15.276  12.474 -10.570  1.00  0.00     0.319 C 
HETATM   16  C9  UNL     1      14.099  13.440 -10.766  1.00  0.00     0.057 C 
ENDROOT
TORSDOF 0
ENDMDL
MODEL 3
REMARK VINA RESULT: -6.508294915      1.308      1.679
REMARK  0 active torsions:
REMARK  status: ('A' for Active; 'I' for Inactive)
ROOT
HETATM    1  C1  UNL     1      14.192  13.414 -10.838  1.00  0.00     0.005 C 
HETATM    2  C2  UNL     1      15.671  13.198 -11.092  1.00  0.00     0.030 C 
HETATM    3  C3  UNL     1      16.291  12.605  -9.871  1.00  0.00     0.275 C 
HETATM    4  N1  UNL     1      15.348  11.761  -9.119  1.00  0.00     0.113 N 
HETATM    5  C4  UNL     1      16.134  11.126  -8.078  1.00  0.00     0.301 C 
HETATM    6  C5  UNL     1      15.373  10.136  -7.266  1.00  0.00     0.131 C 
HETATM    7  C6  UNL     1      14.352  10.845  -6.399  1.00  0.00     0.076 C 
HETATM    8  C7  UNL     1      13.177  10.860  -7.303  1.00  0.00     0.196 C 
HETATM    9  N2  UNL     1      13.348   9.657  -8.045  1.00  0.00    -0.317 N 
ATOM     10  H2  UNL     1      12.596   9.172  -8.533  1.00  0.00     0.182 HD
HETATM   11  N3  UNL     1      14.516   9.276  -8.023  1.00  0.00    -0.332 N 
ATOM     12  H3  UNL     1      14.842   8.433  -8.497  1.00  0.00     0.180 HD
HETATM   13  N4  UNL     1      13.141  11.938  -8.240  1.00  0.00    -0.372 N 
ATOM     14  H4  UNL     1      12.281  12.199  -8.722  1.00  0.00     0.157 HD
HETATM   15  C8  UNL     1      14.353  12.625  -8.466  1.00  0.00     0.319 C 
HETATM   16  C9  UNL     1      14.024  13.813  -9.380  1.00  0.00     0.057 C 
ENDROOT
TORSDOF 0
ENDMDL
MODEL 4
REMARK VINA RESULT: -6.421373128      3.160      4.773
REMARK  0 active torsions:
REMARK  status: ('A' for Active; 'I' for Inactive)
ROOT
HETATM    1  C1  UNL     1      15.483  15.743 -11.641  1.00  0.00     0.005 C 
HETATM    2  C2  UNL     1      14.245  14.997 -11.183  1.00  0.00     0.030 C 
HETATM    3  C3  UNL     1      14.547  13.537 -11.136  1.00  0.00     0.275 C 
HETATM    4  N1  UNL     1      15.960  13.269 -10.817  1.00  0.00     0.113 N 
HETATM    5  C4  UNL     1      16.055  11.833 -10.635  1.00  0.00     0.301 C 
HETATM    6  C5  UNL     1      17.400  11.368 -10.195  1.00  0.00     0.131 C 
HETATM    7  C6  UNL     1      18.405  11.537 -11.316  1.00  0.00     0.076 C 
HETATM    8  C7  UNL     1      18.899  12.909 -11.048  1.00  0.00     0.196 C 
HETATM    9  N2  UNL     1      18.804  12.994  -9.630  1.00  0.00    -0.317 N 
ATOM     10  H2  UNL     1      19.333  13.653  -9.058  1.00  0.00     0.182 HD
HETATM   11  N3  UNL     1      18.007  12.175  -9.180  1.00  0.00    -0.332 N 
ATOM     12  H3  UNL     1      17.798  12.079  -8.186  1.00  0.00     0.180 HD
HETATM   13  N4  UNL     1      18.103  13.962 -11.593  1.00  0.00    -0.372 N 
ATOM     14  H4  UNL     1      18.468  14.908 -11.699  1.00  0.00     0.157 HD
HETATM   15  C8  UNL     1      16.786  13.630 -11.979  1.00  0.00     0.319 C 
HETATM   16  C9  UNL     1      16.199  14.873 -12.663  1.00  0.00     0.057 C 
ENDROOT
TORSDOF 0
ENDMDL
MODEL 5
REMARK VINA RESULT: -6.257308631      1.507      2.573
REMARK  0 active torsions:
REMARK  status: ('A' for Active; 'I' for Inactive)
ROOT
HETATM    1  C1  UNL     1      18.605  12.287 -10.272  1.00  0.00     0.005 C 
HETATM    2  C2  UNL     1      17.799  13.434 -10.849  1.00  0.00     0.030 C 
HETATM    3  C3  UNL     1      16.350  13.084 -10.797  1.00  0.00     0.275 C 
HETATM    4  N1  UNL     1      16.028  12.206  -9.659  1.00  0.00     0.113 N 
HETATM    5  C4  UNL     1      14.581  12.102  -9.643  1.00  0.00     0.301 C 
HETATM    6  C5  UNL     1      14.044  11.333  -8.485  1.00  0.00     0.131 C 
HETATM    7  C6  UNL     1      14.391   9.865  -8.625  1.00  0.00     0.076 C 
HETATM    8  C7  UNL     1      15.698   9.816  -7.927  1.00  0.00     0.196 C 
HETATM    9  N2  UNL     1      15.549  10.824  -6.932  1.00  0.00    -0.317 N 
ATOM     10  H2  UNL     1      16.103  10.872  -6.077  1.00  0.00     0.182 HD
HETATM   11  N3  UNL     1      14.670  11.628  -7.232  1.00  0.00    -0.332 N 
ATOM     12  H3  UNL     1      14.413  12.425  -6.648  1.00  0.00     0.180 HD
HETATM   13  N4  UNL     1      16.830  10.168  -8.724  1.00  0.00    -0.372 N 
ATOM     14  H4  UNL     1      17.780   9.925  -8.441  1.00  0.00     0.157 HD
HETATM   15  C8  UNL     1      16.571  10.866  -9.923  1.00  0.00     0.319 C 
HETATM   16  C9  UNL     1      17.912  10.990 -10.661  1.00  0.00     0.057 C 
ENDROOT
TORSDOF 0
ENDMDL
