MODEL 1
REMARK VINA RESULT: -5.954174939      0.000      0.000
REMARK  0 active torsions:
REMARK  status: ('A' for Active; 'I' for Inactive)
ROOT
HETATM    1  C1  UNL     1      16.906  11.261  -8.239  1.00  0.00     0.016 C 
HETATM    2  C2  UNL     1      15.446  11.593  -8.370  1.00  0.00     0.079 C 
HETATM    3  S1  UNL     1      15.252  11.782 -10.185  1.00  0.00    -0.102 SA
HETATM    4  C3  UNL     1      16.919  11.180 -10.668  1.00  0.00     0.277 C 
HETATM    5  C4  UNL     1      17.308  10.443  -9.428  1.00  0.00     0.082 C 
HETATM    6  N1  UNL     1      17.745  12.290 -10.996  1.00  0.00    -0.026 N 
ATOM      7  H11 UNL     1      18.520  12.406 -10.343  1.00  0.00     0.282 HD
ATOM      8  H12 UNL     1      17.283  13.183 -10.827  1.00  0.00     0.282 HD
HETATM    9  C5  UNL     1      18.186  12.150 -12.351  1.00  0.00     0.219 C 
HETATM   10  C6  UNL     1      19.499  11.412 -12.421  1.00  0.00     0.038 C 
HETATM   11  C7  UNL     1      18.807  10.327 -13.203  1.00  0.00     0.036 C 
HETATM   12  C8  UNL     1      17.473  10.913 -12.818  1.00  0.00     0.156 C 
HETATM   13  O1  UNL     1      16.853  10.334 -11.746  1.00  0.00    -0.339 OA
ENDROOT
TORSDOF 0
ENDMDL
MODEL 2
REMARK VINA RESULT: -5.815545389      2.398      2.955
REMARK  0 active torsions:
REMARK  status: ('A' for Active; 'I' for Inactive)
ROOT
HETATM    1  C1  UNL     1      16.468   8.845  -6.297  1.00  0.00     0.016 C 
HETATM    2  C2  UNL     1      15.280   9.508  -5.659  1.00  0.00     0.079 C 
HETATM    3  S1  UNL     1      14.863  10.815  -6.879  1.00  0.00    -0.102 SA
HETATM    4  C3  UNL     1      16.015  10.279  -8.206  1.00  0.00     0.277 C 
HETATM    5  C4  UNL     1      16.276   8.871  -7.783  1.00  0.00     0.082 C 
HETATM    6  N1  UNL     1      17.154  11.130  -8.213  1.00  0.00    -0.026 N 
ATOM      7  H11 UNL     1      18.010  10.638  -7.956  1.00  0.00     0.282 HD
ATOM      8  H12 UNL     1      17.143  11.804  -7.448  1.00  0.00     0.282 HD
HETATM    9  C5  UNL     1      17.249  11.760  -9.496  1.00  0.00     0.219 C 
HETATM   10  C6  UNL     1      18.102  10.948 -10.438  1.00  0.00     0.038 C 
HETATM   11  C7  UNL     1      16.895  10.771 -11.321  1.00  0.00     0.036 C 
HETATM   12  C8  UNL     1      16.016  11.279 -10.207  1.00  0.00     0.156 C 
HETATM   13  O1  UNL     1      15.413  10.322  -9.438  1.00  0.00    -0.339 OA
ENDROOT
TORSDOF 0
ENDMDL
MODEL 3
REMARK VINA RESULT: -5.778337119      2.469      4.663
REMARK  0 active torsions:
REMARK  status: ('A' for Active; 'I' for Inactive)
ROOT
HETATM    1  C1  UNL     1      17.421  11.889 -10.727  1.00  0.00     0.016 C 
HETATM    2  C2  UNL     1      16.485  13.040 -10.961  1.00  0.00     0.079 C 
HETATM    3  S1  UNL     1      15.184  12.745  -9.701  1.00  0.00    -0.102 SA
HETATM    4  C3  UNL     1      16.024  11.378  -8.806  1.00  0.00     0.277 C 
HETATM    5  C4  UNL     1      17.432  11.585  -9.260  1.00  0.00     0.082 C 
HETATM    6  N1  UNL     1      15.442  10.138  -9.185  1.00  0.00    -0.026 N 
ATOM      7  H11 UNL     1      16.093   9.541  -9.695  1.00  0.00     0.282 HD
ATOM      8  H12 UNL     1      14.743  10.244  -9.920  1.00  0.00     0.282 HD
HETATM    9  C5  UNL     1      14.915   9.501  -8.016  1.00  0.00     0.219 C 
HETATM   10  C6  UNL     1      15.940   8.594  -7.383  1.00  0.00     0.038 C 
HETATM   11  C7  UNL     1      15.897   9.463  -6.153  1.00  0.00     0.036 C 
HETATM   12  C8  UNL     1      15.154  10.516  -6.934  1.00  0.00     0.156 C 
HETATM   13  O1  UNL     1      15.916  11.529  -7.446  1.00  0.00    -0.339 OA
ENDROOT
TORSDOF 0
ENDMDL
MODEL 4
REMARK VINA RESULT: -5.773577951      1.915      4.449
REMARK  0 active torsions:
REMARK  status: ('A' for Active; 'I' for Inactive)
ROOT
HETATM    1  C1  UNL     1      18.044  10.601 -11.380  1.00  0.00     0.016 C 
HETATM    2  C2  UNL     1      18.078  11.978 -11.979  1.00  0.00     0.079 C 
HETATM    3  S1  UNL     1      16.802  12.860 -10.999  1.00  0.00    -0.102 SA
HETATM    4  C3  UNL     1      16.509  11.545  -9.750  1.00  0.00     0.277 C 
HETATM    5  C4  UNL     1      17.753  10.735  -9.916  1.00  0.00     0.082 C 
HETATM    6  N1  UNL     1      15.299  10.865 -10.055  1.00  0.00    -0.026 N 
ATOM      7  H11 UNL     1      15.454   9.891 -10.317  1.00  0.00     0.282 HD
ATOM      8  H12 UNL     1      14.883  11.182 -10.930  1.00  0.00     0.282 HD
HETATM    9  C5  UNL     1      14.404  10.997  -8.945  1.00  0.00     0.219 C 
HETATM   10  C6  UNL     1      14.566   9.852  -7.977  1.00  0.00     0.038 C 
HETATM   11  C7  UNL     1      15.000  10.845  -6.930  1.00  0.00     0.036 C 
HETATM   12  C8  UNL     1      15.158  11.892  -8.002  1.00  0.00     0.156 C 
HETATM   13  O1  UNL     1      16.425  12.067  -8.484  1.00  0.00    -0.339 OA
ENDROOT
TORSDOF 0
ENDMDL
MODEL 5
REMARK VINA RESULT: -5.704742780      1.753      2.149
REMARK  0 active torsions:
REMARK  status: ('A' for Active; 'I' for Inactive)
ROOT
HETATM    1  C1  UNL     1      15.804  10.051  -6.705  1.00  0.00     0.016 C 
HETATM    2  C2  UNL     1      14.384  10.535  -6.620  1.00  0.00     0.079 C 
HETATM    3  S1  UNL     1      14.152  11.347  -8.249  1.00  0.00    -0.102 SA
HETATM    4  C3  UNL     1      15.729  10.799  -9.016  1.00  0.00     0.277 C 
HETATM    5  C4  UNL     1      16.078   9.653  -8.123  1.00  0.00     0.082 C 
HETATM    6  N1  UNL     1      16.657  11.876  -9.008  1.00  0.00    -0.026 N 
ATOM      7  H11 UNL     1      17.461  11.694  -8.407  1.00  0.00     0.282 HD
ATOM      8  H12 UNL     1      16.298  12.696  -8.519  1.00  0.00     0.282 HD
HETATM    9  C5  UNL     1      17.036  12.166 -10.358  1.00  0.00     0.219 C 
HETATM   10  C6  UNL     1      18.260  11.382 -10.759  1.00  0.00     0.038 C 
HETATM   11  C7  UNL     1      17.431  10.693 -11.811  1.00  0.00     0.036 C 
HETATM   12  C8  UNL     1      16.180  11.230 -11.163  1.00  0.00     0.156 C 
HETATM   13  O1  UNL     1      15.538  10.379 -10.308  1.00  0.00    -0.339 OA
ENDROOT
TORSDOF 0
ENDMDL
