MODEL 1
REMARK VINA RESULT: -6.327152897      0.000      0.000
REMARK  0 active torsions:
REMARK  status: ('A' for Active; 'I' for Inactive)
ROOT
HETATM    1  C1  UNL     1      16.213   8.557  -7.379  1.00  0.00     0.019 C 
HETATM    2  C2  UNL     1      15.423   9.872  -7.454  1.00  0.00    -0.004 C 
HETATM    3  C3  UNL     1      14.878  10.089  -6.058  1.00  0.00     0.019 C 
HETATM    4  C4  UNL     1      14.309   9.800  -8.432  1.00  0.00     0.184 C 
HETATM    5  O1  UNL     1      14.260  10.710  -9.403  1.00  0.00    -0.332 OA
HETATM    6  C5  UNL     1      15.013  11.804  -9.406  1.00  0.00     0.337 C 
HETATM    7  C6  UNL     1      14.094  13.035  -9.357  1.00  0.00     0.103 C 
HETATM    8  C7  UNL     1      14.328  13.791 -10.618  1.00  0.00     0.035 C 
HETATM    9  C8  UNL     1      15.685  13.293 -11.061  1.00  0.00     0.239 C 
HETATM   10  N1  UNL     1      15.654  11.905 -10.729  1.00  0.00    -0.017 N 
ATOM     11  H11 UNL     1      15.205  11.330 -11.441  1.00  0.00     0.283 HD
ATOM     12  H12 UNL     1      16.571  11.460 -10.767  1.00  0.00     0.283 HD
HETATM   13  O2  UNL     1      15.969  11.994  -8.469  1.00  0.00    -0.332 OA
HETATM   14  C9  UNL     1      16.440  10.937  -7.781  1.00  0.00     0.184 C 
ENDROOT
TORSDOF 0
ENDMDL
MODEL 2
REMARK VINA RESULT: -6.313621915      1.816      2.831
REMARK  0 active torsions:
REMARK  status: ('A' for Active; 'I' for Inactive)
ROOT
HETATM    1  C1  UNL     1      12.806  11.362  -7.419  1.00  0.00     0.019 C 
HETATM    2  C2  UNL     1      14.282  10.972  -7.598  1.00  0.00    -0.004 C 
HETATM    3  C3  UNL     1      14.671  10.287  -6.304  1.00  0.00     0.019 C 
HETATM    4  C4  UNL     1      15.148  12.154  -7.832  1.00  0.00     0.184 C 
HETATM    5  O1  UNL     1      15.908  12.174  -8.925  1.00  0.00    -0.332 OA
HETATM    6  C5  UNL     1      16.105  11.105  -9.687  1.00  0.00     0.337 C 
HETATM    7  C6  UNL     1      17.602  10.759  -9.675  1.00  0.00     0.103 C 
HETATM    8  C7  UNL     1      18.085  10.905 -11.076  1.00  0.00     0.035 C 
HETATM    9  C8  UNL     1      16.810  10.797 -11.882  1.00  0.00     0.239 C 
HETATM   10  N1  UNL     1      15.853  11.496 -11.086  1.00  0.00    -0.017 N 
ATOM     11  H11 UNL     1      15.867  12.505 -11.231  1.00  0.00     0.283 HD
ATOM     12  H12 UNL     1      14.890  11.338 -11.381  1.00  0.00     0.283 HD
HETATM   13  O2  UNL     1      15.438   9.952  -9.456  1.00  0.00    -0.332 OA
HETATM   14  C9  UNL     1      14.303   9.979  -8.732  1.00  0.00     0.184 C 
ENDROOT
TORSDOF 0
ENDMDL
MODEL 3
REMARK VINA RESULT: -6.311672617      2.154      3.090
REMARK  0 active torsions:
REMARK  status: ('A' for Active; 'I' for Inactive)
ROOT
HETATM    1  C1  UNL     1      14.792  11.048  -7.123  1.00  0.00     0.019 C 
HETATM    2  C2  UNL     1      15.722  10.367  -8.139  1.00  0.00    -0.004 C 
HETATM    3  C3  UNL     1      15.671   8.893  -7.799  1.00  0.00     0.019 C 
HETATM    4  C4  UNL     1      17.117  10.867  -8.042  1.00  0.00     0.184 C 
HETATM    5  O1  UNL     1      17.689  11.362  -9.138  1.00  0.00    -0.332 OA
HETATM    6  C5  UNL     1      17.168  11.220 -10.351  1.00  0.00     0.337 C 
HETATM    7  C6  UNL     1      18.151  10.420 -11.220  1.00  0.00     0.103 C 
HETATM    8  C7  UNL     1      18.565  11.319 -12.332  1.00  0.00     0.035 C 
HETATM    9  C8  UNL     1      17.453  12.343 -12.368  1.00  0.00     0.239 C 
HETATM   10  N1  UNL     1      17.147  12.549 -10.989  1.00  0.00    -0.017 N 
ATOM     11  H11 UNL     1      17.762  13.225 -10.536  1.00  0.00     0.283 HD
ATOM     12  H12 UNL     1      16.273  13.053 -10.841  1.00  0.00     0.283 HD
HETATM   13  O2  UNL     1      15.949  10.661 -10.525  1.00  0.00    -0.332 OA
HETATM   14  C9  UNL     1      15.092  10.607  -9.488  1.00  0.00     0.184 C 
ENDROOT
TORSDOF 0
ENDMDL
MODEL 4
REMARK VINA RESULT: -6.256004497      1.561      4.313
REMARK  0 active torsions:
REMARK  status: ('A' for Active; 'I' for Inactive)
ROOT
HETATM    1  C1  UNL     1      14.153  13.071 -10.829  1.00  0.00     0.019 C 
HETATM    2  C2  UNL     1      15.299  12.295 -10.160  1.00  0.00    -0.004 C 
HETATM    3  C3  UNL     1      16.564  12.817 -10.808  1.00  0.00     0.019 C 
HETATM    4  C4  UNL     1      15.181  10.831 -10.374  1.00  0.00     0.184 C 
HETATM    5  O1  UNL     1      15.162  10.036  -9.306  1.00  0.00    -0.332 OA
HETATM    6  C5  UNL     1      15.472  10.458  -8.086  1.00  0.00     0.337 C 
HETATM    7  C6  UNL     1      16.704   9.682  -7.594  1.00  0.00     0.103 C 
HETATM    8  C7  UNL     1      16.273   8.914  -6.394  1.00  0.00     0.035 C 
HETATM    9  C8  UNL     1      15.036   9.660  -5.945  1.00  0.00     0.239 C 
HETATM   10  N1  UNL     1      14.402  10.020  -7.172  1.00  0.00    -0.017 N 
ATOM     11  H11 UNL     1      13.820   9.276  -7.558  1.00  0.00     0.283 HD
ATOM     12  H12 UNL     1      13.662  10.712  -7.057  1.00  0.00     0.283 HD
HETATM   13  O2  UNL     1      15.713  11.765  -7.841  1.00  0.00    -0.332 OA
HETATM   14  C9  UNL     1      15.263  12.694  -8.706  1.00  0.00     0.184 C 
ENDROOT
TORSDOF 0
ENDMDL
MODEL 5
REMARK VINA RESULT: -6.183112210      2.144      3.757
REMARK  0 active torsions:
REMARK  status: ('A' for Active; 'I' for Inactive)
ROOT
HETATM    1  C1  UNL     1      18.064  10.728 -11.078  1.00  0.00     0.019 C 
HETATM    2  C2  UNL     1      16.996  11.761 -10.684  1.00  0.00    -0.004 C 
HETATM    3  C3  UNL     1      17.091  12.850 -11.731  1.00  0.00     0.019 C 
HETATM    4  C4  UNL     1      17.239  12.327  -9.333  1.00  0.00     0.184 C 
HETATM    5  O1  UNL     1      16.265  12.243  -8.429  1.00  0.00    -0.332 OA
HETATM    6  C5  UNL     1      15.022  11.892  -8.736  1.00  0.00     0.337 C 
HETATM    7  C6  UNL     1      14.083  13.061  -8.402  1.00  0.00     0.103 C 
HETATM    8  C7  UNL     1      13.151  12.571  -7.349  1.00  0.00     0.035 C 
HETATM    9  C8  UNL     1      13.228  11.069  -7.506  1.00  0.00     0.239 C 
HETATM   10  N1  UNL     1      14.606  10.836  -7.796  1.00  0.00    -0.017 N 
ATOM     11  H11 UNL     1      15.191  10.785  -6.961  1.00  0.00     0.283 HD
ATOM     12  H12 UNL     1      14.793   9.894  -8.139  1.00  0.00     0.283 HD
HETATM   13  O2  UNL     1      14.702  11.481  -9.984  1.00  0.00    -0.332 OA
HETATM   14  C9  UNL     1      15.675  11.043 -10.805  1.00  0.00     0.184 C 
ENDROOT
TORSDOF 0
ENDMDL
