MODEL 1
REMARK VINA RESULT: -8.026730065      0.000      0.000
REMARK  12 active torsions:
REMARK  status: ('A' for Active; 'I' for Inactive)
REMARK    1  A    between atoms: N1_1  and  C1_5 
REMARK    2  A    between atoms: C1_5  and  C2_6 
REMARK    3  A    between atoms: C2_6  and  C3_7 
REMARK    4  A    between atoms: C3_7  and  C4_8 
REMARK    5  A    between atoms: C4_8  and  C5_9 
REMARK    6  A    between atoms: C5_9  and  N2_10 
REMARK    7  A    between atoms: C5_9  and  C11_20 
REMARK    8  A    between atoms: N2_10  and  C6_12 
REMARK    9  A    between atoms: C6_12  and  N3_14 
REMARK   10  A    between atoms: N3_14  and  C7_16 
REMARK   11  A    between atoms: C7_16  and  C8_17 
REMARK       I    between atoms: C11_20  and  N4_22 
REMARK   12  A    between atoms: N4_22  and  C12_24 
ROOT
HETATM    1  C5  UNL     1      34.077  12.697   6.124  1.00  0.00     0.176 C 
ENDROOT
BRANCH   1   2
HETATM    2  C4  UNL     1      34.594  11.651   7.052  1.00  0.00     0.035 C 
BRANCH   2   3
HETATM    3  C3  UNL     1      34.082  10.270   6.841  1.00  0.00     0.004 C 
BRANCH   3   4
HETATM    4  C2  UNL     1      34.556   9.608   5.574  1.00  0.00     0.027 C 
BRANCH   4   5
HETATM    5  C1  UNL     1      36.057   9.709   5.381  1.00  0.00     0.229 C 
BRANCH   5   6
HETATM    6  N1  UNL     1      36.469   8.954   4.196  1.00  0.00    -0.079 N 
ATOM      7  H13 UNL     1      36.081   8.011   4.192  1.00  0.00     0.274 HD
ATOM      8  H12 UNL     1      36.022   9.304   3.348  1.00  0.00     0.274 HD
ATOM      9  H11 UNL     1      37.486   8.949   4.116  1.00  0.00     0.274 HD
ENDBRANCH   5   6
ENDBRANCH   4   5
ENDBRANCH   3   4
ENDBRANCH   2   3
ENDBRANCH   1   2
BRANCH   1  10
HETATM   10  N2  UNL     1      32.628  12.812   6.337  1.00  0.00    -0.354 N 
ATOM     11  H2  UNL     1      32.323  12.825   7.310  1.00  0.00     0.162 HD
BRANCH  10  12
HETATM   12  C6  UNL     1      31.617  12.903   5.387  1.00  0.00     0.168 C 
HETATM   13  S1  UNL     1      31.451  14.039   4.245  1.00  0.00    -0.041 SA
BRANCH  12  14
HETATM   14  N3  UNL     1      30.607  11.867   5.429  1.00  0.00    -0.367 N 
ATOM     15  H3  UNL     1      29.657  12.072   5.740  1.00  0.00     0.161 HD
BRANCH  14  16
HETATM   16  C7  UNL     1      30.980  10.543   5.020  1.00  0.00     0.126 C 
BRANCH  16  17
HETATM   17  C8  UNL     1      31.036  10.404   3.523  1.00  0.00     0.003 A 
HETATM   18  C9  UNL     1      31.732   9.179   3.002  1.00  0.00     0.007 A 
HETATM   19  C10 UNL     1      30.238   9.355   2.873  1.00  0.00     0.007 A 
ENDBRANCH  16  17
ENDBRANCH  14  16
ENDBRANCH  12  14
ENDBRANCH  10  12
ENDBRANCH   1  10
BRANCH   1  20
HETATM   20  C11 UNL     1      34.609  14.050   6.240  1.00  0.00     0.241 C 
HETATM   21  O1  UNL     1      34.814  14.723   5.164  1.00  0.00    -0.271 OA
HETATM   22  N4  UNL     1      34.932  14.705   7.426  1.00  0.00    -0.346 N 
ATOM     23  H4  UNL     1      34.801  14.216   8.311  1.00  0.00     0.163 HD
BRANCH  22  24
HETATM   24  C12 UNL     1      35.459  16.091   7.443  1.00  0.00     0.176 C 
HETATM   25  C13 UNL     1      36.880  15.981   7.898  1.00  0.00     0.035 C 
HETATM   26  C14 UNL     1      37.760  16.178   6.657  1.00  0.00     0.002 C 
HETATM   27  C15 UNL     1      38.496  17.499   6.708  1.00  0.00     0.000 C 
HETATM   28  C16 UNL     1      37.978  18.490   5.695  1.00  0.00     0.000 C 
HETATM   29  C17 UNL     1      38.012  19.908   6.171  1.00  0.00     0.000 C 
HETATM   30  C18 UNL     1      37.332  20.159   7.463  1.00  0.00     0.002 C 
HETATM   31  C19 UNL     1      35.974  19.520   7.598  1.00  0.00     0.020 C 
HETATM   32  C20 UNL     1      35.854  19.055   9.030  1.00  0.00     0.122 C 
HETATM   33  N5  UNL     1      34.983  17.918   9.211  1.00  0.00    -0.359 N 
HETATM   34  C21 UNL     1      34.598  16.949   8.294  1.00  0.00     0.240 C 
ATOM     35  H5  UNL     1      34.595  17.811  10.148  1.00  0.00     0.162 HD
HETATM   36  O2  UNL     1      33.341  16.737   8.134  1.00  0.00    -0.271 OA
ENDBRANCH  22  24
ENDBRANCH   1  20
TORSDOF 12
ENDMDL
MODEL 2
REMARK VINA RESULT: -8.001860703      6.409     10.762
REMARK  12 active torsions:
REMARK  status: ('A' for Active; 'I' for Inactive)
REMARK    1  A    between atoms: N1_1  and  C1_5 
REMARK    2  A    between atoms: C1_5  and  C2_6 
REMARK    3  A    between atoms: C2_6  and  C3_7 
REMARK    4  A    between atoms: C3_7  and  C4_8 
REMARK    5  A    between atoms: C4_8  and  C5_9 
REMARK    6  A    between atoms: C5_9  and  N2_10 
REMARK    7  A    between atoms: C5_9  and  C11_20 
REMARK    8  A    between atoms: N2_10  and  C6_12 
REMARK    9  A    between atoms: C6_12  and  N3_14 
REMARK   10  A    between atoms: N3_14  and  C7_16 
REMARK   11  A    between atoms: C7_16  and  C8_17 
REMARK       I    between atoms: C11_20  and  N4_22 
REMARK   12  A    between atoms: N4_22  and  C12_24 
ROOT
HETATM    1  C5  UNL     1      32.316   9.626   1.528  1.00  0.00     0.176 C 
ENDROOT
BRANCH   1   2
HETATM    2  C4  UNL     1      31.959   9.066   2.863  1.00  0.00     0.035 C 
BRANCH   2   3
HETATM    3  C3  UNL     1      30.818   9.712   3.566  1.00  0.00     0.004 C 
BRANCH   3   4
HETATM    4  C2  UNL     1      31.201  10.529   4.772  1.00  0.00     0.027 C 
BRANCH   4   5
HETATM    5  C1  UNL     1      31.586  11.954   4.421  1.00  0.00     0.229 C 
BRANCH   5   6
HETATM    6  N1  UNL     1      30.606  12.532   3.500  1.00  0.00    -0.079 N 
ATOM      7  H13 UNL     1      30.444  11.933   2.691  1.00  0.00     0.274 HD
ATOM      8  H12 UNL     1      29.663  12.517   3.890  1.00  0.00     0.274 HD
ATOM      9  H11 UNL     1      30.890  13.473   3.227  1.00  0.00     0.274 HD
ENDBRANCH   5   6
ENDBRANCH   4   5
ENDBRANCH   3   4
ENDBRANCH   2   3
ENDBRANCH   1   2
BRANCH   1  10
HETATM   10  N2  UNL     1      32.836   8.527   0.703  1.00  0.00    -0.354 N 
ATOM     11  H2  UNL     1      32.154   8.062   0.104  1.00  0.00     0.162 HD
BRANCH  10  12
HETATM   12  C6  UNL     1      34.135   8.038   0.630  1.00  0.00     0.168 C 
HETATM   13  S1  UNL     1      34.593   6.485   0.613  1.00  0.00    -0.041 SA
BRANCH  12  14
HETATM   14  N3  UNL     1      35.188   9.030   0.562  1.00  0.00    -0.367 N 
ATOM     15  H3  UNL     1      35.108   9.838  -0.055  1.00  0.00     0.161 HD
BRANCH  14  16
HETATM   16  C7  UNL     1      36.346   8.843   1.387  1.00  0.00     0.126 C 
BRANCH  16  17
HETATM   17  C8  UNL     1      36.173   9.442   2.756  1.00  0.00     0.003 A 
HETATM   18  C9  UNL     1      35.847   8.477   3.861  1.00  0.00     0.007 A 
HETATM   19  C10 UNL     1      37.185   9.174   3.788  1.00  0.00     0.007 A 
ENDBRANCH  16  17
ENDBRANCH  14  16
ENDBRANCH  12  14
ENDBRANCH  10  12
ENDBRANCH   1  10
BRANCH   1  20
HETATM   20  C11 UNL     1      31.264  10.258   0.739  1.00  0.00     0.241 C 
HETATM   21  O1  UNL     1      31.185  11.541   0.738  1.00  0.00    -0.271 OA
HETATM   22  N4  UNL     1      30.308   9.599  -0.030  1.00  0.00    -0.346 N 
ATOM     23  H4  UNL     1      30.314   8.580  -0.058  1.00  0.00     0.163 HD
BRANCH  22  24
HETATM   24  C12 UNL     1      29.281  10.333  -0.808  1.00  0.00     0.176 C 
HETATM   25  C13 UNL     1      27.989  10.117  -0.085  1.00  0.00     0.035 C 
HETATM   26  C14 UNL     1      27.669  11.425   0.650  1.00  0.00     0.002 C 
HETATM   27  C15 UNL     1      26.485  12.131   0.026  1.00  0.00     0.000 C 
HETATM   28  C16 UNL     1      26.881  13.396  -0.697  1.00  0.00     0.000 C 
HETATM   29  C17 UNL     1      26.065  13.669  -1.921  1.00  0.00     0.000 C 
HETATM   30  C18 UNL     1      26.012  12.562  -2.906  1.00  0.00     0.002 C 
HETATM   31  C19 UNL     1      27.341  11.921  -3.210  1.00  0.00     0.020 C 
HETATM   32  C20 UNL     1      27.081  10.444  -3.379  1.00  0.00     0.122 C 
HETATM   33  N5  UNL     1      28.205   9.603  -3.045  1.00  0.00    -0.359 N 
HETATM   34  C21 UNL     1      29.288   9.868  -2.218  1.00  0.00     0.240 C 
ATOM     35  H5  UNL     1      28.204   8.680  -3.479  1.00  0.00     0.162 HD
HETATM   36  O2  UNL     1      30.469   9.702  -2.699  1.00  0.00    -0.271 OA
ENDBRANCH  22  24
ENDBRANCH   1  20
TORSDOF 12
ENDMDL
MODEL 3
REMARK VINA RESULT: -7.961314499      1.683      2.672
REMARK  12 active torsions:
REMARK  status: ('A' for Active; 'I' for Inactive)
REMARK    1  A    between atoms: N1_1  and  C1_5 
REMARK    2  A    between atoms: C1_5  and  C2_6 
REMARK    3  A    between atoms: C2_6  and  C3_7 
REMARK    4  A    between atoms: C3_7  and  C4_8 
REMARK    5  A    between atoms: C4_8  and  C5_9 
REMARK    6  A    between atoms: C5_9  and  N2_10 
REMARK    7  A    between atoms: C5_9  and  C11_20 
REMARK    8  A    between atoms: N2_10  and  C6_12 
REMARK    9  A    between atoms: C6_12  and  N3_14 
REMARK   10  A    between atoms: N3_14  and  C7_16 
REMARK   11  A    between atoms: C7_16  and  C8_17 
REMARK       I    between atoms: C11_20  and  N4_22 
REMARK   12  A    between atoms: N4_22  and  C12_24 
ROOT
HETATM    1  C5  UNL     1      33.783  11.807   6.258  1.00  0.00     0.176 C 
ENDROOT
BRANCH   1   2
HETATM    2  C4  UNL     1      34.166  10.632   7.092  1.00  0.00     0.035 C 
BRANCH   2   3
HETATM    3  C3  UNL     1      34.730   9.462   6.365  1.00  0.00     0.004 C 
BRANCH   3   4
HETATM    4  C2  UNL     1      35.863   9.788   5.427  1.00  0.00     0.027 C 
BRANCH   4   5
HETATM    5  C1  UNL     1      35.983   8.801   4.282  1.00  0.00     0.229 C 
BRANCH   5   6
HETATM    6  N1  UNL     1      37.314   8.884   3.677  1.00  0.00    -0.079 N 
ATOM      7  H13 UNL     1      37.816   7.999   3.741  1.00  0.00     0.274 HD
ATOM      8  H12 UNL     1      37.266   8.958   2.661  1.00  0.00     0.274 HD
ATOM      9  H11 UNL     1      37.843   9.653   4.090  1.00  0.00     0.274 HD
ENDBRANCH   5   6
ENDBRANCH   4   5
ENDBRANCH   3   4
ENDBRANCH   2   3
ENDBRANCH   1   2
BRANCH   1  10
HETATM   10  N2  UNL     1      32.329  11.986   6.373  1.00  0.00    -0.354 N 
ATOM     11  H2  UNL     1      31.970  12.091   7.323  1.00  0.00     0.162 HD
BRANCH  10  12
HETATM   12  C6  UNL     1      31.378  12.032   5.360  1.00  0.00     0.168 C 
HETATM   13  S1  UNL     1      31.026  13.293   4.409  1.00  0.00    -0.041 SA
BRANCH  12  14
HETATM   14  N3  UNL     1      30.626  10.814   5.137  1.00  0.00    -0.367 N 
ATOM     15  H3  UNL     1      29.978  10.461   5.841  1.00  0.00     0.161 HD
BRANCH  14  16
HETATM   16  C7  UNL     1      30.818  10.120   3.897  1.00  0.00     0.126 C 
BRANCH  16  17
HETATM   17  C8  UNL     1      32.241   9.668   3.711  1.00  0.00     0.003 A 
HETATM   18  C9  UNL     1      32.508   8.812   2.505  1.00  0.00     0.007 A 
HETATM   19  C10 UNL     1      33.030  10.226   2.604  1.00  0.00     0.007 A 
ENDBRANCH  16  17
ENDBRANCH  14  16
ENDBRANCH  12  14
ENDBRANCH  10  12
ENDBRANCH   1  10
BRANCH   1  20
HETATM   20  C11 UNL     1      34.374  13.103   6.574  1.00  0.00     0.241 C 
HETATM   21  O1  UNL     1      34.843  13.291   7.756  1.00  0.00    -0.271 OA
HETATM   22  N4  UNL     1      34.480  14.189   5.708  1.00  0.00    -0.346 N 
ATOM     23  H4  UNL     1      34.114  14.101   4.761  1.00  0.00     0.163 HD
BRANCH  22  24
HETATM   24  C12 UNL     1      35.109  15.467   6.121  1.00  0.00     0.176 C 
HETATM   25  C13 UNL     1      34.035  16.503   6.014  1.00  0.00     0.035 C 
HETATM   26  C14 UNL     1      33.584  16.823   7.445  1.00  0.00     0.002 C 
HETATM   27  C15 UNL     1      34.021  18.211   7.862  1.00  0.00     0.000 C 
HETATM   28  C16 UNL     1      35.110  18.186   8.906  1.00  0.00     0.000 C 
HETATM   29  C17 UNL     1      36.097  19.301   8.771  1.00  0.00     0.000 C 
HETATM   30  C18 UNL     1      36.730  19.429   7.436  1.00  0.00     0.002 C 
HETATM   31  C19 UNL     1      37.213  18.133   6.839  1.00  0.00     0.020 C 
HETATM   32  C20 UNL     1      36.939  18.210   5.356  1.00  0.00     0.122 C 
HETATM   33  N5  UNL     1      36.725  16.929   4.726  1.00  0.00    -0.359 N 
HETATM   34  C21 UNL     1      36.310  15.730   5.290  1.00  0.00     0.240 C 
ATOM     35  H5  UNL     1      36.903  16.902   3.722  1.00  0.00     0.162 HD
HETATM   36  O2  UNL     1      37.035  14.687   5.088  1.00  0.00    -0.271 OA
ENDBRANCH  22  24
ENDBRANCH   1  20
TORSDOF 12
ENDMDL
MODEL 4
REMARK VINA RESULT: -7.924572691      6.942     10.119
REMARK  12 active torsions:
REMARK  status: ('A' for Active; 'I' for Inactive)
REMARK    1  A    between atoms: N1_1  and  C1_5 
REMARK    2  A    between atoms: C1_5  and  C2_6 
REMARK    3  A    between atoms: C2_6  and  C3_7 
REMARK    4  A    between atoms: C3_7  and  C4_8 
REMARK    5  A    between atoms: C4_8  and  C5_9 
REMARK    6  A    between atoms: C5_9  and  N2_10 
REMARK    7  A    between atoms: C5_9  and  C11_20 
REMARK    8  A    between atoms: N2_10  and  C6_12 
REMARK    9  A    between atoms: C6_12  and  N3_14 
REMARK   10  A    between atoms: N3_14  and  C7_16 
REMARK   11  A    between atoms: C7_16  and  C8_17 
REMARK       I    between atoms: C11_20  and  N4_22 
REMARK   12  A    between atoms: N4_22  and  C12_24 
ROOT
HETATM    1  C5  UNL     1      33.264   8.717   0.594  1.00  0.00     0.176 C 
ENDROOT
BRANCH   1   2
HETATM    2  C4  UNL     1      33.880   7.724  -0.332  1.00  0.00     0.035 C 
BRANCH   2   3
HETATM    3  C3  UNL     1      34.876   6.793   0.266  1.00  0.00     0.004 C 
BRANCH   3   4
HETATM    4  C2  UNL     1      34.284   5.689   1.102  1.00  0.00     0.027 C 
BRANCH   4   5
HETATM    5  C1  UNL     1      35.084   5.409   2.360  1.00  0.00     0.229 C 
BRANCH   5   6
HETATM    6  N1  UNL     1      35.790   4.132   2.239  1.00  0.00    -0.079 N 
ATOM      7  H13 UNL     1      35.205   3.346   2.520  1.00  0.00     0.274 HD
ATOM      8  H12 UNL     1      35.938   3.870   1.265  1.00  0.00     0.274 HD
ATOM      9  H11 UNL     1      36.666   4.161   2.763  1.00  0.00     0.274 HD
ENDBRANCH   5   6
ENDBRANCH   4   5
ENDBRANCH   3   4
ENDBRANCH   2   3
ENDBRANCH   1   2
BRANCH   1  10
HETATM   10  N2  UNL     1      34.330   9.607   1.074  1.00  0.00    -0.354 N 
ATOM     11  H2  UNL     1      34.794  10.168   0.359  1.00  0.00     0.162 HD
BRANCH  10  12
HETATM   12  C6  UNL     1      34.791   9.786   2.373  1.00  0.00     0.168 C 
HETATM   13  S1  UNL     1      36.002  10.747   2.855  1.00  0.00    -0.041 SA
BRANCH  12  14
HETATM   14  N3  UNL     1      34.110   9.028   3.401  1.00  0.00    -0.367 N 
ATOM     15  H3  UNL     1      34.143   8.008   3.411  1.00  0.00     0.161 HD
BRANCH  14  16
HETATM   16  C7  UNL     1      33.386   9.752   4.406  1.00  0.00     0.126 C 
BRANCH  16  17
HETATM   17  C8  UNL     1      32.174  10.446   3.846  1.00  0.00     0.003 A 
HETATM   18  C9  UNL     1      31.011   9.561   3.497  1.00  0.00     0.007 A 
HETATM   19  C10 UNL     1      30.953  10.522   4.661  1.00  0.00     0.007 A 
ENDBRANCH  16  17
ENDBRANCH  14  16
ENDBRANCH  12  14
ENDBRANCH  10  12
ENDBRANCH   1  10
BRANCH   1  20
HETATM   20  C11 UNL     1      32.215   9.589   0.076  1.00  0.00     0.241 C 
HETATM   21  O1  UNL     1      32.425  10.857   0.060  1.00  0.00    -0.271 OA
HETATM   22  N4  UNL     1      30.976   9.180  -0.409  1.00  0.00    -0.346 N 
ATOM     23  H4  UNL     1      30.749   8.186  -0.410  1.00  0.00     0.163 HD
BRANCH  22  24
HETATM   24  C12 UNL     1      29.975  10.145  -0.926  1.00  0.00     0.176 C 
HETATM   25  C13 UNL     1      28.910  10.227   0.121  1.00  0.00     0.035 C 
HETATM   26  C14 UNL     1      29.106  11.563   0.850  1.00  0.00     0.002 C 
HETATM   27  C15 UNL     1      27.994  12.536   0.524  1.00  0.00     0.000 C 
HETATM   28  C16 UNL     1      28.462  13.683  -0.338  1.00  0.00     0.000 C 
HETATM   29  C17 UNL     1      27.434  14.157  -1.316  1.00  0.00     0.000 C 
HETATM   30  C18 UNL     1      26.868  13.108  -2.197  1.00  0.00     0.002 C 
HETATM   31  C19 UNL     1      27.884  12.178  -2.808  1.00  0.00     0.020 C 
HETATM   32  C20 UNL     1      27.256  10.805  -2.831  1.00  0.00     0.122 C 
HETATM   33  N5  UNL     1      28.204   9.720  -2.763  1.00  0.00    -0.359 N 
HETATM   34  C21 UNL     1      29.500   9.713  -2.263  1.00  0.00     0.240 C 
ATOM     35  H5  UNL     1      27.875   8.829  -3.136  1.00  0.00     0.162 HD
HETATM   36  O2  UNL     1      30.438   9.281  -3.029  1.00  0.00    -0.271 OA
ENDBRANCH  22  24
ENDBRANCH   1  20
TORSDOF 12
ENDMDL
MODEL 5
REMARK VINA RESULT: -7.912058128      5.228      8.967
REMARK  12 active torsions:
REMARK  status: ('A' for Active; 'I' for Inactive)
REMARK    1  A    between atoms: N1_1  and  C1_5 
REMARK    2  A    between atoms: C1_5  and  C2_6 
REMARK    3  A    between atoms: C2_6  and  C3_7 
REMARK    4  A    between atoms: C3_7  and  C4_8 
REMARK    5  A    between atoms: C4_8  and  C5_9 
REMARK    6  A    between atoms: C5_9  and  N2_10 
REMARK    7  A    between atoms: C5_9  and  C11_20 
REMARK    8  A    between atoms: N2_10  and  C6_12 
REMARK    9  A    between atoms: C6_12  and  N3_14 
REMARK   10  A    between atoms: N3_14  and  C7_16 
REMARK   11  A    between atoms: C7_16  and  C8_17 
REMARK       I    between atoms: C11_20  and  N4_22 
REMARK   12  A    between atoms: N4_22  and  C12_24 
ROOT
HETATM    1  C5  UNL     1      34.088   9.125   4.302  1.00  0.00     0.176 C 
ENDROOT
BRANCH   1   2
HETATM    2  C4  UNL     1      35.561   8.943   4.161  1.00  0.00     0.035 C 
BRANCH   2   3
HETATM    3  C3  UNL     1      36.155   9.349   2.857  1.00  0.00     0.004 C 
BRANCH   3   4
HETATM    4  C2  UNL     1      36.898   8.256   2.135  1.00  0.00     0.027 C 
BRANCH   4   5
HETATM    5  C1  UNL     1      36.031   7.514   1.136  1.00  0.00     0.229 C 
BRANCH   5   6
HETATM    6  N1  UNL     1      35.763   6.154   1.609  1.00  0.00    -0.079 N 
ATOM      7  H13 UNL     1      34.867   6.090   2.092  1.00  0.00     0.274 HD
ATOM      8  H12 UNL     1      35.565   5.516   0.839  1.00  0.00     0.274 HD
ATOM      9  H11 UNL     1      36.534   5.823   2.190  1.00  0.00     0.274 HD
ENDBRANCH   5   6
ENDBRANCH   4   5
ENDBRANCH   3   4
ENDBRANCH   2   3
ENDBRANCH   1   2
BRANCH   1  10
HETATM   10  N2  UNL     1      33.854  10.430   4.935  1.00  0.00    -0.354 N 
ATOM     11  H2  UNL     1      33.876  11.236   4.309  1.00  0.00     0.162 HD
BRANCH  10  12
HETATM   12  C6  UNL     1      33.608  10.713   6.273  1.00  0.00     0.168 C 
HETATM   13  S1  UNL     1      34.704  10.881   7.453  1.00  0.00    -0.041 SA
BRANCH  12  14
HETATM   14  N3  UNL     1      32.218  10.874   6.646  1.00  0.00    -0.367 N 
ATOM     15  H3  UNL     1      31.907  10.697   7.601  1.00  0.00     0.161 HD
BRANCH  14  16
HETATM   16  C7  UNL     1      31.291  11.288   5.632  1.00  0.00     0.126 C 
BRANCH  16  17
HETATM   17  C8  UNL     1      30.839  12.710   5.822  1.00  0.00     0.003 A 
HETATM   18  C9  UNL     1      31.903  13.763   5.689  1.00  0.00     0.007 A 
HETATM   19  C10 UNL     1      30.807  13.611   4.661  1.00  0.00     0.007 A 
ENDBRANCH  16  17
ENDBRANCH  14  16
ENDBRANCH  12  14
ENDBRANCH  10  12
ENDBRANCH   1  10
BRANCH   1  20
HETATM   20  C11 UNL     1      33.270   9.112   3.094  1.00  0.00     0.241 C 
HETATM   21  O1  UNL     1      33.086   7.992   2.490  1.00  0.00    -0.271 OA
HETATM   22  N4  UNL     1      32.657  10.216   2.507  1.00  0.00    -0.346 N 
ATOM     23  H4  UNL     1      32.777  11.133   2.936  1.00  0.00     0.163 HD
BRANCH  22  24
HETATM   24  C12 UNL     1      31.833  10.100   1.279  1.00  0.00     0.176 C 
HETATM   25  C13 UNL     1      32.636  10.732   0.188  1.00  0.00     0.035 C 
HETATM   26  C14 UNL     1      33.201   9.590  -0.667  1.00  0.00     0.002 C 
HETATM   27  C15 UNL     1      32.541   9.542  -2.027  1.00  0.00     0.000 C 
HETATM   28  C16 UNL     1      31.636   8.344  -2.190  1.00  0.00     0.000 C 
HETATM   29  C17 UNL     1      30.425   8.616  -3.024  1.00  0.00     0.000 C 
HETATM   30  C18 UNL     1      29.602   9.770  -2.589  1.00  0.00     0.002 C 
HETATM   31  C19 UNL     1      29.328   9.830  -1.109  1.00  0.00     0.020 C 
HETATM   32  C20 UNL     1      29.373  11.288  -0.719  1.00  0.00     0.122 C 
HETATM   33  N5  UNL     1      29.766  11.523   0.649  1.00  0.00    -0.359 N 
HETATM   34  C21 UNL     1      30.500  10.713   1.505  1.00  0.00     0.240 C 
ATOM     35  H5  UNL     1      29.462  12.413   1.044  1.00  0.00     0.162 HD
HETATM   36  O2  UNL     1      29.994  10.435   2.654  1.00  0.00    -0.271 OA
ENDBRANCH  22  24
ENDBRANCH   1  20
TORSDOF 12
ENDMDL
