MODEL 1
REMARK VINA RESULT: -9.403709241      0.000      0.000
REMARK  10 active torsions:
REMARK  status: ('A' for Active; 'I' for Inactive)
REMARK    1  A    between atoms: C1_2  and  C2_3 
REMARK       I    between atoms: C1_2  and  N1_11 
REMARK    2  A    between atoms: C2_3  and  C3_4 
REMARK    3  A    between atoms: C3_4  and  C4_5 
REMARK    4  A    between atoms: C4_5  and  C5_6 
REMARK    5  A    between atoms: C5_6  and  C6_7 
REMARK    6  A    between atoms: C6_7  and  C7_8 
REMARK    7  A    between atoms: C7_8  and  C8_9 
REMARK    8  A    between atoms: N1_11  and  C9_12 
REMARK    9  A    between atoms: C9_12  and  C10_13 
REMARK   10  A    between atoms: C20_31  and  O4_32 
ROOT
HETATM    1  C10 UNL     1      35.629   6.505   1.893  1.00  0.00     0.019 C 
HETATM    2  C11 UNL     1      36.453   7.491   2.588  1.00  0.00    -0.013 C 
HETATM    3  C12 UNL     1      35.977   8.648   3.314  1.00  0.00     0.028 C 
HETATM    4  C13 UNL     1      34.955   8.398   4.372  1.00  0.00     0.005 C 
HETATM    5  C14 UNL     1      34.882   9.570   5.359  1.00  0.00     0.020 C 
HETATM    6  C15 UNL     1      33.460  10.025   5.439  1.00  0.00     0.122 C 
HETATM    7  N2  UNL     1      33.308  11.445   5.215  1.00  0.00    -0.360 N 
ATOM      8  H2  UNL     1      33.007  11.994   6.020  1.00  0.00     0.162 HD
HETATM    9  C16 UNL     1      33.521  12.152   4.043  1.00  0.00     0.235 C 
HETATM   10  O2  UNL     1      33.917  13.368   4.161  1.00  0.00    -0.272 OA
HETATM   11  C17 UNL     1      33.352  11.691   2.645  1.00  0.00     0.225 C 
HETATM   12  N3  UNL     1      32.311  10.708   2.493  1.00  0.00    -0.351 N 
ATOM     13  H3  UNL     1      31.474  10.835   3.062  1.00  0.00     0.163 HD
HETATM   14  C18 UNL     1      32.330   9.600   1.645  1.00  0.00     0.235 C 
HETATM   15  O3  UNL     1      31.305   8.850   1.622  1.00  0.00    -0.272 OA
HETATM   16  C19 UNL     1      33.441   9.187   0.745  1.00  0.00     0.224 C 
HETATM   17  N4  UNL     1      33.625   7.760   0.726  1.00  0.00    -0.362 N 
ATOM     18  H4  UNL     1      32.747   7.253   0.617  1.00  0.00     0.162 HD
HETATM   19  C20 UNL     1      34.718   6.915   0.823  1.00  0.00     0.144 C 
ENDROOT
BRANCH   1  20
HETATM   20  C9  UNL     1      35.050   5.386   2.791  1.00  0.00     0.264 C 
BRANCH  20  21
HETATM   21  N1  UNL     1      34.572   4.308   2.077  1.00  0.00    -0.411 NA
HETATM   22  C1  UNL     1      34.100   3.240   1.372  1.00  0.00     0.286 C 
HETATM   23  O1  UNL     1      34.211   2.038   1.641  1.00  0.00    -0.258 OA
BRANCH  22  24
HETATM   24  C2  UNL     1      33.340   3.520   0.078  1.00  0.00     0.119 C 
BRANCH  24  25
HETATM   25  C3  UNL     1      32.541   2.279  -0.282  1.00  0.00     0.010 C 
BRANCH  25  26
HETATM   26  C4  UNL     1      31.148   2.324   0.261  1.00  0.00     0.001 C 
BRANCH  26  27
HETATM   27  C5  UNL     1      30.260   1.496  -0.671  1.00  0.00     0.000 C 
BRANCH  27  28
HETATM   28  C6  UNL     1      29.236   0.773   0.124  1.00  0.00     0.001 C 
BRANCH  28  29
HETATM   29  C7  UNL     1      27.903   0.740  -0.509  1.00  0.00     0.011 C 
BRANCH  29  30
HETATM   30  C8  UNL     1      26.676   0.694   0.301  1.00  0.00     0.086 C 
HETATM   31  S1  UNL     1      26.681  -0.524   1.611  1.00  0.00    -0.098 SA
ENDBRANCH  29  30
ENDBRANCH  28  29
ENDBRANCH  27  28
ENDBRANCH  26  27
ENDBRANCH  25  26
ENDBRANCH  24  25
ENDBRANCH  22  24
ENDBRANCH  20  21
ENDBRANCH   1  20
BRANCH  19  32
HETATM   32  O4  UNL     1      35.018   6.325  -0.328  1.00  0.00    -0.346 OA
ATOM     33  H4  UNL     1      34.279   5.838  -0.675  1.00  0.00     0.219 HD
ENDBRANCH  19  32
TORSDOF 10
ENDMDL
MODEL 2
REMARK VINA RESULT: -9.093878030      2.361      3.615
REMARK  10 active torsions:
REMARK  status: ('A' for Active; 'I' for Inactive)
REMARK    1  A    between atoms: C1_2  and  C2_3 
REMARK       I    between atoms: C1_2  and  N1_11 
REMARK    2  A    between atoms: C2_3  and  C3_4 
REMARK    3  A    between atoms: C3_4  and  C4_5 
REMARK    4  A    between atoms: C4_5  and  C5_6 
REMARK    5  A    between atoms: C5_6  and  C6_7 
REMARK    6  A    between atoms: C6_7  and  C7_8 
REMARK    7  A    between atoms: C7_8  and  C8_9 
REMARK    8  A    between atoms: N1_11  and  C9_12 
REMARK    9  A    between atoms: C9_12  and  C10_13 
REMARK   10  A    between atoms: C20_31  and  O4_32 
ROOT
HETATM    1  C10 UNL     1      35.370   9.723   2.973  1.00  0.00     0.019 C 
HETATM    2  C11 UNL     1      34.468  10.625   3.685  1.00  0.00    -0.013 C 
HETATM    3  C12 UNL     1      33.045  10.764   3.466  1.00  0.00     0.028 C 
HETATM    4  C13 UNL     1      32.235   9.512   3.530  1.00  0.00     0.005 C 
HETATM    5  C14 UNL     1      30.750   9.825   3.755  1.00  0.00     0.020 C 
HETATM    6  C15 UNL     1      29.963   9.142   2.683  1.00  0.00     0.122 C 
HETATM    7  N2  UNL     1      29.065  10.036   1.986  1.00  0.00    -0.360 N 
ATOM      8  H2  UNL     1      28.069   9.871   2.131  1.00  0.00     0.162 HD
HETATM    9  C16 UNL     1      29.391  11.089   1.146  1.00  0.00     0.235 C 
HETATM   10  O2  UNL     1      28.576  12.081   1.114  1.00  0.00    -0.272 OA
HETATM   11  C17 UNL     1      30.571  11.231   0.263  1.00  0.00     0.225 C 
HETATM   12  N3  UNL     1      31.056   9.974  -0.246  1.00  0.00    -0.351 N 
ATOM     13  H3  UNL     1      30.353   9.278  -0.492  1.00  0.00     0.163 HD
HETATM   14  C18 UNL     1      32.390   9.612  -0.437  1.00  0.00     0.235 C 
HETATM   15  O3  UNL     1      32.632   8.464  -0.924  1.00  0.00    -0.272 OA
HETATM   16  C19 UNL     1      33.590  10.438  -0.128  1.00  0.00     0.224 C 
HETATM   17  N4  UNL     1      34.658   9.656   0.435  1.00  0.00    -0.362 N 
ATOM     18  H4  UNL     1      34.828   8.794  -0.083  1.00  0.00     0.162 HD
HETATM   19  C20 UNL     1      35.509   9.802   1.518  1.00  0.00     0.144 C 
ENDROOT
BRANCH   1  20
HETATM   20  C9  UNL     1      35.405   8.273   3.511  1.00  0.00     0.264 C 
BRANCH  20  21
HETATM   21  N1  UNL     1      35.318   7.322   2.516  1.00  0.00    -0.411 NA
HETATM   22  C1  UNL     1      35.233   6.382   1.532  1.00  0.00     0.286 C 
HETATM   23  O1  UNL     1      35.467   6.517   0.325  1.00  0.00    -0.258 OA
BRANCH  22  24
HETATM   24  C2  UNL     1      34.791   4.975   1.927  1.00  0.00     0.119 C 
BRANCH  24  25
HETATM   25  C3  UNL     1      33.936   4.412   0.803  1.00  0.00     0.010 C 
BRANCH  25  26
HETATM   26  C4  UNL     1      34.003   2.920   0.734  1.00  0.00     0.001 C 
BRANCH  26  27
HETATM   27  C5  UNL     1      32.964   2.457  -0.290  1.00  0.00     0.000 C 
BRANCH  27  28
HETATM   28  C6  UNL     1      31.615   2.455   0.328  1.00  0.00     0.001 C 
BRANCH  28  29
HETATM   29  C7  UNL     1      30.573   1.835  -0.514  1.00  0.00     0.011 C 
BRANCH  29  30
HETATM   30  C8  UNL     1      29.519   0.994   0.074  1.00  0.00     0.086 C 
HETATM   31  S1  UNL     1      28.177   0.581  -1.034  1.00  0.00    -0.098 SA
ENDBRANCH  29  30
ENDBRANCH  28  29
ENDBRANCH  27  28
ENDBRANCH  26  27
ENDBRANCH  25  26
ENDBRANCH  24  25
ENDBRANCH  22  24
ENDBRANCH  20  21
ENDBRANCH   1  20
BRANCH  19  32
HETATM   32  O4  UNL     1      36.758  10.075   1.160  1.00  0.00    -0.346 OA
ATOM     33  H4  UNL     1      37.236  10.510   1.857  1.00  0.00     0.219 HD
ENDBRANCH  19  32
TORSDOF 10
ENDMDL
MODEL 3
REMARK VINA RESULT: -8.995419768      5.187      6.401
REMARK  10 active torsions:
REMARK  status: ('A' for Active; 'I' for Inactive)
REMARK    1  A    between atoms: C1_2  and  C2_3 
REMARK       I    between atoms: C1_2  and  N1_11 
REMARK    2  A    between atoms: C2_3  and  C3_4 
REMARK    3  A    between atoms: C3_4  and  C4_5 
REMARK    4  A    between atoms: C4_5  and  C5_6 
REMARK    5  A    between atoms: C5_6  and  C6_7 
REMARK    6  A    between atoms: C6_7  and  C7_8 
REMARK    7  A    between atoms: C7_8  and  C8_9 
REMARK    8  A    between atoms: N1_11  and  C9_12 
REMARK    9  A    between atoms: C9_12  and  C10_13 
REMARK   10  A    between atoms: C20_31  and  O4_32 
ROOT
HETATM    1  C10 UNL     1      31.913   9.231   2.479  1.00  0.00     0.019 C 
HETATM    2  C11 UNL     1      31.382   9.638   3.777  1.00  0.00    -0.013 C 
HETATM    3  C12 UNL     1      32.025  10.518   4.729  1.00  0.00     0.028 C 
HETATM    4  C13 UNL     1      32.459  11.850   4.216  1.00  0.00     0.005 C 
HETATM    5  C14 UNL     1      32.678  12.841   5.367  1.00  0.00     0.020 C 
HETATM    6  C15 UNL     1      34.054  13.410   5.237  1.00  0.00     0.122 C 
HETATM    7  N2  UNL     1      34.830  13.297   6.451  1.00  0.00    -0.360 N 
ATOM      8  H2  UNL     1      35.051  14.173   6.924  1.00  0.00     0.162 HD
HETATM    9  C16 UNL     1      35.309  12.144   7.053  1.00  0.00     0.235 C 
HETATM   10  O2  UNL     1      35.423  12.161   8.332  1.00  0.00    -0.272 OA
HETATM   11  C17 UNL     1      35.717  10.872   6.414  1.00  0.00     0.225 C 
HETATM   12  N3  UNL     1      36.261  11.048   5.092  1.00  0.00    -0.351 N 
ATOM     13  H3  UNL     1      36.846  11.870   4.944  1.00  0.00     0.163 HD
HETATM   14  C18 UNL     1      36.069  10.209   3.994  1.00  0.00     0.235 C 
HETATM   15  O3  UNL     1      36.651  10.509   2.906  1.00  0.00    -0.272 OA
HETATM   16  C19 UNL     1      35.239   8.974   3.952  1.00  0.00     0.224 C 
HETATM   17  N4  UNL     1      34.511   8.849   2.717  1.00  0.00    -0.362 N 
ATOM     18  H4  UNL     1      35.094   9.026   1.899  1.00  0.00     0.162 HD
HETATM   19  C20 UNL     1      33.202   8.544   2.382  1.00  0.00     0.144 C 
ENDROOT
BRANCH   1  20
HETATM   20  C9  UNL     1      31.669  10.235   1.327  1.00  0.00     0.264 C 
BRANCH  20  21
HETATM   21  N1  UNL     1      32.563  10.098   0.287  1.00  0.00    -0.411 NA
HETATM   22  C1  UNL     1      33.450   9.962  -0.741  1.00  0.00     0.286 C 
HETATM   23  O1  UNL     1      34.675  10.122  -0.719  1.00  0.00    -0.258 OA
BRANCH  22  24
HETATM   24  C2  UNL     1      32.898   9.569  -2.109  1.00  0.00     0.119 C 
BRANCH  24  25
HETATM   25  C3  UNL     1      31.617   8.779  -1.897  1.00  0.00     0.010 C 
BRANCH  25  26
HETATM   26  C4  UNL     1      30.895   8.516  -3.180  1.00  0.00     0.001 C 
BRANCH  26  27
HETATM   27  C5  UNL     1      29.426   8.892  -2.970  1.00  0.00     0.000 C 
BRANCH  27  28
HETATM   28  C6  UNL     1      29.324   9.964  -1.949  1.00  0.00     0.001 C 
BRANCH  28  29
HETATM   29  C7  UNL     1      28.210  10.904  -2.179  1.00  0.00     0.011 C 
BRANCH  29  30
HETATM   30  C8  UNL     1      27.454  10.895  -3.441  1.00  0.00     0.086 C 
HETATM   31  S1  UNL     1      26.081  12.041  -3.508  1.00  0.00    -0.098 SA
ENDBRANCH  29  30
ENDBRANCH  28  29
ENDBRANCH  27  28
ENDBRANCH  26  27
ENDBRANCH  25  26
ENDBRANCH  24  25
ENDBRANCH  22  24
ENDBRANCH  20  21
ENDBRANCH   1  20
BRANCH  19  32
HETATM   32  O4  UNL     1      33.077   7.341   1.833  1.00  0.00    -0.346 OA
ATOM     33  H4  UNL     1      33.104   6.653   2.487  1.00  0.00     0.219 HD
ENDBRANCH  19  32
TORSDOF 10
ENDMDL
MODEL 4
REMARK VINA RESULT: -8.980451745      5.046      6.202
REMARK  10 active torsions:
REMARK  status: ('A' for Active; 'I' for Inactive)
REMARK    1  A    between atoms: C1_2  and  C2_3 
REMARK       I    between atoms: C1_2  and  N1_11 
REMARK    2  A    between atoms: C2_3  and  C3_4 
REMARK    3  A    between atoms: C3_4  and  C4_5 
REMARK    4  A    between atoms: C4_5  and  C5_6 
REMARK    5  A    between atoms: C5_6  and  C6_7 
REMARK    6  A    between atoms: C6_7  and  C7_8 
REMARK    7  A    between atoms: C7_8  and  C8_9 
REMARK    8  A    between atoms: N1_11  and  C9_12 
REMARK    9  A    between atoms: C9_12  and  C10_13 
REMARK   10  A    between atoms: C20_31  and  O4_32 
ROOT
HETATM    1  C10 UNL     1      31.957   9.228   2.379  1.00  0.00     0.019 C 
HETATM    2  C11 UNL     1      31.377   9.563   3.676  1.00  0.00    -0.013 C 
HETATM    3  C12 UNL     1      32.000  10.353   4.717  1.00  0.00     0.028 C 
HETATM    4  C13 UNL     1      32.501  11.701   4.320  1.00  0.00     0.005 C 
HETATM    5  C14 UNL     1      32.695  12.602   5.546  1.00  0.00     0.020 C 
HETATM    6  C15 UNL     1      34.093  13.130   5.520  1.00  0.00     0.122 C 
HETATM    7  N2  UNL     1      34.805  12.906   6.759  1.00  0.00    -0.360 N 
ATOM      8  H2  UNL     1      35.031  13.740   7.302  1.00  0.00     0.162 HD
HETATM    9  C16 UNL     1      35.217  11.699   7.300  1.00  0.00     0.235 C 
HETATM   10  O2  UNL     1      35.269  11.624   8.581  1.00  0.00    -0.272 OA
HETATM   11  C17 UNL     1      35.614  10.460   6.593  1.00  0.00     0.225 C 
HETATM   12  N3  UNL     1      36.228  10.707   5.313  1.00  0.00    -0.351 N 
ATOM     13  H3  UNL     1      36.846  11.516   5.250  1.00  0.00     0.163 HD
HETATM   14  C18 UNL     1      36.063   9.952   4.151  1.00  0.00     0.235 C 
HETATM   15  O3  UNL     1      36.707  10.306   3.115  1.00  0.00    -0.272 OA
HETATM   16  C19 UNL     1      35.197   8.753   3.984  1.00  0.00     0.224 C 
HETATM   17  N4  UNL     1      34.527   8.739   2.710  1.00  0.00    -0.362 N 
ATOM     18  H4  UNL     1      35.154   8.951   1.935  1.00  0.00     0.162 HD
HETATM   19  C20 UNL     1      33.227   8.505   2.294  1.00  0.00     0.144 C 
ENDROOT
BRANCH   1  20
HETATM   20  C9  UNL     1      31.802  10.317   1.291  1.00  0.00     0.264 C 
BRANCH  20  21
HETATM   21  N1  UNL     1      32.633  10.125   0.207  1.00  0.00    -0.411 NA
HETATM   22  C1  UNL     1      33.456   9.936  -0.863  1.00  0.00     0.286 C 
HETATM   23  O1  UNL     1      34.666  10.175  -0.948  1.00  0.00    -0.258 OA
BRANCH  22  24
HETATM   24  C2  UNL     1      32.843   9.366  -2.140  1.00  0.00     0.119 C 
BRANCH  24  25
HETATM   25  C3  UNL     1      31.468   8.815  -1.803  1.00  0.00     0.010 C 
BRANCH  25  26
HETATM   26  C4  UNL     1      30.662   8.515  -3.027  1.00  0.00     0.001 C 
BRANCH  26  27
HETATM   27  C5  UNL     1      29.341   9.278  -2.910  1.00  0.00     0.000 C 
BRANCH  27  28
HETATM   28  C6  UNL     1      29.308  10.030  -1.630  1.00  0.00     0.001 C 
BRANCH  28  29
HETATM   29  C7  UNL     1      27.976  10.067  -0.994  1.00  0.00     0.011 C 
BRANCH  29  30
HETATM   30  C8  UNL     1      27.820  10.405   0.429  1.00  0.00     0.086 C 
HETATM   31  S1  UNL     1      26.536  11.599   0.785  1.00  0.00    -0.098 SA
ENDBRANCH  29  30
ENDBRANCH  28  29
ENDBRANCH  27  28
ENDBRANCH  26  27
ENDBRANCH  25  26
ENDBRANCH  24  25
ENDBRANCH  22  24
ENDBRANCH  20  21
ENDBRANCH   1  20
BRANCH  19  32
HETATM   32  O4  UNL     1      33.090   7.347   1.657  1.00  0.00    -0.346 OA
ATOM     33  H4  UNL     1      32.244   6.951   1.830  1.00  0.00     0.219 HD
ENDBRANCH  19  32
TORSDOF 10
ENDMDL
MODEL 5
REMARK VINA RESULT: -8.859558824      1.646      2.110
REMARK  10 active torsions:
REMARK  status: ('A' for Active; 'I' for Inactive)
REMARK    1  A    between atoms: C1_2  and  C2_3 
REMARK       I    between atoms: C1_2  and  N1_11 
REMARK    2  A    between atoms: C2_3  and  C3_4 
REMARK    3  A    between atoms: C3_4  and  C4_5 
REMARK    4  A    between atoms: C4_5  and  C5_6 
REMARK    5  A    between atoms: C5_6  and  C6_7 
REMARK    6  A    between atoms: C6_7  and  C7_8 
REMARK    7  A    between atoms: C7_8  and  C8_9 
REMARK    8  A    between atoms: N1_11  and  C9_12 
REMARK    9  A    between atoms: C9_12  and  C10_13 
REMARK   10  A    between atoms: C20_31  and  O4_32 
ROOT
HETATM    1  C10 UNL     1      35.120   8.373   2.226  1.00  0.00     0.019 C 
HETATM    2  C11 UNL     1      35.489   9.720   2.652  1.00  0.00    -0.013 C 
HETATM    3  C12 UNL     1      34.597  10.725   3.189  1.00  0.00     0.028 C 
HETATM    4  C13 UNL     1      33.766  10.321   4.360  1.00  0.00     0.005 C 
HETATM    5  C14 UNL     1      33.240  11.548   5.115  1.00  0.00     0.020 C 
HETATM    6  C15 UNL     1      31.755  11.421   5.233  1.00  0.00     0.122 C 
HETATM    7  N2  UNL     1      31.049  12.593   4.764  1.00  0.00    -0.360 N 
ATOM      8  H2  UNL     1      30.560  13.135   5.477  1.00  0.00     0.162 HD
HETATM    9  C16 UNL     1      30.956  13.071   3.467  1.00  0.00     0.235 C 
HETATM   10  O2  UNL     1      30.837  14.342   3.323  1.00  0.00    -0.272 OA
HETATM   11  C17 UNL     1      30.975  12.305   2.199  1.00  0.00     0.225 C 
HETATM   12  N3  UNL     1      30.409  10.987   2.323  1.00  0.00    -0.351 N 
ATOM     13  H3  UNL     1      29.594  10.893   2.929  1.00  0.00     0.163 HD
HETATM   14  C18 UNL     1      30.862   9.825   1.697  1.00  0.00     0.235 C 
HETATM   15  O3  UNL     1      30.219   8.748   1.903  1.00  0.00    -0.272 OA
HETATM   16  C19 UNL     1      32.040   9.700   0.796  1.00  0.00     0.224 C 
HETATM   17  N4  UNL     1      32.776   8.485   1.026  1.00  0.00    -0.362 N 
ATOM     18  H4  UNL     1      32.170   7.667   1.089  1.00  0.00     0.162 HD
HETATM   19  C20 UNL     1      34.115   8.170   1.182  1.00  0.00     0.144 C 
ENDROOT
BRANCH   1  20
HETATM   20  C9  UNL     1      35.039   7.327   3.363  1.00  0.00     0.264 C 
BRANCH  20  21
HETATM   21  N1  UNL     1      34.988   6.027   2.904  1.00  0.00    -0.411 NA
HETATM   22  C1  UNL     1      34.939   4.742   2.452  1.00  0.00     0.286 C 
HETATM   23  O1  UNL     1      35.434   3.732   2.966  1.00  0.00    -0.258 OA
BRANCH  22  24
HETATM   24  C2  UNL     1      34.192   4.474   1.148  1.00  0.00     0.119 C 
BRANCH  24  25
HETATM   25  C3  UNL     1      34.141   2.971   0.929  1.00  0.00     0.010 C 
BRANCH  25  26
HETATM   26  C4  UNL     1      33.204   2.590  -0.172  1.00  0.00     0.001 C 
BRANCH  26  27
HETATM   27  C5  UNL     1      31.784   2.620   0.397  1.00  0.00     0.000 C 
BRANCH  27  28
HETATM   28  C6  UNL     1      30.861   1.902  -0.517  1.00  0.00     0.001 C 
BRANCH  28  29
HETATM   29  C7  UNL     1      29.799   1.149   0.178  1.00  0.00     0.011 C 
BRANCH  29  30
HETATM   30  C8  UNL     1      28.600   0.685  -0.538  1.00  0.00     0.086 C 
HETATM   31  S1  UNL     1      27.146   0.471   0.482  1.00  0.00    -0.098 SA
ENDBRANCH  29  30
ENDBRANCH  28  29
ENDBRANCH  27  28
ENDBRANCH  26  27
ENDBRANCH  25  26
ENDBRANCH  24  25
ENDBRANCH  22  24
ENDBRANCH  20  21
ENDBRANCH   1  20
BRANCH  19  32
HETATM   32  O4  UNL     1      34.617   7.519   0.139  1.00  0.00    -0.346 OA
ATOM     33  H4  UNL     1      34.394   7.945  -0.681  1.00  0.00     0.219 HD
ENDBRANCH  19  32
TORSDOF 10
ENDMDL
