MODEL 1
REMARK VINA RESULT: -9.261100241      0.000      0.000
REMARK  12 active torsions:
REMARK  status: ('A' for Active; 'I' for Inactive)
REMARK    1  A    between atoms: C2_2  and  C3_3 
REMARK    2  A    between atoms: C3_3  and  C4_4 
REMARK    3  A    between atoms: C5_7  and  N2_8 
REMARK    4  A    between atoms: C6_13  and  N4_14 
REMARK    5  A    between atoms: C7_17  and  C8_18 
REMARK    6  A    between atoms: C8_18  and  C9_19 
REMARK    7  A    between atoms: C9_19  and  C10_20 
REMARK    8  A    between atoms: C10_20  and  C11_21 
REMARK    9  A    between atoms: C11_21  and  C12_22 
REMARK   10  A    between atoms: C12_22  and  N5_23 
REMARK   11  A    between atoms: C17_29  and  C18_30 
REMARK   12  A    between atoms: C18_30  and  O1_31 
ROOT
HETATM    1  N5  UNL     1      34.229  12.608   6.427  1.00  0.00    -0.364 N 
HETATM    2  C13 UNL     1      33.153  12.610   5.665  1.00  0.00     0.113 A 
HETATM    3  C14 UNL     1      32.291  13.665   5.591  1.00  0.00     0.061 A 
HETATM    4  C15 UNL     1      31.124  13.625   4.748  1.00  0.00     0.101 C 
HETATM    5  N6  UNL     1      30.168  13.593   4.077  1.00  0.00    -0.191 NA
HETATM    6  C16 UNL     1      32.572  14.795   6.360  1.00  0.00     0.041 A 
HETATM    7  C17 UNL     1      33.660  14.855   7.159  1.00  0.00     0.032 A 
HETATM    8  C23 UNL     1      34.475  13.727   7.167  1.00  0.00     0.106 A 
ENDROOT
BRANCH   1   9
HETATM    9  C12 UNL     1      35.241  11.585   6.551  1.00  0.00     0.128 C 
BRANCH   9  10
HETATM   10  C11 UNL     1      34.700  10.233   6.794  1.00  0.00     0.020 C 
BRANCH  10  11
HETATM   11  C10 UNL     1      34.781   9.336   5.614  1.00  0.00     0.002 C 
BRANCH  11  12
HETATM   12  C9  UNL     1      36.120   9.368   4.901  1.00  0.00     0.005 C 
BRANCH  12  13
HETATM   13  C8  UNL     1      35.879   9.638   3.446  1.00  0.00     0.044 C 
BRANCH  13  14
HETATM   14  C7  UNL     1      35.336   8.455   2.729  1.00  0.00     0.009 A 
HETATM   15  C4  UNL     1      34.003   8.382   2.449  1.00  0.00     0.036 A 
HETATM   16  N1  UNL     1      33.519   7.235   1.894  1.00  0.00    -0.195 N 
HETATM   17  C5  UNL     1      34.379   6.234   1.650  1.00  0.00     0.677 A 
ATOM     18  H1  UNL     1      32.528   7.140   1.671  1.00  0.00     0.184 HD
HETATM   19  N3  UNL     1      35.712   6.309   1.930  1.00  0.00    -0.177 N 
HETATM   20  C6  UNL     1      36.223   7.432   2.479  1.00  0.00     0.122 A 
ATOM     21  H3  UNL     1      36.322   5.518   1.725  1.00  0.00     0.185 HD
BRANCH  15  22
HETATM   22  C3  UNL     1      33.072   9.529   2.650  1.00  0.00     0.058 C 
BRANCH  22  23
HETATM   23  C2  UNL     1      31.652   9.052   2.836  1.00  0.00     0.002 C 
HETATM   24  C1  UNL     1      31.035   9.933   3.917  1.00  0.00     0.005 C 
ENDBRANCH  22  23
ENDBRANCH  15  22
BRANCH  17  25
HETATM   25  N2  UNL     1      33.900   5.137   1.111  1.00  0.00    -0.234 N 
ATOM     26  H22 UNL     1      33.813   4.299   1.685  1.00  0.00     0.174 HD
ATOM     27  H21 UNL     1      33.635   5.171   0.127  1.00  0.00     0.174 HD
ENDBRANCH  17  25
BRANCH  20  28
HETATM   28  N4  UNL     1      37.474   7.468   2.744  1.00  0.00    -0.385 N 
ATOM     29  H42 UNL     1      38.209   7.118   2.130  1.00  0.00     0.157 HD
ATOM     30  H41 UNL     1      37.773   7.887   3.624  1.00  0.00     0.157 HD
ENDBRANCH  20  28
ENDBRANCH  13  14
ENDBRANCH  12  13
ENDBRANCH  11  12
ENDBRANCH  10  11
ENDBRANCH   9  10
ENDBRANCH   1   9
BRANCH   7  31
HETATM   31  C18 UNL     1      34.116  15.984   7.929  1.00  0.00     0.149 C 
HETATM   32  N7  UNL     1      34.608  17.184   7.510  1.00  0.00    -0.361 N 
HETATM   33  C19 UNL     1      34.980  18.272   8.480  1.00  0.00     0.125 C 
HETATM   34  C22 UNL     1      34.983  17.724   6.224  1.00  0.00     0.125 C 
HETATM   35  C20 UNL     1      36.321  18.694   7.972  1.00  0.00     0.021 C 
HETATM   36  C21 UNL     1      36.375  18.282   6.556  1.00  0.00     0.021 C 
BRANCH  31  37
HETATM   37  O1  UNL     1      34.063  15.836   9.239  1.00  0.00    -0.346 OA
ATOM     38  H1  UNL     1      33.934  16.635   9.736  1.00  0.00     0.219 HD
ENDBRANCH  31  37
ENDBRANCH   7  31
TORSDOF 12
ENDMDL
MODEL 2
REMARK VINA RESULT: -9.242637081      2.268      2.940
REMARK  12 active torsions:
REMARK  status: ('A' for Active; 'I' for Inactive)
REMARK    1  A    between atoms: C2_2  and  C3_3 
REMARK    2  A    between atoms: C3_3  and  C4_4 
REMARK    3  A    between atoms: C5_7  and  N2_8 
REMARK    4  A    between atoms: C6_13  and  N4_14 
REMARK    5  A    between atoms: C7_17  and  C8_18 
REMARK    6  A    between atoms: C8_18  and  C9_19 
REMARK    7  A    between atoms: C9_19  and  C10_20 
REMARK    8  A    between atoms: C10_20  and  C11_21 
REMARK    9  A    between atoms: C11_21  and  C12_22 
REMARK   10  A    between atoms: C12_22  and  N5_23 
REMARK   11  A    between atoms: C17_29  and  C18_30 
REMARK   12  A    between atoms: C18_30  and  O1_31 
ROOT
HETATM    1  N5  UNL     1      35.181  10.244   5.565  1.00  0.00    -0.364 N 
HETATM    2  C13 UNL     1      33.870  10.274   5.425  1.00  0.00     0.113 A 
HETATM    3  C14 UNL     1      33.071  11.179   6.059  1.00  0.00     0.061 A 
HETATM    4  C15 UNL     1      31.642  11.176   5.882  1.00  0.00     0.101 C 
HETATM    5  N6  UNL     1      30.481  11.168   5.752  1.00  0.00    -0.191 NA
HETATM    6  C16 UNL     1      33.680  12.119   6.892  1.00  0.00     0.041 A 
HETATM    7  C17 UNL     1      35.019  12.142   7.075  1.00  0.00     0.032 A 
HETATM    8  C23 UNL     1      35.745  11.175   6.386  1.00  0.00     0.106 A 
ENDROOT
BRANCH   1   9
HETATM    9  C12 UNL     1      36.135   9.379   4.912  1.00  0.00     0.128 C 
BRANCH   9  10
HETATM   10  C11 UNL     1      37.185  10.099   4.163  1.00  0.00     0.020 C 
BRANCH  10  11
HETATM   11  C10 UNL     1      36.662  10.924   3.046  1.00  0.00     0.002 C 
BRANCH  11  12
HETATM   12  C9  UNL     1      35.524  10.277   2.276  1.00  0.00     0.005 C 
BRANCH  12  13
HETATM   13  C8  UNL     1      36.104   9.502   1.131  1.00  0.00     0.044 C 
BRANCH  13  14
HETATM   14  C7  UNL     1      35.491   8.156   0.986  1.00  0.00     0.009 A 
HETATM   15  C4  UNL     1      34.288   8.021   0.357  1.00  0.00     0.036 A 
HETATM   16  N1  UNL     1      33.699   6.792   0.342  1.00  0.00    -0.195 N 
HETATM   17  C5  UNL     1      34.333   5.775   0.946  1.00  0.00     0.677 A 
ATOM     18  H1  UNL     1      32.798   6.649  -0.117  1.00  0.00     0.184 HD
HETATM   19  N3  UNL     1      35.536   5.911   1.573  1.00  0.00    -0.177 N 
HETATM   20  C6  UNL     1      36.146   7.116   1.605  1.00  0.00     0.122 A 
ATOM     21  H3  UNL     1      35.975   5.105   2.018  1.00  0.00     0.185 HD
BRANCH  15  22
HETATM   22  C3  UNL     1      33.633   9.139  -0.379  1.00  0.00     0.058 C 
BRANCH  22  23
HETATM   23  C2  UNL     1      32.475   8.641  -1.210  1.00  0.00     0.002 C 
HETATM   24  C1  UNL     1      32.632   9.264  -2.593  1.00  0.00     0.005 C 
ENDBRANCH  22  23
ENDBRANCH  15  22
BRANCH  17  25
HETATM   25  N2  UNL     1      33.756   4.596   0.919  1.00  0.00    -0.234 N 
ATOM     26  H22 UNL     1      33.490   4.195   0.020  1.00  0.00     0.174 HD
ATOM     27  H21 UNL     1      33.594   4.128   1.810  1.00  0.00     0.174 HD
ENDBRANCH  17  25
BRANCH  20  28
HETATM   28  N4  UNL     1      37.267   7.217   2.214  1.00  0.00    -0.385 N 
ATOM     29  H42 UNL     1      38.139   6.787   1.904  1.00  0.00     0.157 HD
ATOM     30  H41 UNL     1      37.310   7.777   3.065  1.00  0.00     0.157 HD
ENDBRANCH  20  28
ENDBRANCH  13  14
ENDBRANCH  12  13
ENDBRANCH  11  12
ENDBRANCH  10  11
ENDBRANCH   9  10
ENDBRANCH   1   9
BRANCH   7  31
HETATM   31  C18 UNL     1      35.780  13.105   7.828  1.00  0.00     0.149 C 
HETATM   32  N7  UNL     1      36.051  14.412   7.550  1.00  0.00    -0.361 N 
HETATM   33  C19 UNL     1      36.825  15.282   8.501  1.00  0.00     0.125 C 
HETATM   34  C22 UNL     1      35.826  15.265   6.406  1.00  0.00     0.125 C 
HETATM   35  C20 UNL     1      37.809  15.939   7.588  1.00  0.00     0.021 C 
HETATM   36  C21 UNL     1      37.228  15.868   6.234  1.00  0.00     0.021 C 
BRANCH  31  37
HETATM   37  O1  UNL     1      36.309  12.659   8.950  1.00  0.00    -0.346 OA
ATOM     38  H1  UNL     1      36.833  13.287   9.434  1.00  0.00     0.219 HD
ENDBRANCH  31  37
ENDBRANCH   7  31
TORSDOF 12
ENDMDL
MODEL 3
REMARK VINA RESULT: -9.191921426      4.769      8.040
REMARK  12 active torsions:
REMARK  status: ('A' for Active; 'I' for Inactive)
REMARK    1  A    between atoms: C2_2  and  C3_3 
REMARK    2  A    between atoms: C3_3  and  C4_4 
REMARK    3  A    between atoms: C5_7  and  N2_8 
REMARK    4  A    between atoms: C6_13  and  N4_14 
REMARK    5  A    between atoms: C7_17  and  C8_18 
REMARK    6  A    between atoms: C8_18  and  C9_19 
REMARK    7  A    between atoms: C9_19  and  C10_20 
REMARK    8  A    between atoms: C10_20  and  C11_21 
REMARK    9  A    between atoms: C11_21  and  C12_22 
REMARK   10  A    between atoms: C12_22  and  N5_23 
REMARK   11  A    between atoms: C17_29  and  C18_30 
REMARK   12  A    between atoms: C18_30  and  O1_31 
ROOT
HETATM    1  N5  UNL     1      31.209   9.840  -1.393  1.00  0.00    -0.364 N 
HETATM    2  C13 UNL     1      30.347   9.314  -2.242  1.00  0.00     0.113 A 
HETATM    3  C14 UNL     1      29.029   9.660  -2.279  1.00  0.00     0.061 A 
HETATM    4  C15 UNL     1      28.119   9.059  -3.219  1.00  0.00     0.101 C 
HETATM    5  N6  UNL     1      27.374   8.564  -3.971  1.00  0.00    -0.191 NA
HETATM    6  C16 UNL     1      28.578  10.623  -1.374  1.00  0.00     0.041 A 
HETATM    7  C17 UNL     1      29.413  11.200  -0.481  1.00  0.00     0.032 A 
HETATM    8  C23 UNL     1      30.738  10.777  -0.521  1.00  0.00     0.106 A 
ENDROOT
BRANCH   1   9
HETATM    9  C12 UNL     1      32.629   9.600  -1.290  1.00  0.00     0.128 C 
BRANCH   9  10
HETATM   10  C11 UNL     1      32.983   8.192  -1.020  1.00  0.00     0.020 C 
BRANCH  10  11
HETATM   11  C10 UNL     1      33.893   8.015   0.138  1.00  0.00     0.002 C 
BRANCH  11  12
HETATM   12  C9  UNL     1      33.711   9.050   1.234  1.00  0.00     0.005 C 
BRANCH  12  13
HETATM   13  C8  UNL     1      33.168   8.364   2.451  1.00  0.00     0.044 C 
BRANCH  13  14
HETATM   14  C7  UNL     1      32.475   9.302   3.372  1.00  0.00     0.009 A 
HETATM   15  C4  UNL     1      33.163   9.878   4.401  1.00  0.00     0.036 A 
HETATM   16  N1  UNL     1      32.473  10.642   5.295  1.00  0.00    -0.195 N 
HETATM   17  C5  UNL     1      31.151  10.791   5.118  1.00  0.00     0.677 A 
ATOM     18  H1  UNL     1      32.950  11.089   6.078  1.00  0.00     0.184 HD
HETATM   19  N3  UNL     1      30.465  10.216   4.088  1.00  0.00    -0.177 N 
HETATM   20  C6  UNL     1      31.120   9.454   3.185  1.00  0.00     0.122 A 
ATOM     21  H3  UNL     1      29.460  10.361   4.000  1.00  0.00     0.185 HD
BRANCH  15  22
HETATM   22  C3  UNL     1      34.643   9.771   4.541  1.00  0.00     0.058 C 
BRANCH  22  23
HETATM   23  C2  UNL     1      35.330  11.020   4.046  1.00  0.00     0.002 C 
HETATM   24  C1  UNL     1      36.481  10.562   3.158  1.00  0.00     0.005 C 
ENDBRANCH  22  23
ENDBRANCH  15  22
BRANCH  17  25
HETATM   25  N2  UNL     1      30.501  11.533   5.983  1.00  0.00    -0.234 N 
ATOM     26  H22 UNL     1      31.028  12.065   6.675  1.00  0.00     0.174 HD
ATOM     27  H21 UNL     1      29.483  11.543   5.926  1.00  0.00     0.174 HD
ENDBRANCH  17  25
BRANCH  20  28
HETATM   28  N4  UNL     1      30.448   8.915   2.239  1.00  0.00    -0.385 N 
ATOM     29  H42 UNL     1      29.456   8.684   2.287  1.00  0.00     0.157 HD
ATOM     30  H41 UNL     1      30.923   8.710   1.360  1.00  0.00     0.157 HD
ENDBRANCH  20  28
ENDBRANCH  13  14
ENDBRANCH  12  13
ENDBRANCH  11  12
ENDBRANCH  10  11
ENDBRANCH   9  10
ENDBRANCH   1   9
BRANCH   7  31
HETATM   31  C18 UNL     1      29.104  12.263   0.441  1.00  0.00     0.149 C 
HETATM   32  N7  UNL     1      28.502  13.465   0.215  1.00  0.00    -0.361 N 
HETATM   33  C19 UNL     1      28.210  14.429   1.332  1.00  0.00     0.125 C 
HETATM   34  C22 UNL     1      28.088  14.177  -0.973  1.00  0.00     0.125 C 
HETATM   35  C20 UNL     1      28.708  15.719   0.765  1.00  0.00     0.021 C 
HETATM   36  C21 UNL     1      28.714  15.552  -0.700  1.00  0.00     0.021 C 
BRANCH  31  37
HETATM   37  O1  UNL     1      29.467  12.054   1.691  1.00  0.00    -0.346 OA
ATOM     38  H1  UNL     1      29.184  12.713   2.315  1.00  0.00     0.219 HD
ENDBRANCH  31  37
ENDBRANCH   7  31
TORSDOF 12
ENDMDL
MODEL 4
REMARK VINA RESULT: -9.005477350      1.024      1.179
REMARK  12 active torsions:
REMARK  status: ('A' for Active; 'I' for Inactive)
REMARK    1  A    between atoms: C2_2  and  C3_3 
REMARK    2  A    between atoms: C3_3  and  C4_4 
REMARK    3  A    between atoms: C5_7  and  N2_8 
REMARK    4  A    between atoms: C6_13  and  N4_14 
REMARK    5  A    between atoms: C7_17  and  C8_18 
REMARK    6  A    between atoms: C8_18  and  C9_19 
REMARK    7  A    between atoms: C9_19  and  C10_20 
REMARK    8  A    between atoms: C10_20  and  C11_21 
REMARK    9  A    between atoms: C11_21  and  C12_22 
REMARK   10  A    between atoms: C12_22  and  N5_23 
REMARK   11  A    between atoms: C17_29  and  C18_30 
REMARK   12  A    between atoms: C18_30  and  O1_31 
ROOT
HETATM    1  N5  UNL     1      33.881  11.835   6.729  1.00  0.00    -0.364 N 
HETATM    2  C13 UNL     1      32.805  12.052   5.998  1.00  0.00     0.113 A 
HETATM    3  C14 UNL     1      32.453  13.286   5.534  1.00  0.00     0.061 A 
HETATM    4  C15 UNL     1      31.267  13.481   4.741  1.00  0.00     0.101 C 
HETATM    5  N6  UNL     1      30.298  13.647   4.109  1.00  0.00    -0.191 NA
HETATM    6  C16 UNL     1      33.281  14.364   5.849  1.00  0.00     0.041 A 
HETATM    7  C17 UNL     1      34.399  14.206   6.592  1.00  0.00     0.032 A 
HETATM    8  C23 UNL     1      34.668  12.910   7.020  1.00  0.00     0.106 A 
ENDROOT
BRANCH   1   9
HETATM    9  C12 UNL     1      34.388  10.580   7.232  1.00  0.00     0.128 C 
BRANCH   9  10
HETATM   10  C11 UNL     1      34.862   9.659   6.179  1.00  0.00     0.020 C 
BRANCH  10  11
HETATM   11  C10 UNL     1      36.026  10.172   5.415  1.00  0.00     0.002 C 
BRANCH  11  12
HETATM   12  C9  UNL     1      36.637   9.162   4.461  1.00  0.00     0.005 C 
BRANCH  12  13
HETATM   13  C8  UNL     1      36.160   9.469   3.074  1.00  0.00     0.044 C 
BRANCH  13  14
HETATM   14  C7  UNL     1      35.491   8.308   2.431  1.00  0.00     0.009 A 
HETATM   15  C4  UNL     1      34.130   8.221   2.433  1.00  0.00     0.036 A 
HETATM   16  N1  UNL     1      33.551   7.090   1.939  1.00  0.00    -0.195 N 
HETATM   17  C5  UNL     1      34.351   6.117   1.474  1.00  0.00     0.677 A 
ATOM     18  H1  UNL     1      32.536   6.985   1.923  1.00  0.00     0.184 HD
HETATM   19  N3  UNL     1      35.712   6.205   1.472  1.00  0.00    -0.177 N 
HETATM   20  C6  UNL     1      36.315   7.314   1.954  1.00  0.00     0.122 A 
ATOM     21  H3  UNL     1      36.274   5.436   1.107  1.00  0.00     0.185 HD
BRANCH  15  22
HETATM   22  C3  UNL     1      33.251   9.339   2.878  1.00  0.00     0.058 C 
BRANCH  22  23
HETATM   23  C2  UNL     1      31.794   9.011   2.653  1.00  0.00     0.002 C 
HETATM   24  C1  UNL     1      31.007   9.777   3.709  1.00  0.00     0.005 C 
ENDBRANCH  22  23
ENDBRANCH  15  22
BRANCH  17  25
HETATM   25  N2  UNL     1      33.781   5.036   0.997  1.00  0.00    -0.234 N 
ATOM     26  H22 UNL     1      32.913   5.124   0.468  1.00  0.00     0.174 HD
ATOM     27  H21 UNL     1      34.234   4.141   1.181  1.00  0.00     0.174 HD
ENDBRANCH  17  25
BRANCH  20  28
HETATM   28  N4  UNL     1      37.594   7.362   1.953  1.00  0.00    -0.385 N 
ATOM     29  H42 UNL     1      38.171   7.537   2.775  1.00  0.00     0.157 HD
ATOM     30  H41 UNL     1      38.087   7.203   1.074  1.00  0.00     0.157 HD
ENDBRANCH  20  28
ENDBRANCH  13  14
ENDBRANCH  12  13
ENDBRANCH  11  12
ENDBRANCH  10  11
ENDBRANCH   9  10
ENDBRANCH   1   9
BRANCH   7  31
HETATM   31  C18 UNL     1      35.383  15.208   6.912  1.00  0.00     0.149 C 
HETATM   32  N7  UNL     1      35.226  16.425   7.505  1.00  0.00    -0.361 N 
HETATM   33  C19 UNL     1      36.399  17.316   7.812  1.00  0.00     0.125 C 
HETATM   34  C22 UNL     1      34.081  17.215   7.896  1.00  0.00     0.125 C 
HETATM   35  C20 UNL     1      35.926  18.638   7.300  1.00  0.00     0.021 C 
HETATM   36  C21 UNL     1      34.453  18.567   7.269  1.00  0.00     0.021 C 
BRANCH  31  37
HETATM   37  O1  UNL     1      36.622  14.916   6.571  1.00  0.00    -0.346 OA
ATOM     38  H1  UNL     1      37.288  15.508   6.902  1.00  0.00     0.219 HD
ENDBRANCH  31  37
ENDBRANCH   7  31
TORSDOF 12
ENDMDL
MODEL 5
REMARK VINA RESULT: -8.985470494      3.587      8.243
REMARK  12 active torsions:
REMARK  status: ('A' for Active; 'I' for Inactive)
REMARK    1  A    between atoms: C2_2  and  C3_3 
REMARK    2  A    between atoms: C3_3  and  C4_4 
REMARK    3  A    between atoms: C5_7  and  N2_8 
REMARK    4  A    between atoms: C6_13  and  N4_14 
REMARK    5  A    between atoms: C7_17  and  C8_18 
REMARK    6  A    between atoms: C8_18  and  C9_19 
REMARK    7  A    between atoms: C9_19  and  C10_20 
REMARK    8  A    between atoms: C10_20  and  C11_21 
REMARK    9  A    between atoms: C11_21  and  C12_22 
REMARK   10  A    between atoms: C12_22  and  N5_23 
REMARK   11  A    between atoms: C17_29  and  C18_30 
REMARK   12  A    between atoms: C18_30  and  O1_31 
ROOT
HETATM    1  N5  UNL     1      30.252  11.359   0.245  1.00  0.00    -0.364 N 
HETATM    2  C13 UNL     1      29.518  10.802  -0.698  1.00  0.00     0.113 A 
HETATM    3  C14 UNL     1      30.002   9.874  -1.573  1.00  0.00     0.061 A 
HETATM    4  C15 UNL     1      29.167   9.293  -2.591  1.00  0.00     0.101 C 
HETATM    5  N6  UNL     1      28.497   8.828  -3.429  1.00  0.00    -0.191 NA
HETATM    6  C16 UNL     1      31.341   9.498  -1.453  1.00  0.00     0.041 A 
HETATM    7  C17 UNL     1      32.144  10.031  -0.506  1.00  0.00     0.032 A 
HETATM    8  C23 UNL     1      31.556  10.971   0.336  1.00  0.00     0.106 A 
ENDROOT
BRANCH   1   9
HETATM    9  C12 UNL     1      29.847  12.304   1.259  1.00  0.00     0.128 C 
BRANCH   9  10
HETATM   10  C11 UNL     1      30.956  12.790   2.104  1.00  0.00     0.020 C 
BRANCH  10  11
HETATM   11  C10 UNL     1      30.544  13.804   3.106  1.00  0.00     0.002 C 
BRANCH  11  12
HETATM   12  C9  UNL     1      31.646  14.208   4.070  1.00  0.00     0.005 C 
BRANCH  12  13
HETATM   13  C8  UNL     1      31.343  13.617   5.414  1.00  0.00     0.044 C 
BRANCH  13  14
HETATM   14  C7  UNL     1      32.390  12.665   5.867  1.00  0.00     0.009 A 
HETATM   15  C4  UNL     1      32.156  11.322   5.817  1.00  0.00     0.036 A 
HETATM   16  N1  UNL     1      33.089  10.481   6.346  1.00  0.00    -0.195 N 
HETATM   17  C5  UNL     1      34.194  11.018   6.890  1.00  0.00     0.677 A 
ATOM     18  H1  UNL     1      32.952   9.470   6.330  1.00  0.00     0.184 HD
HETATM   19  N3  UNL     1      34.426  12.361   6.938  1.00  0.00    -0.177 N 
HETATM   20  C6  UNL     1      33.522  13.220   6.422  1.00  0.00     0.122 A 
ATOM     21  H3  UNL     1      35.283  12.716   7.364  1.00  0.00     0.185 HD
BRANCH  15  22
HETATM   22  C3  UNL     1      30.965  10.736   5.140  1.00  0.00     0.058 C 
BRANCH  22  23
HETATM   23  C2  UNL     1      31.372   9.877   3.967  1.00  0.00     0.002 C 
HETATM   24  C1  UNL     1      30.083   9.416   3.296  1.00  0.00     0.005 C 
ENDBRANCH  22  23
ENDBRANCH  15  22
BRANCH  17  25
HETATM   25  N2  UNL     1      35.086  10.196   7.391  1.00  0.00    -0.234 N 
ATOM     26  H22 UNL     1      34.876   9.706   8.260  1.00  0.00     0.174 HD
ATOM     27  H21 UNL     1      35.964  10.085   6.884  1.00  0.00     0.174 HD
ENDBRANCH  17  25
BRANCH  20  28
HETATM   28  N4  UNL     1      33.760  14.475   6.495  1.00  0.00    -0.385 N 
ATOM     29  H42 UNL     1      33.293  15.121   7.131  1.00  0.00     0.157 HD
ATOM     30  H41 UNL     1      34.478  14.870   5.887  1.00  0.00     0.157 HD
ENDBRANCH  20  28
ENDBRANCH  13  14
ENDBRANCH  12  13
ENDBRANCH  11  12
ENDBRANCH  10  11
ENDBRANCH   9  10
ENDBRANCH   1   9
BRANCH   7  31
HETATM   31  C18 UNL     1      33.508   9.670  -0.214  1.00  0.00     0.149 C 
HETATM   32  N7  UNL     1      34.000   8.791   0.704  1.00  0.00    -0.361 N 
HETATM   33  C19 UNL     1      35.471   8.503   0.819  1.00  0.00     0.125 C 
HETATM   34  C22 UNL     1      33.412   8.025   1.780  1.00  0.00     0.125 C 
HETATM   35  C20 UNL     1      35.691   8.598   2.294  1.00  0.00     0.021 C 
HETATM   36  C21 UNL     1      34.375   8.376   2.923  1.00  0.00     0.021 C 
BRANCH  31  37
HETATM   37  O1  UNL     1      34.425  10.289  -0.932  1.00  0.00    -0.346 OA
ATOM     38  H1  UNL     1      34.215  10.404  -1.851  1.00  0.00     0.219 HD
ENDBRANCH  31  37
ENDBRANCH   7  31
TORSDOF 12
ENDMDL
