MODEL 1
REMARK VINA RESULT: -8.405508849      0.000      0.000
REMARK  13 active torsions:
REMARK  status: ('A' for Active; 'I' for Inactive)
REMARK    1  A    between atoms: C2_2  and  N1_5 
REMARK       I    between atoms: N1_5  and  C5_7 
REMARK    2  A    between atoms: C5_7  and  C6_9 
REMARK    3  A    between atoms: N2_15  and  C12_16 
REMARK    4  A    between atoms: C12_16  and  O2_17 
REMARK    5  A    between atoms: C12_16  and  C13_19 
REMARK    6  A    between atoms: C13_19  and  N3_22 
REMARK    7  A    between atoms: N3_22  and  C16_24 
REMARK    8  A    between atoms: C16_24  and  C17_25 
REMARK    9  A    between atoms: C17_25  and  N4_26 
REMARK   10  A    between atoms: C17_25  and  C18_30 
REMARK   11  A    between atoms: C18_30  and  C19_31 
REMARK   12  A    between atoms: C19_31  and  C20_32 
REMARK   13  A    between atoms: C20_32  and  N5_33 
REMARK       I    between atoms: N5_33  and  C21_35 
ROOT
HETATM    1  C13 UNL     1      33.026   9.232   0.242  1.00  0.00     0.084 C 
HETATM    2  C14 UNL     1      33.692  10.566   0.618  1.00  0.00     0.046 C 
HETATM    3  C15 UNL     1      32.322   9.359  -1.083  1.00  0.00     0.046 C 
ENDROOT
BRANCH   1   4
HETATM    4  C12 UNL     1      34.056   8.194   0.271  1.00  0.00     0.142 C 
BRANCH   4   5
HETATM    5  N2  UNL     1      34.953   7.845   1.315  1.00  0.00    -0.350 N 
HETATM    6  C6  UNL     1      34.364   7.010   2.366  1.00  0.00     0.178 C 
HETATM    7  C7  UNL     1      34.811   7.306   3.742  1.00  0.00     0.035 C 
HETATM    8  C8  UNL     1      35.346   8.669   4.006  1.00  0.00     0.002 C 
HETATM    9  C9  UNL     1      36.785   8.831   3.571  1.00  0.00     0.002 C 
HETATM   10  C10 UNL     1      37.123   7.915   2.418  1.00  0.00     0.020 C 
HETATM   11  C11 UNL     1      36.309   8.303   1.180  1.00  0.00     0.125 C 
BRANCH   6  12
HETATM   12  C5  UNL     1      34.494   5.567   2.064  1.00  0.00     0.241 C 
HETATM   13  N1  UNL     1      33.579   4.896   1.227  1.00  0.00    -0.351 N 
ATOM     14  H1  UNL     1      32.812   5.437   0.827  1.00  0.00     0.163 HD
HETATM   15  O1  UNL     1      35.442   4.933   2.570  1.00  0.00    -0.271 OA
BRANCH  13  16
HETATM   16  C2  UNL     1      33.658   3.495   0.900  1.00  0.00     0.022 C 
HETATM   17  C1  UNL     1      34.589   3.214  -0.243  1.00  0.00     0.037 C 
HETATM   18  C3  UNL     1      34.116   2.672   2.095  1.00  0.00     0.037 C 
HETATM   19  C4  UNL     1      32.277   3.024   0.497  1.00  0.00     0.037 C 
ENDBRANCH  13  16
ENDBRANCH   6  12
ENDBRANCH   4   5
BRANCH   4  20
HETATM   20  O2  UNL     1      34.180   7.475  -0.813  1.00  0.00    -0.348 OA
ATOM     21  H2  UNL     1      34.214   6.538  -0.662  1.00  0.00     0.219 HD
ENDBRANCH   4  20
ENDBRANCH   1   4
BRANCH   1  22
HETATM   22  N3  UNL     1      32.041   9.023   1.281  1.00  0.00    -0.405 N 
ATOM     23  H3  UNL     1      31.356   8.269   1.205  1.00  0.00     0.154 HD
BRANCH  22  24
HETATM   24  C16 UNL     1      32.045   9.875   2.396  1.00  0.00     0.147 C 
BRANCH  24  25
HETATM   25  C17 UNL     1      30.896   9.559   3.372  1.00  0.00     0.200 C 
BRANCH  25  26
HETATM   26  N4  UNL     1      29.605   9.699   2.792  1.00  0.00    -0.073 N 
ATOM     27  H43 UNL     1      29.645   9.554   1.783  1.00  0.00     0.274 HD
ATOM     28  H42 UNL     1      29.005   8.917   3.052  1.00  0.00     0.274 HD
ATOM     29  H41 UNL     1      29.155  10.587   3.012  1.00  0.00     0.274 HD
ENDBRANCH  25  26
BRANCH  25  30
HETATM   30  C18 UNL     1      31.035  10.408   4.600  1.00  0.00     0.036 C 
BRANCH  30  31
HETATM   31  C19 UNL     1      32.364  10.402   5.238  1.00  0.00     0.022 C 
BRANCH  31  32
HETATM   32  C20 UNL     1      32.927  11.721   5.631  1.00  0.00     0.122 C 
BRANCH  32  33
HETATM   33  N5  UNL     1      33.471  11.590   7.000  1.00  0.00    -0.365 N 
HETATM   34  C21 UNL     1      34.863  11.378   7.209  1.00  0.00     0.181 C 
HETATM   35  N6  UNL     1      35.316  10.960   8.352  1.00  0.00    -0.374 N 
HETATM   36  N7  UNL     1      35.813  11.612   6.184  1.00  0.00    -0.064 NA
ATOM     37  H62 UNL     1      34.632  10.792   9.090  1.00  0.00     0.158 HD
ATOM     38  H61 UNL     1      36.313  10.809   8.502  1.00  0.00     0.158 HD
ATOM     39  H5  UNL     1      32.843  11.652   7.801  1.00  0.00     0.162 HD
ENDBRANCH  32  33
ENDBRANCH  31  32
ENDBRANCH  30  31
ENDBRANCH  25  30
ENDBRANCH  24  25
ENDBRANCH  22  24
ENDBRANCH   1  22
TORSDOF 13
ENDMDL
MODEL 2
REMARK VINA RESULT: -8.272096423      3.042      6.837
REMARK  13 active torsions:
REMARK  status: ('A' for Active; 'I' for Inactive)
REMARK    1  A    between atoms: C2_2  and  N1_5 
REMARK       I    between atoms: N1_5  and  C5_7 
REMARK    2  A    between atoms: C5_7  and  C6_9 
REMARK    3  A    between atoms: N2_15  and  C12_16 
REMARK    4  A    between atoms: C12_16  and  O2_17 
REMARK    5  A    between atoms: C12_16  and  C13_19 
REMARK    6  A    between atoms: C13_19  and  N3_22 
REMARK    7  A    between atoms: N3_22  and  C16_24 
REMARK    8  A    between atoms: C16_24  and  C17_25 
REMARK    9  A    between atoms: C17_25  and  N4_26 
REMARK   10  A    between atoms: C17_25  and  C18_30 
REMARK   11  A    between atoms: C18_30  and  C19_31 
REMARK   12  A    between atoms: C19_31  and  C20_32 
REMARK   13  A    between atoms: C20_32  and  N5_33 
REMARK       I    between atoms: N5_33  and  C21_35 
ROOT
HETATM    1  C13 UNL     1      33.388   9.501  -0.370  1.00  0.00     0.084 C 
HETATM    2  C14 UNL     1      34.019   8.103  -0.267  1.00  0.00     0.046 C 
HETATM    3  C15 UNL     1      33.540  10.037  -1.769  1.00  0.00     0.046 C 
ENDROOT
BRANCH   1   4
HETATM    4  C12 UNL     1      31.999   9.399   0.080  1.00  0.00     0.142 C 
BRANCH   4   5
HETATM    5  N2  UNL     1      31.383   9.958   1.231  1.00  0.00    -0.350 N 
HETATM    6  C6  UNL     1      30.912  11.335   1.057  1.00  0.00     0.178 C 
HETATM    7  C7  UNL     1      31.084  12.221   2.225  1.00  0.00     0.035 C 
HETATM    8  C8  UNL     1      32.134  11.852   3.212  1.00  0.00     0.002 C 
HETATM    9  C9  UNL     1      31.687  10.775   4.173  1.00  0.00     0.002 C 
HETATM   10  C10 UNL     1      30.648   9.872   3.551  1.00  0.00     0.020 C 
HETATM   11  C11 UNL     1      31.257   9.098   2.377  1.00  0.00     0.125 C 
BRANCH   6  12
HETATM   12  C5  UNL     1      29.521  11.384   0.553  1.00  0.00     0.241 C 
HETATM   13  N1  UNL     1      29.207  11.111  -0.795  1.00  0.00    -0.351 N 
ATOM     14  H1  UNL     1      29.973  10.874  -1.426  1.00  0.00     0.163 HD
HETATM   15  O1  UNL     1      28.606  11.678   1.349  1.00  0.00    -0.271 OA
BRANCH  13  16
HETATM   16  C2  UNL     1      27.873  11.145  -1.338  1.00  0.00     0.022 C 
HETATM   17  C1  UNL     1      26.934  10.207  -0.636  1.00  0.00     0.037 C 
HETATM   18  C3  UNL     1      27.281  12.545  -1.268  1.00  0.00     0.037 C 
HETATM   19  C4  UNL     1      27.943  10.727  -2.791  1.00  0.00     0.037 C 
ENDBRANCH  13  16
ENDBRANCH   6  12
ENDBRANCH   4   5
BRANCH   4  20
HETATM   20  O2  UNL     1      31.199   8.695  -0.675  1.00  0.00    -0.348 OA
ATOM     21  H2  UNL     1      30.585   9.211  -1.186  1.00  0.00     0.219 HD
ENDBRANCH   4  20
ENDBRANCH   1   4
BRANCH   1  22
HETATM   22  N3  UNL     1      34.174  10.312   0.534  1.00  0.00    -0.405 N 
ATOM     23  H3  UNL     1      33.952  11.298   0.675  1.00  0.00     0.154 HD
BRANCH  22  24
HETATM   24  C16 UNL     1      35.247   9.717   1.214  1.00  0.00     0.147 C 
BRANCH  24  25
HETATM   25  C17 UNL     1      35.244  10.059   2.716  1.00  0.00     0.200 C 
BRANCH  25  26
HETATM   26  N4  UNL     1      36.455  10.656   3.164  1.00  0.00    -0.073 N 
ATOM     27  H43 UNL     1      37.121  10.742   2.395  1.00  0.00     0.274 HD
ATOM     28  H42 UNL     1      36.314  11.643   3.377  1.00  0.00     0.274 HD
ATOM     29  H41 UNL     1      36.878  10.173   3.956  1.00  0.00     0.274 HD
ENDBRANCH  25  26
BRANCH  25  30
HETATM   30  C18 UNL     1      34.919   8.829   3.509  1.00  0.00     0.036 C 
BRANCH  30  31
HETATM   31  C19 UNL     1      35.616   7.597   3.098  1.00  0.00     0.022 C 
BRANCH  31  32
HETATM   32  C20 UNL     1      34.766   6.421   2.774  1.00  0.00     0.122 C 
BRANCH  32  33
HETATM   33  N5  UNL     1      35.623   5.413   2.112  1.00  0.00    -0.365 N 
HETATM   34  C21 UNL     1      35.368   4.022   2.281  1.00  0.00     0.181 C 
HETATM   35  N6  UNL     1      36.263   3.132   1.975  1.00  0.00    -0.374 N 
HETATM   36  N7  UNL     1      34.132   3.549   2.788  1.00  0.00    -0.064 NA
ATOM     37  H62 UNL     1      37.152   3.473   1.609  1.00  0.00     0.158 HD
ATOM     38  H61 UNL     1      36.080   2.136   2.096  1.00  0.00     0.158 HD
ATOM     39  H5  UNL     1      36.403   5.717   1.530  1.00  0.00     0.162 HD
ENDBRANCH  32  33
ENDBRANCH  31  32
ENDBRANCH  30  31
ENDBRANCH  25  30
ENDBRANCH  24  25
ENDBRANCH  22  24
ENDBRANCH   1  22
TORSDOF 13
ENDMDL
MODEL 3
REMARK VINA RESULT: -8.232528071      2.627      5.831
REMARK  13 active torsions:
REMARK  status: ('A' for Active; 'I' for Inactive)
REMARK    1  A    between atoms: C2_2  and  N1_5 
REMARK       I    between atoms: N1_5  and  C5_7 
REMARK    2  A    between atoms: C5_7  and  C6_9 
REMARK    3  A    between atoms: N2_15  and  C12_16 
REMARK    4  A    between atoms: C12_16  and  O2_17 
REMARK    5  A    between atoms: C12_16  and  C13_19 
REMARK    6  A    between atoms: C13_19  and  N3_22 
REMARK    7  A    between atoms: N3_22  and  C16_24 
REMARK    8  A    between atoms: C16_24  and  C17_25 
REMARK    9  A    between atoms: C17_25  and  N4_26 
REMARK   10  A    between atoms: C17_25  and  C18_30 
REMARK   11  A    between atoms: C18_30  and  C19_31 
REMARK   12  A    between atoms: C19_31  and  C20_32 
REMARK   13  A    between atoms: C20_32  and  N5_33 
REMARK       I    between atoms: N5_33  and  C21_35 
ROOT
HETATM    1  C13 UNL     1      33.814   9.670   0.482  1.00  0.00     0.084 C 
HETATM    2  C14 UNL     1      33.930  10.100  -0.990  1.00  0.00     0.046 C 
HETATM    3  C15 UNL     1      34.447  10.703   1.375  1.00  0.00     0.046 C 
ENDROOT
BRANCH   1   4
HETATM    4  C12 UNL     1      32.400   9.424   0.766  1.00  0.00     0.142 C 
BRANCH   4   5
HETATM    5  N2  UNL     1      31.571   9.994   1.767  1.00  0.00    -0.350 N 
HETATM    6  C6  UNL     1      31.033  11.315   1.429  1.00  0.00     0.178 C 
HETATM    7  C7  UNL     1      30.954  12.277   2.546  1.00  0.00     0.035 C 
HETATM    8  C8  UNL     1      31.859  12.053   3.705  1.00  0.00     0.002 C 
HETATM    9  C9  UNL     1      31.345  10.998   4.658  1.00  0.00     0.002 C 
HETATM   10  C10 UNL     1      30.487   9.979   3.948  1.00  0.00     0.020 C 
HETATM   11  C11 UNL     1      31.328   9.193   2.937  1.00  0.00     0.125 C 
BRANCH   6  12
HETATM   12  C5  UNL     1      29.740  11.220   0.715  1.00  0.00     0.241 C 
HETATM   13  N1  UNL     1      29.658  10.784  -0.624  1.00  0.00    -0.351 N 
ATOM     14  H1  UNL     1      30.525  10.530  -1.097  1.00  0.00     0.163 HD
HETATM   15  O1  UNL     1      28.698  11.539   1.322  1.00  0.00    -0.271 OA
BRANCH  13  16
HETATM   16  C2  UNL     1      28.428  10.673  -1.365  1.00  0.00     0.022 C 
HETATM   17  C1  UNL     1      27.375   9.892  -0.633  1.00  0.00     0.037 C 
HETATM   18  C3  UNL     1      27.855  12.043  -1.696  1.00  0.00     0.037 C 
HETATM   19  C4  UNL     1      28.720   9.950  -2.662  1.00  0.00     0.037 C 
ENDBRANCH  13  16
ENDBRANCH   6  12
ENDBRANCH   4   5
BRANCH   4  20
HETATM   20  O2  UNL     1      31.801   8.556  -0.005  1.00  0.00    -0.348 OA
ATOM     21  H2  UNL     1      32.257   8.370  -0.817  1.00  0.00     0.219 HD
ENDBRANCH   4  20
ENDBRANCH   1   4
BRANCH   1  22
HETATM   22  N3  UNL     1      34.584   8.447   0.555  1.00  0.00    -0.405 N 
ATOM     23  H3  UNL     1      34.201   7.569   0.200  1.00  0.00     0.154 HD
BRANCH  22  24
HETATM   24  C16 UNL     1      35.866   8.489   1.123  1.00  0.00     0.147 C 
BRANCH  24  25
HETATM   25  C17 UNL     1      36.080   7.368   2.156  1.00  0.00     0.200 C 
BRANCH  25  26
HETATM   26  N4  UNL     1      35.937   6.061   1.612  1.00  0.00    -0.073 N 
ATOM     27  H43 UNL     1      36.220   6.045   0.632  1.00  0.00     0.274 HD
ATOM     28  H42 UNL     1      36.637   5.429   2.001  1.00  0.00     0.274 HD
ATOM     29  H41 UNL     1      35.001   5.674   1.725  1.00  0.00     0.274 HD
ENDBRANCH  25  26
BRANCH  25  30
HETATM   30  C18 UNL     1      35.158   7.576   3.320  1.00  0.00     0.036 C 
BRANCH  30  31
HETATM   31  C19 UNL     1      35.577   8.597   4.297  1.00  0.00     0.022 C 
BRANCH  31  32
HETATM   32  C20 UNL     1      34.503   9.430   4.900  1.00  0.00     0.122 C 
BRANCH  32  33
HETATM   33  N5  UNL     1      34.728   9.468   6.361  1.00  0.00    -0.365 N 
HETATM   34  C21 UNL     1      34.777  10.711   7.054  1.00  0.00     0.181 C 
HETATM   35  N6  UNL     1      35.268  10.793   8.254  1.00  0.00    -0.374 N 
HETATM   36  N7  UNL     1      34.293  11.908   6.470  1.00  0.00    -0.064 NA
ATOM     37  H62 UNL     1      35.616   9.932   8.675  1.00  0.00     0.158 HD
ATOM     38  H61 UNL     1      35.303  11.683   8.750  1.00  0.00     0.158 HD
ATOM     39  H5  UNL     1      34.849   8.597   6.876  1.00  0.00     0.162 HD
ENDBRANCH  32  33
ENDBRANCH  31  32
ENDBRANCH  30  31
ENDBRANCH  25  30
ENDBRANCH  24  25
ENDBRANCH  22  24
ENDBRANCH   1  22
TORSDOF 13
ENDMDL
MODEL 4
REMARK VINA RESULT: -8.212368750      2.784      8.176
REMARK  13 active torsions:
REMARK  status: ('A' for Active; 'I' for Inactive)
REMARK    1  A    between atoms: C2_2  and  N1_5 
REMARK       I    between atoms: N1_5  and  C5_7 
REMARK    2  A    between atoms: C5_7  and  C6_9 
REMARK    3  A    between atoms: N2_15  and  C12_16 
REMARK    4  A    between atoms: C12_16  and  O2_17 
REMARK    5  A    between atoms: C12_16  and  C13_19 
REMARK    6  A    between atoms: C13_19  and  N3_22 
REMARK    7  A    between atoms: N3_22  and  C16_24 
REMARK    8  A    between atoms: C16_24  and  C17_25 
REMARK    9  A    between atoms: C17_25  and  N4_26 
REMARK   10  A    between atoms: C17_25  and  C18_30 
REMARK   11  A    between atoms: C18_30  and  C19_31 
REMARK   12  A    between atoms: C19_31  and  C20_32 
REMARK   13  A    between atoms: C20_32  and  N5_33 
REMARK       I    between atoms: N5_33  and  C21_35 
ROOT
HETATM    1  C13 UNL     1      34.253   7.674   1.317  1.00  0.00     0.084 C 
HETATM    2  C14 UNL     1      33.603   8.061  -0.022  1.00  0.00     0.046 C 
HETATM    3  C15 UNL     1      35.751   7.783   1.217  1.00  0.00     0.046 C 
ENDROOT
BRANCH   1   4
HETATM    4  C12 UNL     1      33.663   8.513   2.360  1.00  0.00     0.142 C 
BRANCH   4   5
HETATM    5  N2  UNL     1      34.304   9.308   3.346  1.00  0.00    -0.350 N 
HETATM    6  C6  UNL     1      34.426  10.726   2.995  1.00  0.00     0.178 C 
HETATM    7  C7  UNL     1      35.684  11.380   3.407  1.00  0.00     0.035 C 
HETATM    8  C8  UNL     1      36.866  10.505   3.629  1.00  0.00     0.002 C 
HETATM    9  C9  UNL     1      36.850   9.825   4.980  1.00  0.00     0.002 C 
HETATM   10  C10 UNL     1      35.440   9.614   5.478  1.00  0.00     0.020 C 
HETATM   11  C11 UNL     1      34.695   8.642   4.558  1.00  0.00     0.125 C 
BRANCH   6  12
HETATM   12  C5  UNL     1      33.250  11.509   3.437  1.00  0.00     0.241 C 
HETATM   13  N1  UNL     1      33.274  12.288   4.613  1.00  0.00    -0.351 N 
ATOM     14  H1  UNL     1      34.135  12.301   5.160  1.00  0.00     0.163 HD
HETATM   15  O1  UNL     1      32.212  11.472   2.747  1.00  0.00    -0.271 OA
BRANCH  13  16
HETATM   16  C2  UNL     1      32.160  13.067   5.090  1.00  0.00     0.022 C 
HETATM   17  C1  UNL     1      31.578  13.959   4.032  1.00  0.00     0.037 C 
HETATM   18  C3  UNL     1      31.048  12.176   5.622  1.00  0.00     0.037 C 
HETATM   19  C4  UNL     1      32.649  13.949   6.220  1.00  0.00     0.037 C 
ENDBRANCH  13  16
ENDBRANCH   6  12
ENDBRANCH   4   5
BRANCH   4  20
HETATM   20  O2  UNL     1      32.357   8.545   2.403  1.00  0.00    -0.348 OA
ATOM     21  H2  UNL     1      31.973   9.360   2.100  1.00  0.00     0.219 HD
ENDBRANCH   4  20
ENDBRANCH   1   4
BRANCH   1  22
HETATM   22  N3  UNL     1      33.892   6.284   1.497  1.00  0.00    -0.405 N 
ATOM     23  H3  UNL     1      33.040   5.909   1.077  1.00  0.00     0.154 HD
BRANCH  22  24
HETATM   24  C16 UNL     1      34.735   5.461   2.259  1.00  0.00     0.147 C 
BRANCH  24  25
HETATM   25  C17 UNL     1      34.611   3.978   1.863  1.00  0.00     0.200 C 
BRANCH  25  26
HETATM   26  N4  UNL     1      35.859   3.297   1.820  1.00  0.00    -0.073 N 
ATOM     27  H43 UNL     1      36.612   3.901   2.151  1.00  0.00     0.274 HD
ATOM     28  H42 UNL     1      35.900   2.570   2.534  1.00  0.00     0.274 HD
ATOM     29  H41 UNL     1      36.081   2.913   0.901  1.00  0.00     0.274 HD
ENDBRANCH  25  26
BRANCH  25  30
HETATM   30  C18 UNL     1      33.886   3.867   0.556  1.00  0.00     0.036 C 
BRANCH  30  31
HETATM   31  C19 UNL     1      33.202   2.585   0.308  1.00  0.00     0.022 C 
BRANCH  31  32
HETATM   32  C20 UNL     1      31.761   2.511   0.670  1.00  0.00     0.122 C 
BRANCH  32  33
HETATM   33  N5  UNL     1      30.993   2.295  -0.575  1.00  0.00    -0.365 N 
HETATM   34  C21 UNL     1      30.071   1.215  -0.678  1.00  0.00     0.181 C 
HETATM   35  N6  UNL     1      29.621   0.822  -1.831  1.00  0.00    -0.374 N 
HETATM   36  N7  UNL     1      29.602   0.525   0.468  1.00  0.00    -0.064 NA
ATOM     37  H62 UNL     1      29.958   1.319  -2.656  1.00  0.00     0.158 HD
ATOM     38  H61 UNL     1      28.960   0.049  -1.905  1.00  0.00     0.158 HD
ATOM     39  H5  UNL     1      31.126   2.924  -1.366  1.00  0.00     0.162 HD
ENDBRANCH  32  33
ENDBRANCH  31  32
ENDBRANCH  30  31
ENDBRANCH  25  30
ENDBRANCH  24  25
ENDBRANCH  22  24
ENDBRANCH   1  22
TORSDOF 13
ENDMDL
MODEL 5
REMARK VINA RESULT: -8.170570727      3.216      7.855
REMARK  13 active torsions:
REMARK  status: ('A' for Active; 'I' for Inactive)
REMARK    1  A    between atoms: C2_2  and  N1_5 
REMARK       I    between atoms: N1_5  and  C5_7 
REMARK    2  A    between atoms: C5_7  and  C6_9 
REMARK    3  A    between atoms: N2_15  and  C12_16 
REMARK    4  A    between atoms: C12_16  and  O2_17 
REMARK    5  A    between atoms: C12_16  and  C13_19 
REMARK    6  A    between atoms: C13_19  and  N3_22 
REMARK    7  A    between atoms: N3_22  and  C16_24 
REMARK    8  A    between atoms: C16_24  and  C17_25 
REMARK    9  A    between atoms: C17_25  and  N4_26 
REMARK   10  A    between atoms: C17_25  and  C18_30 
REMARK   11  A    between atoms: C18_30  and  C19_31 
REMARK   12  A    between atoms: C19_31  and  C20_32 
REMARK   13  A    between atoms: C20_32  and  N5_33 
REMARK       I    between atoms: N5_33  and  C21_35 
ROOT
HETATM    1  C13 UNL     1      31.844  11.283   4.093  1.00  0.00     0.084 C 
HETATM    2  C14 UNL     1      30.810  10.146   4.144  1.00  0.00     0.046 C 
HETATM    3  C15 UNL     1      31.147  12.615   4.037  1.00  0.00     0.046 C 
ENDROOT
BRANCH   1   4
HETATM    4  C12 UNL     1      32.738  11.127   5.241  1.00  0.00     0.142 C 
BRANCH   4   5
HETATM    5  N2  UNL     1      34.154  11.032   5.274  1.00  0.00    -0.350 N 
HETATM    6  C6  UNL     1      34.851  12.299   5.027  1.00  0.00     0.178 C 
HETATM    7  C7  UNL     1      36.086  12.202   4.225  1.00  0.00     0.035 C 
HETATM    8  C8  UNL     1      36.227  11.022   3.329  1.00  0.00     0.002 C 
HETATM    9  C9  UNL     1      36.679   9.779   4.061  1.00  0.00     0.002 C 
HETATM   10  C10 UNL     1      36.237   9.793   5.505  1.00  0.00     0.020 C 
HETATM   11  C11 UNL     1      34.708   9.744   5.590  1.00  0.00     0.125 C 
BRANCH   6  12
HETATM   12  C5  UNL     1      35.087  13.053   6.279  1.00  0.00     0.241 C 
HETATM   13  N1  UNL     1      35.849  14.240   6.300  1.00  0.00    -0.351 N 
ATOM     14  H1  UNL     1      36.238  14.574   5.418  1.00  0.00     0.163 HD
HETATM   15  O1  UNL     1      34.598  12.618   7.340  1.00  0.00    -0.271 OA
BRANCH  13  16
HETATM   16  C2  UNL     1      36.110  15.012   7.488  1.00  0.00     0.022 C 
HETATM   17  C1  UNL     1      34.886  15.703   8.016  1.00  0.00     0.037 C 
HETATM   18  C3  UNL     1      36.679  14.143   8.600  1.00  0.00     0.037 C 
HETATM   19  C4  UNL     1      37.129  16.078   7.145  1.00  0.00     0.037 C 
ENDBRANCH  13  16
ENDBRANCH   6  12
ENDBRANCH   4   5
BRANCH   4  20
HETATM   20  O2  UNL     1      32.164  11.062   6.413  1.00  0.00    -0.348 OA
ATOM     21  H2  UNL     1      31.296  10.674   6.405  1.00  0.00     0.219 HD
ENDBRANCH   4  20
ENDBRANCH   1   4
BRANCH   1  22
HETATM   22  N3  UNL     1      32.549  11.065   2.848  1.00  0.00    -0.405 N 
ATOM     23  H3  UNL     1      33.486  11.443   2.708  1.00  0.00     0.154 HD
BRANCH  22  24
HETATM   24  C16 UNL     1      31.918  10.325   1.836  1.00  0.00     0.147 C 
BRANCH  24  25
HETATM   25  C17 UNL     1      32.872   9.312   1.177  1.00  0.00     0.200 C 
BRANCH  25  26
HETATM   26  N4  UNL     1      32.264   8.554   0.138  1.00  0.00    -0.073 N 
ATOM     27  H43 UNL     1      32.179   7.574   0.409  1.00  0.00     0.274 HD
ATOM     28  H42 UNL     1      31.276   8.791   0.048  1.00  0.00     0.274 HD
ATOM     29  H41 UNL     1      32.739   8.641  -0.760  1.00  0.00     0.274 HD
ENDBRANCH  25  26
BRANCH  25  30
HETATM   30  C18 UNL     1      33.459   8.419   2.229  1.00  0.00     0.036 C 
BRANCH  30  31
HETATM   31  C19 UNL     1      34.377   7.373   1.745  1.00  0.00     0.022 C 
BRANCH  31  32
HETATM   32  C20 UNL     1      35.073   6.560   2.777  1.00  0.00     0.122 C 
BRANCH  32  33
HETATM   33  N5  UNL     1      35.779   5.460   2.084  1.00  0.00    -0.365 N 
HETATM   34  C21 UNL     1      35.405   4.105   2.308  1.00  0.00     0.181 C 
HETATM   35  N6  UNL     1      36.185   3.125   1.963  1.00  0.00    -0.374 N 
HETATM   36  N7  UNL     1      34.169   3.764   2.912  1.00  0.00    -0.064 NA
ATOM     37  H62 UNL     1      37.075   3.370   1.528  1.00  0.00     0.158 HD
ATOM     38  H61 UNL     1      35.917   2.155   2.123  1.00  0.00     0.158 HD
ATOM     39  H5  UNL     1      36.541   5.675   1.441  1.00  0.00     0.162 HD
ENDBRANCH  32  33
ENDBRANCH  31  32
ENDBRANCH  30  31
ENDBRANCH  25  30
ENDBRANCH  24  25
ENDBRANCH  22  24
ENDBRANCH   1  22
TORSDOF 13
ENDMDL
