MODEL 1
REMARK VINA RESULT: -7.384308940      0.000      0.000
REMARK  9 active torsions:
REMARK  status: ('A' for Active; 'I' for Inactive)
REMARK    1  A    between atoms: C4_10  and  O1_11 
REMARK    2  A    between atoms: C6_15  and  C7_16 
REMARK    3  A    between atoms: C7_16  and  C8_17 
REMARK    4  A    between atoms: C8_17  and  C9_18 
REMARK    5  A    between atoms: C9_18  and  C10_19 
REMARK    6  A    between atoms: C10_19  and  C11_20 
REMARK    7  A    between atoms: C11_20  and  C12_21 
REMARK    8  A    between atoms: C12_21  and  C13_22 
REMARK    9  A    between atoms: C13_22  and  N4_23 
ROOT
HETATM    1  C1  UNL     1      30.720  10.015   3.882  1.00  0.00     0.153 C 
HETATM    2  N1  UNL     1      31.694  10.737   4.712  1.00  0.00    -0.351 N 
HETATM    3  C2  UNL     1      31.489  12.092   5.088  1.00  0.00     0.171 C 
HETATM    4  N2  UNL     1      30.542  12.899   4.664  1.00  0.00    -0.371 N 
ATOM      5  H21 UNL     1      30.394  13.872   4.933  1.00  0.00     0.159 HD
ATOM      6  H22 UNL     1      29.805  12.677   3.996  1.00  0.00     0.159 HD
HETATM    7  N3  UNL     1      32.516  12.402   6.019  1.00  0.00    -0.353 N 
ATOM      8  H3  UNL     1      32.489  13.119   6.744  1.00  0.00     0.163 HD
HETATM    9  C3  UNL     1      33.591  11.510   5.737  1.00  0.00     0.138 C 
HETATM   10  C4  UNL     1      34.432  11.181   6.952  1.00  0.00     0.166 C 
HETATM   11  C5  UNL     1      35.225   9.932   6.535  1.00  0.00     0.202 C 
HETATM   12  O2  UNL     1      35.771  10.196   5.327  1.00  0.00    -0.383 OA
HETATM   13  C6  UNL     1      35.190   9.675   4.208  1.00  0.00     0.123 C 
HETATM   14  C14 UNL     1      33.713   9.486   4.229  1.00  0.00     0.059 C 
HETATM   15  C15 UNL     1      32.942  10.235   5.255  1.00  0.00     0.114 C 
ENDROOT
BRANCH  13  16
HETATM   16  C7  UNL     1      35.945   8.420   3.761  1.00  0.00     0.036 C 
BRANCH  16  17
HETATM   17  C8  UNL     1      36.698   8.602   2.515  1.00  0.00     0.029 C 
BRANCH  17  18
HETATM   18  C9  UNL     1      36.377   7.749   1.354  1.00  0.00    -0.031 C 
BRANCH  18  19
HETATM   19  C10 UNL     1      35.015   7.415   0.961  1.00  0.00    -0.031 C 
BRANCH  19  20
HETATM   20  C11 UNL     1      34.524   6.027   0.926  1.00  0.00     0.028 C 
BRANCH  20  21
HETATM   21  C12 UNL     1      34.956   5.322   2.254  1.00  0.00     0.031 C 
BRANCH  21  22
HETATM   22  C13 UNL     1      34.863   3.829   2.059  1.00  0.00     0.230 C 
BRANCH  22  23
HETATM   23  N4  UNL     1      36.141   3.187   2.084  1.00  0.00    -0.079 N 
ATOM     24  H43 UNL     1      36.370   2.864   3.025  1.00  0.00     0.274 HD
ATOM     25  H42 UNL     1      36.108   2.287   1.605  1.00  0.00     0.274 HD
ATOM     26  H41 UNL     1      36.885   3.774   1.709  1.00  0.00     0.274 HD
ENDBRANCH  22  23
ENDBRANCH  21  22
ENDBRANCH  20  21
ENDBRANCH  19  20
ENDBRANCH  18  19
ENDBRANCH  17  18
ENDBRANCH  16  17
ENDBRANCH  13  16
BRANCH  10  27
HETATM   27  O1  UNL     1      33.623  10.912   8.053  1.00  0.00    -0.391 OA
ATOM     28  H1  UNL     1      34.148  10.802   8.837  1.00  0.00     0.210 HD
ENDBRANCH  10  27
TORSDOF 9
ENDMDL
MODEL 2
REMARK VINA RESULT: -7.334865957      2.907      5.949
REMARK  9 active torsions:
REMARK  status: ('A' for Active; 'I' for Inactive)
REMARK    1  A    between atoms: C4_10  and  O1_11 
REMARK    2  A    between atoms: C6_15  and  C7_16 
REMARK    3  A    between atoms: C7_16  and  C8_17 
REMARK    4  A    between atoms: C8_17  and  C9_18 
REMARK    5  A    between atoms: C9_18  and  C10_19 
REMARK    6  A    between atoms: C10_19  and  C11_20 
REMARK    7  A    between atoms: C11_20  and  C12_21 
REMARK    8  A    between atoms: C12_21  and  C13_22 
REMARK    9  A    between atoms: C13_22  and  N4_23 
ROOT
HETATM    1  C1  UNL     1      33.652  10.806   0.215  1.00  0.00     0.153 C 
HETATM    2  N1  UNL     1      33.834   9.389   0.558  1.00  0.00    -0.351 N 
HETATM    3  C2  UNL     1      33.081   8.368  -0.085  1.00  0.00     0.171 C 
HETATM    4  N2  UNL     1      32.076   8.526  -0.916  1.00  0.00    -0.371 N 
ATOM      5  H21 UNL     1      31.535   7.794  -1.377  1.00  0.00     0.159 HD
ATOM      6  H22 UNL     1      31.677   9.410  -1.231  1.00  0.00     0.159 HD
HETATM    7  N3  UNL     1      33.637   7.135   0.353  1.00  0.00    -0.353 N 
ATOM      8  H3  UNL     1      33.607   6.242  -0.138  1.00  0.00     0.163 HD
HETATM    9  C3  UNL     1      34.243   7.398   1.615  1.00  0.00     0.138 C 
HETATM   10  C4  UNL     1      35.425   6.500   1.912  1.00  0.00     0.166 C 
HETATM   11  C5  UNL     1      36.157   7.207   3.064  1.00  0.00     0.202 C 
HETATM   12  O2  UNL     1      35.226   7.511   3.996  1.00  0.00    -0.383 OA
HETATM   13  C6  UNL     1      34.760   8.790   4.077  1.00  0.00     0.123 C 
HETATM   14  C14 UNL     1      34.698   9.576   2.814  1.00  0.00     0.059 C 
HETATM   15  C15 UNL     1      34.743   8.821   1.535  1.00  0.00     0.114 C 
ENDROOT
BRANCH  13  16
HETATM   16  C7  UNL     1      35.471   9.536   5.209  1.00  0.00     0.036 C 
BRANCH  16  17
HETATM   17  C8  UNL     1      34.699   9.582   6.456  1.00  0.00     0.029 C 
BRANCH  17  18
HETATM   18  C9  UNL     1      33.698  10.651   6.639  1.00  0.00    -0.031 C 
BRANCH  18  19
HETATM   19  C10 UNL     1      32.323  10.548   6.171  1.00  0.00    -0.031 C 
BRANCH  19  20
HETATM   20  C11 UNL     1      31.899  11.061   4.857  1.00  0.00     0.028 C 
BRANCH  20  21
HETATM   21  C12 UNL     1      30.691  10.198   4.362  1.00  0.00     0.031 C 
BRANCH  21  22
HETATM   22  C13 UNL     1      31.118   9.434   3.133  1.00  0.00     0.230 C 
BRANCH  22  23
HETATM   23  N4  UNL     1      30.016   9.078   2.292  1.00  0.00    -0.079 N 
ATOM     24  H43 UNL     1      29.162   9.549   2.591  1.00  0.00     0.274 HD
ATOM     25  H42 UNL     1      30.116   9.489   1.365  1.00  0.00     0.274 HD
ATOM     26  H41 UNL     1      29.875   8.069   2.232  1.00  0.00     0.274 HD
ENDBRANCH  22  23
ENDBRANCH  21  22
ENDBRANCH  20  21
ENDBRANCH  19  20
ENDBRANCH  18  19
ENDBRANCH  17  18
ENDBRANCH  16  17
ENDBRANCH  13  16
BRANCH  10  27
HETATM   27  O1  UNL     1      36.248   6.384   0.795  1.00  0.00    -0.391 OA
ATOM     28  H1  UNL     1      36.800   5.613   0.863  1.00  0.00     0.210 HD
ENDBRANCH  10  27
TORSDOF 9
ENDMDL
MODEL 3
REMARK VINA RESULT: -7.304184059      3.219      6.294
REMARK  9 active torsions:
REMARK  status: ('A' for Active; 'I' for Inactive)
REMARK    1  A    between atoms: C4_10  and  O1_11 
REMARK    2  A    between atoms: C6_15  and  C7_16 
REMARK    3  A    between atoms: C7_16  and  C8_17 
REMARK    4  A    between atoms: C8_17  and  C9_18 
REMARK    5  A    between atoms: C9_18  and  C10_19 
REMARK    6  A    between atoms: C10_19  and  C11_20 
REMARK    7  A    between atoms: C11_20  and  C12_21 
REMARK    8  A    between atoms: C12_21  and  C13_22 
REMARK    9  A    between atoms: C13_22  and  N4_23 
ROOT
HETATM    1  C1  UNL     1      34.889   6.227   2.616  1.00  0.00     0.153 C 
HETATM    2  N1  UNL     1      35.089   7.571   2.056  1.00  0.00    -0.351 N 
HETATM    3  C2  UNL     1      36.392   8.082   1.803  1.00  0.00     0.171 C 
HETATM    4  N2  UNL     1      37.538   7.537   2.140  1.00  0.00    -0.371 N 
ATOM      5  H21 UNL     1      38.473   7.904   1.959  1.00  0.00     0.159 HD
ATOM      6  H22 UNL     1      37.673   6.659   2.640  1.00  0.00     0.159 HD
HETATM    7  N3  UNL     1      36.204   9.307   1.106  1.00  0.00    -0.353 N 
ATOM      8  H3  UNL     1      36.864   9.757   0.472  1.00  0.00     0.163 HD
HETATM    9  C3  UNL     1      34.911   9.779   1.472  1.00  0.00     0.138 C 
HETATM   10  C4  UNL     1      34.249  10.611   0.395  1.00  0.00     0.166 C 
HETATM   11  C5  UNL     1      32.767  10.650   0.804  1.00  0.00     0.202 C 
HETATM   12  O2  UNL     1      32.727  10.992   2.111  1.00  0.00    -0.383 OA
HETATM   13  C6  UNL     1      32.517  10.021   3.045  1.00  0.00     0.123 C 
HETATM   14  C14 UNL     1      33.036   8.659   2.744  1.00  0.00     0.059 C 
HETATM   15  C15 UNL     1      34.075   8.540   1.688  1.00  0.00     0.114 C 
ENDROOT
BRANCH  13  16
HETATM   16  C7  UNL     1      31.047  10.018   3.476  1.00  0.00     0.036 C 
BRANCH  16  17
HETATM   17  C8  UNL     1      30.838  10.495   4.848  1.00  0.00     0.029 C 
BRANCH  17  18
HETATM   18  C9  UNL     1      31.973  11.090   5.579  1.00  0.00    -0.031 C 
BRANCH  18  19
HETATM   19  C10 UNL     1      32.676  10.407   6.656  1.00  0.00    -0.031 C 
BRANCH  19  20
HETATM   20  C11 UNL     1      34.138  10.481   6.812  1.00  0.00     0.028 C 
BRANCH  20  21
HETATM   21  C12 UNL     1      34.775   9.295   6.016  1.00  0.00     0.031 C 
BRANCH  21  22
HETATM   22  C13 UNL     1      35.803   9.853   5.062  1.00  0.00     0.230 C 
BRANCH  22  23
HETATM   23  N4  UNL     1      37.138   9.752   5.566  1.00  0.00    -0.079 N 
ATOM     24  H43 UNL     1      37.376   8.785   5.782  1.00  0.00     0.274 HD
ATOM     25  H42 UNL     1      37.821   9.929   4.829  1.00  0.00     0.274 HD
ATOM     26  H41 UNL     1      37.303  10.358   6.370  1.00  0.00     0.274 HD
ENDBRANCH  22  23
ENDBRANCH  21  22
ENDBRANCH  20  21
ENDBRANCH  19  20
ENDBRANCH  18  19
ENDBRANCH  17  18
ENDBRANCH  16  17
ENDBRANCH  13  16
BRANCH  10  27
HETATM   27  O1  UNL     1      34.406  10.017  -0.854  1.00  0.00    -0.391 OA
ATOM     28  H1  UNL     1      33.636   9.511  -1.085  1.00  0.00     0.210 HD
ENDBRANCH  10  27
TORSDOF 9
ENDMDL
MODEL 4
REMARK VINA RESULT: -7.182220710      4.357      6.811
REMARK  9 active torsions:
REMARK  status: ('A' for Active; 'I' for Inactive)
REMARK    1  A    between atoms: C4_10  and  O1_11 
REMARK    2  A    between atoms: C6_15  and  C7_16 
REMARK    3  A    between atoms: C7_16  and  C8_17 
REMARK    4  A    between atoms: C8_17  and  C9_18 
REMARK    5  A    between atoms: C9_18  and  C10_19 
REMARK    6  A    between atoms: C10_19  and  C11_20 
REMARK    7  A    between atoms: C11_20  and  C12_21 
REMARK    8  A    between atoms: C12_21  and  C13_22 
REMARK    9  A    between atoms: C13_22  and  N4_23 
ROOT
HETATM    1  C1  UNL     1      29.051  11.566  -0.596  1.00  0.00     0.153 C 
HETATM    2  N1  UNL     1      30.068  10.573  -0.970  1.00  0.00    -0.351 N 
HETATM    3  C2  UNL     1      29.920   9.760  -2.127  1.00  0.00     0.171 C 
HETATM    4  N2  UNL     1      28.864   9.668  -2.903  1.00  0.00    -0.371 N 
ATOM      5  H21 UNL     1      28.757   9.084  -3.733  1.00  0.00     0.159 HD
ATOM      6  H22 UNL     1      27.982  10.168  -2.796  1.00  0.00     0.159 HD
HETATM    7  N3  UNL     1      31.149   9.063  -2.276  1.00  0.00    -0.353 N 
ATOM      8  H3  UNL     1      31.537   8.685  -3.141  1.00  0.00     0.163 HD
HETATM    9  C3  UNL     1      31.731   8.998  -0.978  1.00  0.00     0.138 C 
HETATM   10  C4  UNL     1      33.244   8.954  -0.999  1.00  0.00     0.166 C 
HETATM   11  C5  UNL     1      33.653   9.309   0.440  1.00  0.00     0.202 C 
HETATM   12  O2  UNL     1      32.918   8.528   1.263  1.00  0.00    -0.383 OA
HETATM   13  C6  UNL     1      31.835   9.065   1.894  1.00  0.00     0.123 C 
HETATM   14  C14 UNL     1      31.093  10.142   1.183  1.00  0.00     0.059 C 
HETATM   15  C15 UNL     1      31.308  10.269  -0.282  1.00  0.00     0.114 C 
ENDROOT
BRANCH  13  16
HETATM   16  C7  UNL     1      32.200   9.442   3.333  1.00  0.00     0.036 C 
BRANCH  16  17
HETATM   17  C8  UNL     1      31.093  10.050   4.079  1.00  0.00     0.029 C 
BRANCH  17  18
HETATM   18  C9  UNL     1      31.389  10.798   5.316  1.00  0.00    -0.031 C 
BRANCH  18  19
HETATM   19  C10 UNL     1      32.742  11.048   5.793  1.00  0.00    -0.031 C 
BRANCH  19  20
HETATM   20  C11 UNL     1      33.357  10.251   6.868  1.00  0.00     0.028 C 
BRANCH  20  21
HETATM   21  C12 UNL     1      34.514   9.402   6.246  1.00  0.00     0.031 C 
BRANCH  21  22
HETATM   22  C13 UNL     1      35.520  10.340   5.624  1.00  0.00     0.230 C 
BRANCH  22  23
HETATM   23  N4  UNL     1      36.850   9.814   5.637  1.00  0.00    -0.079 N 
ATOM     24  H43 UNL     1      36.842   8.799   5.538  1.00  0.00     0.274 HD
ATOM     25  H42 UNL     1      37.349  10.059   4.783  1.00  0.00     0.274 HD
ATOM     26  H41 UNL     1      37.378  10.096   6.463  1.00  0.00     0.274 HD
ENDBRANCH  22  23
ENDBRANCH  21  22
ENDBRANCH  20  21
ENDBRANCH  19  20
ENDBRANCH  18  19
ENDBRANCH  17  18
ENDBRANCH  16  17
ENDBRANCH  13  16
BRANCH  10  27
HETATM   27  O1  UNL     1      33.751   9.883  -1.904  1.00  0.00    -0.391 OA
ATOM     28  H1  UNL     1      34.547  10.279  -1.570  1.00  0.00     0.210 HD
ENDBRANCH  10  27
TORSDOF 9
ENDMDL
MODEL 5
REMARK VINA RESULT: -7.173893773      1.417      1.935
REMARK  9 active torsions:
REMARK  status: ('A' for Active; 'I' for Inactive)
REMARK    1  A    between atoms: C4_10  and  O1_11 
REMARK    2  A    between atoms: C6_15  and  C7_16 
REMARK    3  A    between atoms: C7_16  and  C8_17 
REMARK    4  A    between atoms: C8_17  and  C9_18 
REMARK    5  A    between atoms: C9_18  and  C10_19 
REMARK    6  A    between atoms: C10_19  and  C11_20 
REMARK    7  A    between atoms: C11_20  and  C12_21 
REMARK    8  A    between atoms: C12_21  and  C13_22 
REMARK    9  A    between atoms: C13_22  and  N4_23 
ROOT
HETATM    1  C1  UNL     1      30.861   9.817   3.810  1.00  0.00     0.153 C 
HETATM    2  N1  UNL     1      32.126  10.191   4.456  1.00  0.00    -0.351 N 
HETATM    3  C2  UNL     1      32.183  11.220   5.436  1.00  0.00     0.171 C 
HETATM    4  N2  UNL     1      31.215  12.037   5.786  1.00  0.00    -0.371 N 
ATOM      5  H21 UNL     1      31.255  12.776   6.488  1.00  0.00     0.159 HD
ATOM      6  H22 UNL     1      30.269  12.061   5.406  1.00  0.00     0.159 HD
HETATM    7  N3  UNL     1      33.501  11.186   5.965  1.00  0.00    -0.353 N 
ATOM      8  H3  UNL     1      33.799  11.508   6.886  1.00  0.00     0.163 HD
HETATM    9  C3  UNL     1      34.323  10.614   4.952  1.00  0.00     0.138 C 
HETATM   10  C4  UNL     1      35.519   9.867   5.500  1.00  0.00     0.166 C 
HETATM   11  C5  UNL     1      36.002   9.007   4.320  1.00  0.00     0.202 C 
HETATM   12  O2  UNL     1      36.087   9.823   3.246  1.00  0.00    -0.383 OA
HETATM   13  C6  UNL     1      35.098   9.792   2.309  1.00  0.00     0.123 C 
HETATM   14  C14 UNL     1      33.721   9.475   2.777  1.00  0.00     0.059 C 
HETATM   15  C15 UNL     1      33.442   9.623   4.230  1.00  0.00     0.114 C 
ENDROOT
BRANCH  13  16
HETATM   16  C7  UNL     1      35.533   8.936   1.115  1.00  0.00     0.036 C 
BRANCH  16  17
HETATM   17  C8  UNL     1      34.451   8.116   0.557  1.00  0.00     0.029 C 
BRANCH  17  18
HETATM   18  C9  UNL     1      34.733   6.715   0.189  1.00  0.00    -0.031 C 
BRANCH  18  19
HETATM   19  C10 UNL     1      34.386   5.582   1.036  1.00  0.00    -0.031 C 
BRANCH  19  20
HETATM   20  C11 UNL     1      35.085   5.302   2.301  1.00  0.00     0.028 C 
BRANCH  20  21
HETATM   21  C12 UNL     1      35.383   3.768   2.366  1.00  0.00     0.031 C 
BRANCH  21  22
HETATM   22  C13 UNL     1      34.309   3.036   1.597  1.00  0.00     0.230 C 
BRANCH  22  23
HETATM   23  N4  UNL     1      34.000   1.758   2.159  1.00  0.00    -0.079 N 
ATOM     24  H43 UNL     1      34.618   1.036   1.790  1.00  0.00     0.274 HD
ATOM     25  H42 UNL     1      34.266   1.716   3.143  1.00  0.00     0.274 HD
ATOM     26  H41 UNL     1      33.021   1.498   2.035  1.00  0.00     0.274 HD
ENDBRANCH  22  23
ENDBRANCH  21  22
ENDBRANCH  20  21
ENDBRANCH  19  20
ENDBRANCH  18  19
ENDBRANCH  17  18
ENDBRANCH  16  17
ENDBRANCH  13  16
BRANCH  10  27
HETATM   27  O1  UNL     1      35.151   9.070   6.580  1.00  0.00    -0.391 OA
ATOM     28  H1  UNL     1      35.267   9.537   7.399  1.00  0.00     0.210 HD
ENDBRANCH  10  27
TORSDOF 9
ENDMDL
