MODEL 1
REMARK VINA RESULT: -7.230059167      0.000      0.000
REMARK  8 active torsions:
REMARK  status: ('A' for Active; 'I' for Inactive)
REMARK    1  A    between atoms: C2_2  and  N1_3 
REMARK    2  A    between atoms: C3_5  and  C4_7 
REMARK    3  A    between atoms: C4_7  and  N3_8 
REMARK    4  A    between atoms: C7_11  and  C8_12 
REMARK    5  A    between atoms: C8_12  and  N4_13 
REMARK    6  A    between atoms: N4_13  and  C9_16 
REMARK    7  A    between atoms: C9_16  and  C10_17 
REMARK    8  A    between atoms: C14_21  and  N5_22 
ROOT
HETATM    1  N4  UNL     1      35.732   9.223   5.216  1.00  0.00    -0.074 N 
ATOM      2  H41 UNL     1      36.054   8.503   5.863  1.00  0.00     0.277 HD
ATOM      3  H42 UNL     1      35.248   8.617   4.554  1.00  0.00     0.277 HD
ENDROOT
BRANCH   1   4
HETATM    4  C8  UNL     1      36.811   9.927   4.613  1.00  0.00     0.238 C 
BRANCH   4   5
HETATM    5  C7  UNL     1      37.148   9.579   3.208  1.00  0.00     0.041 C 
HETATM    6  C6  UNL     1      37.124   8.048   3.124  1.00  0.00     0.038 C 
HETATM    7  C5  UNL     1      36.917   7.903   1.620  1.00  0.00     0.273 C 
HETATM    8  N3  UNL     1      35.893   8.848   1.298  1.00  0.00     0.095 N 
HETATM    9  C16 UNL     1      36.123  10.003   2.180  1.00  0.00     0.279 C 
BRANCH   8  10
HETATM   10  C4  UNL     1      34.552   8.386   1.399  1.00  0.00     0.345 C 
BRANCH  10  11
HETATM   11  C3  UNL     1      34.075   7.649   0.222  1.00  0.00     0.121 C 
HETATM   12  N1  UNL     1      34.051   6.407   0.152  1.00  0.00    -0.360 N 
ATOM     13  H1  UNL     1      33.687   6.125  -0.758  1.00  0.00     0.165 HD
HETATM   14  N2  UNL     1      33.604   8.353  -0.943  1.00  0.00    -0.086 NA
BRANCH  12  15
HETATM   15  C2  UNL     1      34.351   5.283   0.894  1.00  0.00     0.057 C 
HETATM   16  C1  UNL     1      33.677   4.006   0.423  1.00  0.00     0.054 C 
ENDBRANCH  12  15
ENDBRANCH  10  11
ENDBRANCH   8  10
ENDBRANCH   4   5
ENDBRANCH   1   4
BRANCH   1  17
HETATM   17  C9  UNL     1      34.841  10.163   5.847  1.00  0.00     0.237 C 
BRANCH  17  18
HETATM   18  C10 UNL     1      33.408  10.036   5.507  1.00  0.00     0.013 C 
HETATM   19  C11 UNL     1      33.139  10.543   4.079  1.00  0.00     0.006 C 
HETATM   20  C12 UNL     1      31.842   9.873   3.674  1.00  0.00     0.002 C 
HETATM   21  C13 UNL     1      30.739  10.326   4.558  1.00  0.00     0.033 C 
HETATM   22  C14 UNL     1      31.111  10.997   5.825  1.00  0.00     0.183 C 
HETATM   23  C15 UNL     1      32.405  10.561   6.453  1.00  0.00     0.039 C 
BRANCH  22  24
HETATM   24  N5  UNL     1      31.020  12.437   5.685  1.00  0.00    -0.075 N 
ATOM     25  H53 UNL     1      31.565  12.921   6.397  1.00  0.00     0.274 HD
ATOM     26  H52 UNL     1      31.517  12.769   4.859  1.00  0.00     0.274 HD
ATOM     27  H51 UNL     1      30.044  12.737   5.685  1.00  0.00     0.274 HD
ENDBRANCH  22  24
ENDBRANCH  17  18
ENDBRANCH   1  17
TORSDOF 8
ENDMDL
MODEL 2
REMARK VINA RESULT: -7.211109265      1.639      2.666
REMARK  8 active torsions:
REMARK  status: ('A' for Active; 'I' for Inactive)
REMARK    1  A    between atoms: C2_2  and  N1_3 
REMARK    2  A    between atoms: C3_5  and  C4_7 
REMARK    3  A    between atoms: C4_7  and  N3_8 
REMARK    4  A    between atoms: C7_11  and  C8_12 
REMARK    5  A    between atoms: C8_12  and  N4_13 
REMARK    6  A    between atoms: N4_13  and  C9_16 
REMARK    7  A    between atoms: C9_16  and  C10_17 
REMARK    8  A    between atoms: C14_21  and  N5_22 
ROOT
HETATM    1  N4  UNL     1      35.582   8.493   4.606  1.00  0.00    -0.074 N 
ATOM      2  H41 UNL     1      35.883   7.792   5.283  1.00  0.00     0.277 HD
ATOM      3  H42 UNL     1      34.885   7.933   4.117  1.00  0.00     0.277 HD
ENDROOT
BRANCH   1   4
HETATM    4  C8  UNL     1      36.641   8.905   3.750  1.00  0.00     0.238 C 
BRANCH   4   5
HETATM    5  C7  UNL     1      36.635   8.377   2.360  1.00  0.00     0.041 C 
HETATM    6  C6  UNL     1      35.685   7.173   2.359  1.00  0.00     0.038 C 
HETATM    7  C5  UNL     1      35.363   7.134   0.868  1.00  0.00     0.273 C 
HETATM    8  N3  UNL     1      35.107   8.495   0.513  1.00  0.00     0.095 N 
HETATM    9  C16 UNL     1      36.029   9.302   1.327  1.00  0.00     0.279 C 
BRANCH   8  10
HETATM   10  C4  UNL     1      33.765   8.944   0.661  1.00  0.00     0.345 C 
BRANCH  10  11
HETATM   11  C3  UNL     1      33.288   9.797  -0.435  1.00  0.00     0.121 C 
HETATM   12  N1  UNL     1      32.117  10.208  -0.527  1.00  0.00    -0.360 N 
ATOM     13  H1  UNL     1      32.022  10.775  -1.370  1.00  0.00     0.165 HD
HETATM   14  N2  UNL     1      34.182  10.205  -1.489  1.00  0.00    -0.086 NA
BRANCH  12  15
HETATM   15  C2  UNL     1      30.905  10.152   0.129  1.00  0.00     0.057 C 
HETATM   16  C1  UNL     1      30.413  11.481   0.678  1.00  0.00     0.054 C 
ENDBRANCH  12  15
ENDBRANCH  10  11
ENDBRANCH   8  10
ENDBRANCH   4   5
ENDBRANCH   1   4
BRANCH   1  17
HETATM   17  C9  UNL     1      35.005   9.650   5.241  1.00  0.00     0.237 C 
BRANCH  17  18
HETATM   18  C10 UNL     1      33.531   9.751   5.201  1.00  0.00     0.013 C 
HETATM   19  C11 UNL     1      33.056  10.255   3.825  1.00  0.00     0.006 C 
HETATM   20  C12 UNL     1      31.615   9.796   3.727  1.00  0.00     0.002 C 
HETATM   21  C13 UNL     1      30.802  10.450   4.783  1.00  0.00     0.033 C 
HETATM   22  C14 UNL     1      31.526  11.087   5.907  1.00  0.00     0.183 C 
HETATM   23  C15 UNL     1      32.838  10.462   6.292  1.00  0.00     0.039 C 
BRANCH  22  24
HETATM   24  N5  UNL     1      31.633  12.517   5.699  1.00  0.00    -0.075 N 
ATOM     25  H53 UNL     1      31.306  12.791   4.773  1.00  0.00     0.274 HD
ATOM     26  H52 UNL     1      30.955  13.033   6.260  1.00  0.00     0.274 HD
ATOM     27  H51 UNL     1      32.587  12.835   5.872  1.00  0.00     0.274 HD
ENDBRANCH  22  24
ENDBRANCH  17  18
ENDBRANCH   1  17
TORSDOF 8
ENDMDL
MODEL 3
REMARK VINA RESULT: -7.121019239      1.810      2.817
REMARK  8 active torsions:
REMARK  status: ('A' for Active; 'I' for Inactive)
REMARK    1  A    between atoms: C2_2  and  N1_3 
REMARK    2  A    between atoms: C3_5  and  C4_7 
REMARK    3  A    between atoms: C4_7  and  N3_8 
REMARK    4  A    between atoms: C7_11  and  C8_12 
REMARK    5  A    between atoms: C8_12  and  N4_13 
REMARK    6  A    between atoms: N4_13  and  C9_16 
REMARK    7  A    between atoms: C9_16  and  C10_17 
REMARK    8  A    between atoms: C14_21  and  N5_22 
ROOT
HETATM    1  N4  UNL     1      34.053  10.510   4.492  1.00  0.00    -0.074 N 
ATOM      2  H41 UNL     1      33.903  10.122   5.423  1.00  0.00     0.277 HD
ATOM      3  H42 UNL     1      33.994   9.642   3.962  1.00  0.00     0.277 HD
ENDROOT
BRANCH   1   4
HETATM    4  C8  UNL     1      35.327  11.133   4.367  1.00  0.00     0.238 C 
BRANCH   4   5
HETATM    5  C7  UNL     1      36.343  10.438   3.533  1.00  0.00     0.041 C 
HETATM    6  C6  UNL     1      36.914   9.309   4.400  1.00  0.00     0.038 C 
HETATM    7  C5  UNL     1      37.451   8.413   3.288  1.00  0.00     0.273 C 
HETATM    8  N3  UNL     1      36.405   8.373   2.313  1.00  0.00     0.095 N 
HETATM    9  C16 UNL     1      35.792   9.710   2.327  1.00  0.00     0.279 C 
BRANCH   8  10
HETATM   10  C4  UNL     1      35.423   7.358   2.482  1.00  0.00     0.345 C 
BRANCH  10  11
HETATM   11  C3  UNL     1      35.245   6.487   1.314  1.00  0.00     0.121 C 
HETATM   12  N1  UNL     1      35.135   5.249   1.388  1.00  0.00    -0.360 N 
ATOM     13  H1  UNL     1      35.027   4.860   0.451  1.00  0.00     0.165 HD
HETATM   14  N2  UNL     1      35.195   7.042  -0.014  1.00  0.00    -0.086 NA
BRANCH  12  15
HETATM   15  C2  UNL     1      35.109   4.227   2.315  1.00  0.00     0.057 C 
HETATM   16  C1  UNL     1      34.335   2.993   1.886  1.00  0.00     0.054 C 
ENDBRANCH  12  15
ENDBRANCH  10  11
ENDBRANCH   8  10
ENDBRANCH   4   5
ENDBRANCH   1   4
BRANCH   1  17
HETATM   17  C9  UNL     1      33.025  11.448   4.121  1.00  0.00     0.237 C 
BRANCH  17  18
HETATM   18  C10 UNL     1      32.022  10.968   3.148  1.00  0.00     0.013 C 
HETATM   19  C11 UNL     1      31.461   9.599   3.574  1.00  0.00     0.006 C 
HETATM   20  C12 UNL     1      30.127   9.494   2.863  1.00  0.00     0.002 C 
HETATM   21  C13 UNL     1      30.335   9.490   1.393  1.00  0.00     0.033 C 
HETATM   22  C14 UNL     1      31.653   9.939   0.888  1.00  0.00     0.183 C 
HETATM   23  C15 UNL     1      32.362  10.976   1.712  1.00  0.00     0.039 C 
BRANCH  22  24
HETATM   24  N5  UNL     1      32.497   8.801   0.583  1.00  0.00    -0.075 N 
ATOM     25  H53 UNL     1      32.474   8.568  -0.409  1.00  0.00     0.274 HD
ATOM     26  H52 UNL     1      33.487   9.032   0.664  1.00  0.00     0.274 HD
ATOM     27  H51 UNL     1      32.247   8.001   1.165  1.00  0.00     0.274 HD
ENDBRANCH  22  24
ENDBRANCH  17  18
ENDBRANCH   1  17
TORSDOF 8
ENDMDL
MODEL 4
REMARK VINA RESULT: -7.117046855      1.836      3.251
REMARK  8 active torsions:
REMARK  status: ('A' for Active; 'I' for Inactive)
REMARK    1  A    between atoms: C2_2  and  N1_3 
REMARK    2  A    between atoms: C3_5  and  C4_7 
REMARK    3  A    between atoms: C4_7  and  N3_8 
REMARK    4  A    between atoms: C7_11  and  C8_12 
REMARK    5  A    between atoms: C8_12  and  N4_13 
REMARK    6  A    between atoms: N4_13  and  C9_16 
REMARK    7  A    between atoms: C9_16  and  C10_17 
REMARK    8  A    between atoms: C14_21  and  N5_22 
ROOT
HETATM    1  N4  UNL     1      36.941   9.950   3.835  1.00  0.00    -0.074 N 
ATOM      2  H41 UNL     1      36.207  10.277   3.206  1.00  0.00     0.277 HD
ATOM      3  H42 UNL     1      37.675  10.597   3.550  1.00  0.00     0.277 HD
ENDROOT
BRANCH   1   4
HETATM    4  C8  UNL     1      37.293   8.593   3.592  1.00  0.00     0.238 C 
BRANCH   4   5
HETATM    5  C7  UNL     1      36.641   7.917   2.440  1.00  0.00     0.041 C 
HETATM    6  C6  UNL     1      35.222   7.557   2.896  1.00  0.00     0.038 C 
HETATM    7  C5  UNL     1      34.565   7.429   1.526  1.00  0.00     0.273 C 
HETATM    8  N3  UNL     1      35.023   8.567   0.792  1.00  0.00     0.095 N 
HETATM    9  C16 UNL     1      36.408   8.796   1.231  1.00  0.00     0.279 C 
BRANCH   8  10
HETATM   10  C4  UNL     1      34.245   9.753   0.914  1.00  0.00     0.345 C 
BRANCH  10  11
HETATM   11  C3  UNL     1      33.512  10.123  -0.303  1.00  0.00     0.121 C 
HETATM   12  N1  UNL     1      32.298  10.397  -0.318  1.00  0.00    -0.360 N 
ATOM     13  H1  UNL     1      32.011  10.617  -1.272  1.00  0.00     0.165 HD
HETATM   14  N2  UNL     1      34.184  10.182  -1.575  1.00  0.00    -0.086 NA
BRANCH  12  15
HETATM   15  C2  UNL     1      31.210  10.502   0.525  1.00  0.00     0.057 C 
HETATM   16  C1  UNL     1      31.060  11.849   1.210  1.00  0.00     0.054 C 
ENDBRANCH  12  15
ENDBRANCH  10  11
ENDBRANCH   8  10
ENDBRANCH   4   5
ENDBRANCH   1   4
BRANCH   1  17
HETATM   17  C9  UNL     1      36.581  10.108   5.220  1.00  0.00     0.237 C 
BRANCH  17  18
HETATM   18  C10 UNL     1      35.189  10.524   5.492  1.00  0.00     0.013 C 
HETATM   19  C11 UNL     1      34.467   9.478   6.361  1.00  0.00     0.006 C 
HETATM   20  C12 UNL     1      33.324  10.238   7.004  1.00  0.00     0.002 C 
HETATM   21  C13 UNL     1      32.386  10.721   5.959  1.00  0.00     0.033 C 
HETATM   22  C14 UNL     1      32.867  10.725   4.558  1.00  0.00     0.183 C 
HETATM   23  C15 UNL     1      34.340  10.948   4.362  1.00  0.00     0.039 C 
BRANCH  22  24
HETATM   24  N5  UNL     1      32.383   9.557   3.850  1.00  0.00    -0.075 N 
ATOM     25  H53 UNL     1      31.980   8.869   4.486  1.00  0.00     0.274 HD
ATOM     26  H52 UNL     1      31.550   9.765   3.301  1.00  0.00     0.274 HD
ATOM     27  H51 UNL     1      33.124   9.152   3.275  1.00  0.00     0.274 HD
ENDBRANCH  22  24
ENDBRANCH  17  18
ENDBRANCH   1  17
TORSDOF 8
ENDMDL
MODEL 5
REMARK VINA RESULT: -7.070595759      1.985      2.821
REMARK  8 active torsions:
REMARK  status: ('A' for Active; 'I' for Inactive)
REMARK    1  A    between atoms: C2_2  and  N1_3 
REMARK    2  A    between atoms: C3_5  and  C4_7 
REMARK    3  A    between atoms: C4_7  and  N3_8 
REMARK    4  A    between atoms: C7_11  and  C8_12 
REMARK    5  A    between atoms: C8_12  and  N4_13 
REMARK    6  A    between atoms: N4_13  and  C9_16 
REMARK    7  A    between atoms: C9_16  and  C10_17 
REMARK    8  A    between atoms: C14_21  and  N5_22 
ROOT
HETATM    1  N4  UNL     1      35.134   9.015   5.196  1.00  0.00    -0.074 N 
ATOM      2  H41 UNL     1      35.072   8.002   5.297  1.00  0.00     0.277 HD
ATOM      3  H42 UNL     1      34.526   9.117   4.384  1.00  0.00     0.277 HD
ENDROOT
BRANCH   1   4
HETATM    4  C8  UNL     1      36.463   9.451   4.933  1.00  0.00     0.238 C 
BRANCH   4   5
HETATM    5  C7  UNL     1      36.902   9.473   3.513  1.00  0.00     0.041 C 
HETATM    6  C6  UNL     1      36.697   8.052   2.975  1.00  0.00     0.038 C 
HETATM    7  C5  UNL     1      36.635   8.376   1.486  1.00  0.00     0.273 C 
HETATM    8  N3  UNL     1      35.776   9.516   1.395  1.00  0.00     0.095 N 
HETATM    9  C16 UNL     1      36.052  10.322   2.594  1.00  0.00     0.279 C 
BRANCH   8  10
HETATM   10  C4  UNL     1      34.385   9.250   1.266  1.00  0.00     0.345 C 
BRANCH  10  11
HETATM   11  C3  UNL     1      33.710  10.047   0.234  1.00  0.00     0.121 C 
HETATM   12  N1  UNL     1      32.593  10.574   0.391  1.00  0.00    -0.360 N 
ATOM     13  H1  UNL     1      32.328  11.069  -0.460  1.00  0.00     0.165 HD
HETATM   14  N2  UNL     1      34.327  10.257  -1.051  1.00  0.00    -0.086 NA
BRANCH  12  15
HETATM   15  C2  UNL     1      31.594  10.711   1.333  1.00  0.00     0.057 C 
HETATM   16  C1  UNL     1      30.977  12.097   1.414  1.00  0.00     0.054 C 
ENDBRANCH  12  15
ENDBRANCH  10  11
ENDBRANCH   8  10
ENDBRANCH   4   5
ENDBRANCH   1   4
BRANCH   1  17
HETATM   17  C9  UNL     1      34.623   9.709   6.350  1.00  0.00     0.237 C 
BRANCH  17  18
HETATM   18  C10 UNL     1      33.401  10.513   6.142  1.00  0.00     0.013 C 
HETATM   19  C11 UNL     1      32.697  10.108   4.835  1.00  0.00     0.006 C 
HETATM   20  C12 UNL     1      31.263  10.563   5.016  1.00  0.00     0.002 C 
HETATM   21  C13 UNL     1      31.212  12.041   5.148  1.00  0.00     0.033 C 
HETATM   22  C14 UNL     1      32.482  12.744   5.446  1.00  0.00     0.183 C 
HETATM   23  C15 UNL     1      33.487  11.982   6.263  1.00  0.00     0.039 C 
BRANCH  22  24
HETATM   24  N5  UNL     1      33.055  13.297   4.235  1.00  0.00    -0.075 N 
ATOM     25  H53 UNL     1      32.603  12.927   3.400  1.00  0.00     0.274 HD
ATOM     26  H52 UNL     1      32.814  14.280   4.117  1.00  0.00     0.274 HD
ATOM     27  H51 UNL     1      34.065  13.149   4.216  1.00  0.00     0.274 HD
ENDBRANCH  22  24
ENDBRANCH  17  18
ENDBRANCH   1  17
TORSDOF 8
ENDMDL
