MODEL 1
REMARK VINA RESULT: -7.385605494      0.000      0.000
REMARK  9 active torsions:
REMARK  status: ('A' for Active; 'I' for Inactive)
REMARK    1  A    between atoms: N2_3  and  C2_5 
REMARK    2  A    between atoms: N3_11  and  C8_12 
REMARK    3  A    between atoms: C8_12  and  C9_13 
REMARK    4  A    between atoms: C9_13  and  C10_14 
REMARK    5  A    between atoms: C10_14  and  C11_15 
REMARK    6  A    between atoms: C11_15  and  C12_16 
REMARK    7  A    between atoms: C12_16  and  C13_17 
REMARK    8  A    between atoms: C13_17  and  C14_18 
REMARK    9  A    between atoms: C14_18  and  O1_19 
ROOT
HETATM    1  N1  UNL     1      33.399   4.752   0.747  1.00  0.00    -0.172 NA
HETATM    2  C1  UNL     1      34.412   5.326   0.838  1.00  0.00     0.179 C 
HETATM    3  N2  UNL     1      35.635   6.017   0.924  1.00  0.00    -0.293 N 
ATOM      4  H2  UNL     1      36.454   5.679   0.421  1.00  0.00     0.174 HD
ENDROOT
BRANCH   3   5
HETATM    5  C2  UNL     1      35.715   7.212   1.733  1.00  0.00     0.230 C 
HETATM    6  C3  UNL     1      35.123   6.894   3.098  1.00  0.00     0.070 C 
HETATM    7  C4  UNL     1      35.048   8.195   3.842  1.00  0.00     0.018 C 
HETATM    8  C5  UNL     1      36.485   8.681   4.031  1.00  0.00     0.041 C 
HETATM    9  C15 UNL     1      34.210   9.226   3.118  1.00  0.00     0.242 C 
HETATM   10  C6  UNL     1      37.049   8.906   2.645  1.00  0.00     0.215 C 
HETATM   11  C7  UNL     1      36.178   9.976   1.991  1.00  0.00     0.270 C 
HETATM   12  N4  UNL     1      37.058   7.682   1.908  1.00  0.00    -0.040 N 
HETATM   13  N3  UNL     1      34.815   9.500   1.839  1.00  0.00    -0.061 N 
HETATM   14  C16 UNL     1      34.882   8.271   1.064  1.00  0.00     0.299 C 
ATOM     15  H42 UNL     1      37.658   6.979   2.338  1.00  0.00     0.280 HD
ATOM     16  H41 UNL     1      37.551   7.773   1.019  1.00  0.00     0.280 HD
BRANCH  13  17
HETATM   17  C8  UNL     1      34.073  10.430   1.038  1.00  0.00     0.237 C 
BRANCH  17  18
HETATM   18  C9  UNL     1      32.994  11.165   1.694  1.00  0.00     0.028 C 
BRANCH  18  19
HETATM   19  C10 UNL     1      31.722  11.242   0.808  1.00  0.00     0.002 C 
BRANCH  19  20
HETATM   20  C11 UNL     1      31.233   9.886   0.471  1.00  0.00     0.000 C 
BRANCH  20  21
HETATM   21  C12 UNL     1      31.078   9.482  -0.937  1.00  0.00     0.002 C 
BRANCH  21  22
HETATM   22  C13 UNL     1      32.120   8.731  -1.662  1.00  0.00     0.026 C 
BRANCH  22  23
HETATM   23  C14 UNL     1      32.992   9.481  -2.614  1.00  0.00     0.164 C 
BRANCH  23  24
HETATM   24  O1  UNL     1      32.371   9.533  -3.884  1.00  0.00    -0.401 OA
ATOM     25  H1  UNL     1      31.752   8.818  -3.964  1.00  0.00     0.209 HD
ENDBRANCH  23  24
ENDBRANCH  22  23
ENDBRANCH  21  22
ENDBRANCH  20  21
ENDBRANCH  19  20
ENDBRANCH  18  19
ENDBRANCH  17  18
ENDBRANCH  13  17
ENDBRANCH   3   5
TORSDOF 9
ENDMDL
MODEL 2
REMARK VINA RESULT: -7.376955493      0.862      1.025
REMARK  9 active torsions:
REMARK  status: ('A' for Active; 'I' for Inactive)
REMARK    1  A    between atoms: N2_3  and  C2_5 
REMARK    2  A    between atoms: N3_11  and  C8_12 
REMARK    3  A    between atoms: C8_12  and  C9_13 
REMARK    4  A    between atoms: C9_13  and  C10_14 
REMARK    5  A    between atoms: C10_14  and  C11_15 
REMARK    6  A    between atoms: C11_15  and  C12_16 
REMARK    7  A    between atoms: C12_16  and  C13_17 
REMARK    8  A    between atoms: C13_17  and  C14_18 
REMARK    9  A    between atoms: C14_18  and  O1_19 
ROOT
HETATM    1  N1  UNL     1      33.391   4.609   0.868  1.00  0.00    -0.172 NA
HETATM    2  C1  UNL     1      34.430   5.106   1.061  1.00  0.00     0.179 C 
HETATM    3  N2  UNL     1      35.688   5.700   1.271  1.00  0.00    -0.293 N 
ATOM      4  H2  UNL     1      36.540   5.220   0.982  1.00  0.00     0.174 HD
ENDROOT
BRANCH   3   5
HETATM    5  C2  UNL     1      35.758   7.000   1.900  1.00  0.00     0.230 C 
HETATM    6  C3  UNL     1      34.961   6.938   3.193  1.00  0.00     0.070 C 
HETATM    7  C4  UNL     1      34.895   8.342   3.719  1.00  0.00     0.018 C 
HETATM    8  C5  UNL     1      36.329   8.760   4.046  1.00  0.00     0.041 C 
HETATM    9  C15 UNL     1      34.255   9.297   2.737  1.00  0.00     0.242 C 
HETATM   10  C6  UNL     1      37.095   8.728   2.741  1.00  0.00     0.215 C 
HETATM   11  C7  UNL     1      36.416   9.735   1.816  1.00  0.00     0.270 C 
HETATM   12  N4  UNL     1      37.100   7.406   2.200  1.00  0.00    -0.040 N 
HETATM   13  N3  UNL     1      35.050   9.328   1.535  1.00  0.00    -0.061 N 
HETATM   14  C16 UNL     1      35.118   7.992   0.967  1.00  0.00     0.299 C 
ATOM     15  H42 UNL     1      37.573   6.742   2.813  1.00  0.00     0.280 HD
ATOM     16  H41 UNL     1      37.716   7.324   1.391  1.00  0.00     0.280 HD
BRANCH  13  17
HETATM   17  C8  UNL     1      34.507  10.166   0.505  1.00  0.00     0.237 C 
BRANCH  17  18
HETATM   18  C9  UNL     1      33.352   9.656  -0.231  1.00  0.00     0.028 C 
BRANCH  18  19
HETATM   19  C10 UNL     1      32.080  10.510   0.020  1.00  0.00     0.002 C 
BRANCH  19  20
HETATM   20  C11 UNL     1      30.857   9.728  -0.267  1.00  0.00     0.000 C 
BRANCH  20  21
HETATM   21  C12 UNL     1      29.989  10.096  -1.398  1.00  0.00     0.002 C 
BRANCH  21  22
HETATM   22  C13 UNL     1      29.978   9.340  -2.664  1.00  0.00     0.026 C 
BRANCH  22  23
HETATM   23  C14 UNL     1      31.204   8.573  -3.033  1.00  0.00     0.164 C 
BRANCH  23  24
HETATM   24  O1  UNL     1      32.095   9.415  -3.738  1.00  0.00    -0.401 OA
ATOM     25  H1  UNL     1      32.809   9.672  -3.167  1.00  0.00     0.209 HD
ENDBRANCH  23  24
ENDBRANCH  22  23
ENDBRANCH  21  22
ENDBRANCH  20  21
ENDBRANCH  19  20
ENDBRANCH  18  19
ENDBRANCH  17  18
ENDBRANCH  13  17
ENDBRANCH   3   5
TORSDOF 9
ENDMDL
MODEL 3
REMARK VINA RESULT: -7.363382168      1.071      1.131
REMARK  9 active torsions:
REMARK  status: ('A' for Active; 'I' for Inactive)
REMARK    1  A    between atoms: N2_3  and  C2_5 
REMARK    2  A    between atoms: N3_11  and  C8_12 
REMARK    3  A    between atoms: C8_12  and  C9_13 
REMARK    4  A    between atoms: C9_13  and  C10_14 
REMARK    5  A    between atoms: C10_14  and  C11_15 
REMARK    6  A    between atoms: C11_15  and  C12_16 
REMARK    7  A    between atoms: C12_16  and  C13_17 
REMARK    8  A    between atoms: C13_17  and  C14_18 
REMARK    9  A    between atoms: C14_18  and  O1_19 
ROOT
HETATM    1  N1  UNL     1      34.569   4.219   2.777  1.00  0.00    -0.172 NA
HETATM    2  C1  UNL     1      35.190   5.058   2.250  1.00  0.00     0.179 C 
HETATM    3  N2  UNL     1      35.932   6.057   1.595  1.00  0.00    -0.293 N 
ATOM      4  H2  UNL     1      36.606   5.808   0.871  1.00  0.00     0.174 HD
ENDROOT
BRANCH   3   5
HETATM    5  C2  UNL     1      35.729   7.441   1.961  1.00  0.00     0.230 C 
HETATM    6  C3  UNL     1      35.727   7.529   3.479  1.00  0.00     0.070 C 
HETATM    7  C4  UNL     1      35.327   8.934   3.822  1.00  0.00     0.018 C 
HETATM    8  C5  UNL     1      36.421   9.852   3.277  1.00  0.00     0.041 C 
HETATM    9  C15 UNL     1      33.971   9.301   3.259  1.00  0.00     0.242 C 
HETATM   10  C6  UNL     1      36.432   9.666   1.776  1.00  0.00     0.215 C 
HETATM   11  C7  UNL     1      35.051  10.085   1.278  1.00  0.00     0.270 C 
HETATM   12  N4  UNL     1      36.744   8.312   1.446  1.00  0.00    -0.040 N 
HETATM   13  N3  UNL     1      34.026   9.212   1.822  1.00  0.00    -0.061 N 
HETATM   14  C16 UNL     1      34.381   7.856   1.436  1.00  0.00     0.299 C 
ATOM     15  H42 UNL     1      37.676   8.045   1.763  1.00  0.00     0.280 HD
ATOM     16  H41 UNL     1      36.887   8.184   0.444  1.00  0.00     0.280 HD
BRANCH  13  17
HETATM   17  C8  UNL     1      32.775   9.489   1.179  1.00  0.00     0.237 C 
BRANCH  17  18
HETATM   18  C9  UNL     1      32.511  10.875   0.797  1.00  0.00     0.028 C 
BRANCH  18  19
HETATM   19  C10 UNL     1      30.998  11.137   0.571  1.00  0.00     0.002 C 
BRANCH  19  20
HETATM   20  C11 UNL     1      30.346   9.959  -0.045  1.00  0.00     0.000 C 
BRANCH  20  21
HETATM   21  C12 UNL     1      30.207   9.870  -1.508  1.00  0.00     0.002 C 
BRANCH  21  22
HETATM   22  C13 UNL     1      31.011   8.939  -2.322  1.00  0.00     0.026 C 
BRANCH  22  23
HETATM   23  C14 UNL     1      32.446   9.276  -2.562  1.00  0.00     0.164 C 
BRANCH  23  24
HETATM   24  O1  UNL     1      32.627   9.636  -3.918  1.00  0.00    -0.401 OA
ATOM     25  H1  UNL     1      33.440  10.117  -4.013  1.00  0.00     0.209 HD
ENDBRANCH  23  24
ENDBRANCH  22  23
ENDBRANCH  21  22
ENDBRANCH  20  21
ENDBRANCH  19  20
ENDBRANCH  18  19
ENDBRANCH  17  18
ENDBRANCH  13  17
ENDBRANCH   3   5
TORSDOF 9
ENDMDL
MODEL 4
REMARK VINA RESULT: -7.335041826      2.730      4.006
REMARK  9 active torsions:
REMARK  status: ('A' for Active; 'I' for Inactive)
REMARK    1  A    between atoms: N2_3  and  C2_5 
REMARK    2  A    between atoms: N3_11  and  C8_12 
REMARK    3  A    between atoms: C8_12  and  C9_13 
REMARK    4  A    between atoms: C9_13  and  C10_14 
REMARK    5  A    between atoms: C10_14  and  C11_15 
REMARK    6  A    between atoms: C11_15  and  C12_16 
REMARK    7  A    between atoms: C12_16  and  C13_17 
REMARK    8  A    between atoms: C13_17  and  C14_18 
REMARK    9  A    between atoms: C14_18  and  O1_19 
ROOT
HETATM    1  N1  UNL     1      35.265   4.176   2.784  1.00  0.00    -0.172 NA
HETATM    2  C1  UNL     1      34.802   5.216   2.521  1.00  0.00     0.179 C 
HETATM    3  N2  UNL     1      34.227   6.463   2.217  1.00  0.00    -0.293 N 
ATOM      4  H2  UNL     1      33.256   6.522   1.910  1.00  0.00     0.174 HD
ENDROOT
BRANCH   3   5
HETATM    5  C2  UNL     1      35.027   7.660   2.348  1.00  0.00     0.230 C 
HETATM    6  C3  UNL     1      36.438   7.332   1.886  1.00  0.00     0.070 C 
HETATM    7  C4  UNL     1      37.281   8.531   2.211  1.00  0.00     0.018 C 
HETATM    8  C5  UNL     1      36.745   9.690   1.370  1.00  0.00     0.041 C 
HETATM    9  C15 UNL     1      37.260   8.868   3.686  1.00  0.00     0.242 C 
HETATM   10  C6  UNL     1      35.317   9.921   1.814  1.00  0.00     0.215 C 
HETATM   11  C7  UNL     1      35.379  10.287   3.294  1.00  0.00     0.270 C 
HETATM   12  N4  UNL     1      34.527   8.756   1.570  1.00  0.00    -0.040 N 
HETATM   13  N3  UNL     1      35.907   9.179   4.071  1.00  0.00    -0.061 N 
HETATM   14  C16 UNL     1      35.053   8.033   3.805  1.00  0.00     0.299 C 
ATOM     15  H42 UNL     1      34.473   8.529   0.578  1.00  0.00     0.280 HD
ATOM     16  H41 UNL     1      33.535   8.924   1.737  1.00  0.00     0.280 HD
BRANCH  13  17
HETATM   17  C8  UNL     1      35.757   9.465   5.469  1.00  0.00     0.237 C 
BRANCH  17  18
HETATM   18  C9  UNL     1      34.449   9.204   6.068  1.00  0.00     0.028 C 
BRANCH  18  19
HETATM   19  C10 UNL     1      33.757  10.511   6.541  1.00  0.00     0.002 C 
BRANCH  19  20
HETATM   20  C11 UNL     1      32.388  10.612   5.985  1.00  0.00     0.000 C 
BRANCH  20  21
HETATM   21  C12 UNL     1      32.120  10.201   4.596  1.00  0.00     0.002 C 
BRANCH  21  22
HETATM   22  C13 UNL     1      30.752  10.085   4.057  1.00  0.00     0.026 C 
BRANCH  22  23
HETATM   23  C14 UNL     1      30.567   9.368   2.761  1.00  0.00     0.164 C 
BRANCH  23  24
HETATM   24  O1  UNL     1      31.721   8.600   2.476  1.00  0.00    -0.401 OA
ATOM     25  H1  UNL     1      32.445   9.180   2.272  1.00  0.00     0.209 HD
ENDBRANCH  23  24
ENDBRANCH  22  23
ENDBRANCH  21  22
ENDBRANCH  20  21
ENDBRANCH  19  20
ENDBRANCH  18  19
ENDBRANCH  17  18
ENDBRANCH  13  17
ENDBRANCH   3   5
TORSDOF 9
ENDMDL
MODEL 5
REMARK VINA RESULT: -7.325560198      3.534      4.660
REMARK  9 active torsions:
REMARK  status: ('A' for Active; 'I' for Inactive)
REMARK    1  A    between atoms: N2_3  and  C2_5 
REMARK    2  A    between atoms: N3_11  and  C8_12 
REMARK    3  A    between atoms: C8_12  and  C9_13 
REMARK    4  A    between atoms: C9_13  and  C10_14 
REMARK    5  A    between atoms: C10_14  and  C11_15 
REMARK    6  A    between atoms: C11_15  and  C12_16 
REMARK    7  A    between atoms: C12_16  and  C13_17 
REMARK    8  A    between atoms: C13_17  and  C14_18 
REMARK    9  A    between atoms: C14_18  and  O1_19 
ROOT
HETATM    1  N1  UNL     1      34.600   4.033   2.828  1.00  0.00    -0.172 NA
HETATM    2  C1  UNL     1      35.133   4.887   2.235  1.00  0.00     0.179 C 
HETATM    3  N2  UNL     1      35.767   5.906   1.501  1.00  0.00    -0.293 N 
ATOM      4  H2  UNL     1      36.336   5.678   0.686  1.00  0.00     0.174 HD
ENDROOT
BRANCH   3   5
HETATM    5  C2  UNL     1      35.601   7.282   1.914  1.00  0.00     0.230 C 
HETATM    6  C3  UNL     1      36.361   7.474   3.217  1.00  0.00     0.070 C 
HETATM    7  C4  UNL     1      36.014   8.847   3.713  1.00  0.00     0.018 C 
HETATM    8  C5  UNL     1      36.549   9.839   2.681  1.00  0.00     0.041 C 
HETATM    9  C15 UNL     1      34.527   9.024   3.926  1.00  0.00     0.242 C 
HETATM   10  C6  UNL     1      35.817   9.552   1.388  1.00  0.00     0.215 C 
HETATM   11  C7  UNL     1      34.335   9.783   1.669  1.00  0.00     0.270 C 
HETATM   12  N4  UNL     1      36.090   8.221   0.948  1.00  0.00    -0.040 N 
HETATM   13  N3  UNL     1      33.853   8.842   2.665  1.00  0.00    -0.061 N 
HETATM   14  C16 UNL     1      34.134   7.510   2.156  1.00  0.00     0.299 C 
ATOM     15  H42 UNL     1      37.079   8.079   0.742  1.00  0.00     0.280 HD
ATOM     16  H41 UNL     1      35.718   8.041   0.015  1.00  0.00     0.280 HD
BRANCH  13  17
HETATM   17  C8  UNL     1      32.424   8.936   2.755  1.00  0.00     0.237 C 
BRANCH  17  18
HETATM   18  C9  UNL     1      31.861  10.236   3.116  1.00  0.00     0.028 C 
BRANCH  18  19
HETATM   19  C10 UNL     1      30.708  10.103   4.147  1.00  0.00     0.002 C 
BRANCH  19  20
HETATM   20  C11 UNL     1      31.015  10.863   5.379  1.00  0.00     0.000 C 
BRANCH  20  21
HETATM   21  C12 UNL     1      32.396  11.294   5.660  1.00  0.00     0.002 C 
BRANCH  21  22
HETATM   22  C13 UNL     1      33.223  10.663   6.705  1.00  0.00     0.026 C 
BRANCH  22  23
HETATM   23  C14 UNL     1      34.621  11.155   6.885  1.00  0.00     0.164 C 
BRANCH  23  24
HETATM   24  O1  UNL     1      35.002  11.012   8.240  1.00  0.00    -0.401 OA
ATOM     25  H1  UNL     1      34.295  10.606   8.727  1.00  0.00     0.209 HD
ENDBRANCH  23  24
ENDBRANCH  22  23
ENDBRANCH  21  22
ENDBRANCH  20  21
ENDBRANCH  19  20
ENDBRANCH  18  19
ENDBRANCH  17  18
ENDBRANCH  13  17
ENDBRANCH   3   5
TORSDOF 9
ENDMDL
