MODEL 1
REMARK VINA RESULT: -6.632567084      0.000      0.000
REMARK  6 active torsions:
REMARK  status: ('A' for Active; 'I' for Inactive)
REMARK    1  A    between atoms: C2_2  and  O1_4 
REMARK    2  A    between atoms: O1_4  and  C4_5 
REMARK    3  A    between atoms: C4_5  and  C5_6 
REMARK    4  A    between atoms: C4_5  and  C7_10 
REMARK    5  A    between atoms: C5_6  and  C6_7 
REMARK       I    between atoms: C7_10  and  N1_12 
REMARK    6  A    between atoms: N1_12  and  C9_14 
ROOT
HETATM    1  C7  UNL     1       1.557  56.207  85.082  1.00  0.00     0.249 C 
HETATM    2  O4  UNL     1       2.449  56.528  85.960  1.00  0.00    -0.270 OA
HETATM    3  N1  UNL     1       0.811  57.274  84.590  1.00  0.00    -0.350 N 
HETATM    4  C8  UNL     1      -0.259  57.063  83.653  1.00  0.00     0.153 C 
ENDROOT
BRANCH   1   5
HETATM    5  C4  UNL     1       1.468  54.787  84.749  1.00  0.00     0.223 C 
BRANCH   5   6
HETATM    6  O1  UNL     1       1.449  54.097  86.001  1.00  0.00    -0.371 OA
BRANCH   6   7
HETATM    7  C2  UNL     1       0.187  53.949  86.494  1.00  0.00     0.114 C 
HETATM    8  C1  UNL     1      -0.757  53.227  85.559  1.00  0.00     0.039 C 
HETATM    9  C3  UNL     1       0.135  53.300  87.859  1.00  0.00     0.039 C 
ENDBRANCH   6   7
ENDBRANCH   5   6
BRANCH   5  10
HETATM   10  C5  UNL     1       2.668  54.187  84.070  1.00  0.00     0.154 C 
BRANCH  10  11
HETATM   11  C6  UNL     1       2.492  53.416  82.874  1.00  0.00     0.175 C 
HETATM   12  O2  UNL     1       3.418  53.405  81.988  1.00  0.00    -0.648 OA
HETATM   13  O3  UNL     1       1.370  52.649  82.575  1.00  0.00    -0.648 OA
ENDBRANCH  10  11
ENDBRANCH   5  10
ENDBRANCH   1   5
BRANCH   3  14
HETATM   14  C9  UNL     1       1.092  58.627  85.007  1.00  0.00     0.086 C 
HETATM   15  C10 UNL     1       1.113  59.583  83.819  1.00  0.00     0.025 C 
HETATM   16  C11 UNL     1       1.667  60.885  84.295  1.00  0.00     0.002 C 
HETATM   17  C12 UNL     1       0.539  61.866  84.466  1.00  0.00     0.000 C 
HETATM   18  C13 UNL     1      -0.283  61.549  85.694  1.00  0.00     0.000 C 
HETATM   19  C14 UNL     1      -0.822  60.124  85.660  1.00  0.00     0.002 C 
HETATM   20  C15 UNL     1       0.196  59.121  86.105  1.00  0.00     0.025 C 
ENDBRANCH   3  14
TORSDOF 6
ENDMDL
MODEL 2
REMARK VINA RESULT: -6.537731786      0.245      1.074
REMARK  6 active torsions:
REMARK  status: ('A' for Active; 'I' for Inactive)
REMARK    1  A    between atoms: C2_2  and  O1_4 
REMARK    2  A    between atoms: O1_4  and  C4_5 
REMARK    3  A    between atoms: C4_5  and  C5_6 
REMARK    4  A    between atoms: C4_5  and  C7_10 
REMARK    5  A    between atoms: C5_6  and  C6_7 
REMARK       I    between atoms: C7_10  and  N1_12 
REMARK    6  A    between atoms: N1_12  and  C9_14 
ROOT
HETATM    1  C7  UNL     1       1.495  56.250  85.241  1.00  0.00     0.249 C 
HETATM    2  O4  UNL     1       2.314  56.593  86.179  1.00  0.00    -0.270 OA
HETATM    3  N1  UNL     1       0.809  57.308  84.649  1.00  0.00    -0.350 N 
HETATM    4  C8  UNL     1      -0.182  57.075  83.633  1.00  0.00     0.153 C 
ENDROOT
BRANCH   1   5
HETATM    5  C4  UNL     1       1.413  54.820  84.951  1.00  0.00     0.223 C 
BRANCH   5   6
HETATM    6  O1  UNL     1       1.493  54.165  86.219  1.00  0.00    -0.371 OA
BRANCH   6   7
HETATM    7  C2  UNL     1       0.418  53.362  86.458  1.00  0.00     0.114 C 
HETATM    8  C1  UNL     1       0.060  53.236  87.922  1.00  0.00     0.039 C 
HETATM    9  C3  UNL     1      -0.817  53.740  85.671  1.00  0.00     0.039 C 
ENDBRANCH   6   7
ENDBRANCH   5   6
BRANCH   5  10
HETATM   10  C5  UNL     1       2.577  54.225  84.208  1.00  0.00     0.154 C 
BRANCH  10  11
HETATM   11  C6  UNL     1       2.347  53.522  82.979  1.00  0.00     0.175 C 
HETATM   12  O2  UNL     1       1.212  52.966  82.773  1.00  0.00    -0.648 OA
HETATM   13  O3  UNL     1       3.276  53.384  81.952  1.00  0.00    -0.648 OA
ENDBRANCH  10  11
ENDBRANCH   5  10
ENDBRANCH   1   5
BRANCH   3  14
HETATM   14  C9  UNL     1       1.073  58.672  85.041  1.00  0.00     0.086 C 
HETATM   15  C10 UNL     1       1.120  59.599  83.832  1.00  0.00     0.025 C 
HETATM   16  C11 UNL     1       1.656  60.914  84.290  1.00  0.00     0.002 C 
HETATM   17  C12 UNL     1       0.520  61.894  84.410  1.00  0.00     0.000 C 
HETATM   18  C13 UNL     1      -0.331  61.602  85.623  1.00  0.00     0.000 C 
HETATM   19  C14 UNL     1      -0.863  60.174  85.610  1.00  0.00     0.002 C 
HETATM   20  C15 UNL     1       0.148  59.187  86.104  1.00  0.00     0.025 C 
ENDBRANCH   3  14
TORSDOF 6
ENDMDL
MODEL 3
REMARK VINA RESULT: -6.444375530      2.371      3.850
REMARK  6 active torsions:
REMARK  status: ('A' for Active; 'I' for Inactive)
REMARK    1  A    between atoms: C2_2  and  O1_4 
REMARK    2  A    between atoms: O1_4  and  C4_5 
REMARK    3  A    between atoms: C4_5  and  C5_6 
REMARK    4  A    between atoms: C4_5  and  C7_10 
REMARK    5  A    between atoms: C5_6  and  C6_7 
REMARK       I    between atoms: C7_10  and  N1_12 
REMARK    6  A    between atoms: N1_12  and  C9_14 
ROOT
HETATM    1  C7  UNL     1      -0.427  58.701  84.675  1.00  0.00     0.249 C 
HETATM    2  O4  UNL     1      -1.597  58.495  85.184  1.00  0.00    -0.270 OA
HETATM    3  N1  UNL     1       0.046  60.003  84.807  1.00  0.00    -0.350 N 
HETATM    4  C8  UNL     1       1.306  60.398  84.236  1.00  0.00     0.153 C 
ENDROOT
BRANCH   1   5
HETATM    5  C4  UNL     1       0.210  57.547  84.042  1.00  0.00     0.223 C 
BRANCH   5   6
HETATM    6  O1  UNL     1      -0.444  56.399  84.588  1.00  0.00    -0.371 OA
BRANCH   6   7
HETATM    7  C2  UNL     1      -0.699  55.449  83.644  1.00  0.00     0.114 C 
HETATM    8  C1  UNL     1       0.046  54.151  83.863  1.00  0.00     0.039 C 
HETATM    9  C3  UNL     1      -2.170  55.155  83.451  1.00  0.00     0.039 C 
ENDBRANCH   6   7
ENDBRANCH   5   6
BRANCH   5  10
HETATM   10  C5  UNL     1       1.648  57.300  84.405  1.00  0.00     0.154 C 
BRANCH  10  11
HETATM   11  C6  UNL     1       1.967  56.729  85.681  1.00  0.00     0.175 C 
HETATM   12  O2  UNL     1       2.842  55.795  85.754  1.00  0.00    -0.648 OA
HETATM   13  O3  UNL     1       1.397  57.109  86.892  1.00  0.00    -0.648 OA
ENDBRANCH  10  11
ENDBRANCH   5  10
ENDBRANCH   1   5
BRANCH   3  14
HETATM   14  C9  UNL     1      -0.716  60.998  85.523  1.00  0.00     0.086 C 
HETATM   15  C10 UNL     1      -0.120  61.273  86.899  1.00  0.00     0.025 C 
HETATM   16  C11 UNL     1      -1.103  62.096  87.663  1.00  0.00     0.002 C 
HETATM   17  C12 UNL     1      -0.632  63.525  87.690  1.00  0.00     0.000 C 
HETATM   18  C13 UNL     1      -0.827  64.193  86.350  1.00  0.00     0.000 C 
HETATM   19  C14 UNL     1      -0.129  63.427  85.231  1.00  0.00     0.002 C 
HETATM   20  C15 UNL     1      -0.938  62.264  84.748  1.00  0.00     0.025 C 
ENDBRANCH   3  14
TORSDOF 6
ENDMDL
MODEL 4
REMARK VINA RESULT: -6.343054044      3.725      7.492
REMARK  6 active torsions:
REMARK  status: ('A' for Active; 'I' for Inactive)
REMARK    1  A    between atoms: C2_2  and  O1_4 
REMARK    2  A    between atoms: O1_4  and  C4_5 
REMARK    3  A    between atoms: C4_5  and  C5_6 
REMARK    4  A    between atoms: C4_5  and  C7_10 
REMARK    5  A    between atoms: C5_6  and  C6_7 
REMARK       I    between atoms: C7_10  and  N1_12 
REMARK    6  A    between atoms: N1_12  and  C9_14 
ROOT
HETATM    1  C7  UNL     1       0.870  60.981  84.891  1.00  0.00     0.249 C 
HETATM    2  O4  UNL     1       1.914  61.084  84.137  1.00  0.00    -0.270 OA
HETATM    3  N1  UNL     1       0.460  59.675  85.147  1.00  0.00    -0.350 N 
HETATM    4  C8  UNL     1      -0.722  59.405  85.919  1.00  0.00     0.153 C 
ENDROOT
BRANCH   1   5
HETATM    5  C4  UNL     1       0.284  62.239  85.351  1.00  0.00     0.223 C 
BRANCH   5   6
HETATM    6  O1  UNL     1       0.286  62.166  86.778  1.00  0.00    -0.371 OA
BRANCH   6   7
HETATM    7  C2  UNL     1      -0.730  62.885  87.336  1.00  0.00     0.114 C 
HETATM    8  C1  UNL     1      -1.326  62.248  88.571  1.00  0.00     0.039 C 
HETATM    9  C3  UNL     1      -0.369  64.322  87.638  1.00  0.00     0.039 C 
ENDBRANCH   6   7
ENDBRANCH   5   6
BRANCH   5  10
HETATM   10  C5  UNL     1      -1.172  62.445  85.041  1.00  0.00     0.154 C 
BRANCH  10  11
HETATM   11  C6  UNL     1      -1.580  63.598  84.291  1.00  0.00     0.175 C 
HETATM   12  O2  UNL     1      -0.816  64.625  84.248  1.00  0.00    -0.648 OA
HETATM   13  O3  UNL     1      -2.770  63.707  83.579  1.00  0.00    -0.648 OA
ENDBRANCH  10  11
ENDBRANCH   5  10
ENDBRANCH   1   5
BRANCH   3  14
HETATM   14  C9  UNL     1       1.213  58.552  84.642  1.00  0.00     0.086 C 
HETATM   15  C10 UNL     1       1.305  57.433  85.674  1.00  0.00     0.025 C 
HETATM   16  C11 UNL     1       2.308  56.444  85.183  1.00  0.00     0.002 C 
HETATM   17  C12 UNL     1       1.586  55.243  84.634  1.00  0.00     0.000 C 
HETATM   18  C13 UNL     1       0.949  55.547  83.299  1.00  0.00     0.000 C 
HETATM   19  C14 UNL     1       0.003  56.740  83.383  1.00  0.00     0.002 C 
HETATM   20  C15 UNL     1       0.730  58.047  83.314  1.00  0.00     0.025 C 
ENDBRANCH   3  14
TORSDOF 6
ENDMDL
MODEL 5
REMARK VINA RESULT: -6.336032421      1.371      1.818
REMARK  6 active torsions:
REMARK  status: ('A' for Active; 'I' for Inactive)
REMARK    1  A    between atoms: C2_2  and  O1_4 
REMARK    2  A    between atoms: O1_4  and  C4_5 
REMARK    3  A    between atoms: C4_5  and  C5_6 
REMARK    4  A    between atoms: C4_5  and  C7_10 
REMARK    5  A    between atoms: C5_6  and  C6_7 
REMARK       I    between atoms: C7_10  and  N1_12 
REMARK    6  A    between atoms: N1_12  and  C9_14 
ROOT
HETATM    1  C7  UNL     1       2.069  55.906  85.110  1.00  0.00     0.249 C 
HETATM    2  O4  UNL     1       2.978  56.403  85.883  1.00  0.00    -0.270 OA
HETATM    3  N1  UNL     1       1.152  56.830  84.618  1.00  0.00    -0.350 N 
HETATM    4  C8  UNL     1       0.048  56.415  83.795  1.00  0.00     0.153 C 
ENDROOT
BRANCH   1   5
HETATM    5  C4  UNL     1       2.143  54.465  84.878  1.00  0.00     0.223 C 
BRANCH   5   6
HETATM    6  O1  UNL     1       3.320  54.024  85.559  1.00  0.00    -0.371 OA
BRANCH   6   7
HETATM    7  C2  UNL     1       3.195  52.757  86.046  1.00  0.00     0.114 C 
HETATM    8  C1  UNL     1       4.354  52.314  86.910  1.00  0.00     0.039 C 
HETATM    9  C3  UNL     1       1.897  52.508  86.782  1.00  0.00     0.039 C 
ENDBRANCH   6   7
ENDBRANCH   5   6
BRANCH   5  10
HETATM   10  C5  UNL     1       2.410  54.033  83.463  1.00  0.00     0.154 C 
BRANCH  10  11
HETATM   11  C6  UNL     1       1.564  53.049  82.852  1.00  0.00     0.175 C 
HETATM   12  O2  UNL     1       0.376  52.872  83.300  1.00  0.00    -0.648 OA
HETATM   13  O3  UNL     1       1.925  52.241  81.778  1.00  0.00    -0.648 OA
ENDBRANCH  10  11
ENDBRANCH   5  10
ENDBRANCH   1   5
BRANCH   3  14
HETATM   14  C9  UNL     1       1.283  58.235  84.921  1.00  0.00     0.086 C 
HETATM   15  C10 UNL     1       1.252  59.083  83.654  1.00  0.00     0.025 C 
HETATM   16  C11 UNL     1       1.657  60.470  84.027  1.00  0.00     0.002 C 
HETATM   17  C12 UNL     1       0.433  61.343  84.080  1.00  0.00     0.000 C 
HETATM   18  C13 UNL     1      -0.397  61.051  85.308  1.00  0.00     0.000 C 
HETATM   19  C14 UNL     1      -0.792  59.581  85.387  1.00  0.00     0.002 C 
HETATM   20  C15 UNL     1       0.304  58.728  85.946  1.00  0.00     0.025 C 
ENDBRANCH   3  14
TORSDOF 6
ENDMDL
