MODEL 1
REMARK VINA RESULT: -7.111407828      0.000      0.000
REMARK  7 active torsions:
REMARK  status: ('A' for Active; 'I' for Inactive)
REMARK    1  A    between atoms: C2_2  and  N1_4 
REMARK       I    between atoms: N1_4  and  C4_6 
REMARK    2  A    between atoms: C4_6  and  C5_8 
REMARK    3  A    between atoms: C5_8  and  C6_9 
REMARK    4  A    between atoms: C5_8  and  O3_11 
REMARK    5  A    between atoms: O3_11  and  C7_12 
REMARK    6  A    between atoms: C7_12  and  C8_14 
REMARK    7  A    between atoms: C8_14  and  C9_15 
ROOT
HETATM    1  O3  UNL     1       1.481  59.078  84.973  1.00  0.00    -0.299 OA
ENDROOT
BRANCH   1   2
HETATM    2  C5  UNL     1       0.234  59.749  85.040  1.00  0.00     0.284 C 
BRANCH   2   3
HETATM    3  C4  UNL     1       0.416  61.220  85.001  1.00  0.00     0.254 C 
HETATM    4  N1  UNL     1      -0.650  62.107  85.265  1.00  0.00    -0.355 N 
ATOM      5  H1  UNL     1      -1.562  61.707  85.485  1.00  0.00     0.162 HD
HETATM    6  O1  UNL     1       1.544  61.723  84.726  1.00  0.00    -0.270 OA
BRANCH   4   7
HETATM    7  C2  UNL     1      -0.533  63.539  85.243  1.00  0.00     0.076 C 
HETATM    8  C1  UNL     1      -1.650  64.175  84.472  1.00  0.00     0.032 C 
HETATM    9  C3  UNL     1      -0.407  64.135  86.626  1.00  0.00     0.032 C 
ENDBRANCH   4   7
ENDBRANCH   2   3
BRANCH   2  10
HETATM   10  C6  UNL     1      -0.499  59.358  86.285  1.00  0.00     0.273 C 
HETATM   11  O2  UNL     1      -0.573  60.116  87.225  1.00  0.00    -0.304 OA
ENDBRANCH   2  10
ENDBRANCH   1   2
BRANCH   1  12
HETATM   12  C7  UNL     1       1.521  57.693  84.941  1.00  0.00     0.260 C 
HETATM   13  O4  UNL     1       2.158  57.125  85.861  1.00  0.00    -0.265 OA
BRANCH  12  14
HETATM   14  C8  UNL     1       0.869  56.888  83.908  1.00  0.00     0.115 C 
BRANCH  14  15
HETATM   15  C9  UNL     1      -0.484  56.328  84.324  1.00  0.00    -0.005 C 
HETATM   16  C10 UNL     1      -0.557  54.872  83.979  1.00  0.00     0.005 C 
HETATM   17  C11 UNL     1      -1.911  54.463  83.509  1.00  0.00     0.000 C 
HETATM   18  C12 UNL     1      -2.952  54.642  84.594  1.00  0.00     0.000 C 
HETATM   19  C13 UNL     1      -3.718  55.932  84.424  1.00  0.00     0.000 C 
HETATM   20  C14 UNL     1      -2.870  57.143  84.410  1.00  0.00     0.000 C 
HETATM   21  C15 UNL     1      -1.598  57.063  83.627  1.00  0.00     0.005 C 
ENDBRANCH  14  15
ENDBRANCH  12  14
ENDBRANCH   1  12
TORSDOF 7
ENDMDL
MODEL 2
REMARK VINA RESULT: -7.054070763      2.757      7.273
REMARK  7 active torsions:
REMARK  status: ('A' for Active; 'I' for Inactive)
REMARK    1  A    between atoms: C2_2  and  N1_4 
REMARK       I    between atoms: N1_4  and  C4_6 
REMARK    2  A    between atoms: C4_6  and  C5_8 
REMARK    3  A    between atoms: C5_8  and  C6_9 
REMARK    4  A    between atoms: C5_8  and  O3_11 
REMARK    5  A    between atoms: O3_11  and  C7_12 
REMARK    6  A    between atoms: C7_12  and  C8_14 
REMARK    7  A    between atoms: C8_14  and  C9_15 
ROOT
HETATM    1  O3  UNL     1       1.059  58.414  85.628  1.00  0.00    -0.299 OA
ENDROOT
BRANCH   1   2
HETATM    2  C5  UNL     1       0.665  57.200  85.012  1.00  0.00     0.284 C 
BRANCH   2   3
HETATM    3  C4  UNL     1       1.770  56.211  85.023  1.00  0.00     0.254 C 
HETATM    4  N1  UNL     1       1.754  55.070  84.192  1.00  0.00    -0.355 N 
ATOM      5  H1  UNL     1       0.952  54.939  83.576  1.00  0.00     0.162 HD
HETATM    6  O1  UNL     1       2.767  56.367  85.787  1.00  0.00    -0.270 OA
BRANCH   4   7
HETATM    7  C2  UNL     1       2.795  54.080  84.159  1.00  0.00     0.076 C 
HETATM    8  C1  UNL     1       2.608  53.043  85.226  1.00  0.00     0.032 C 
HETATM    9  C3  UNL     1       2.956  53.449  82.797  1.00  0.00     0.032 C 
ENDBRANCH   4   7
ENDBRANCH   2   3
BRANCH   2  10
HETATM   10  C6  UNL     1       0.221  57.453  83.605  1.00  0.00     0.273 C 
HETATM   11  O2  UNL     1       1.021  57.747  82.746  1.00  0.00    -0.304 OA
ENDBRANCH   2  10
ENDBRANCH   1   2
BRANCH   1  12
HETATM   12  C7  UNL     1       0.198  59.499  85.633  1.00  0.00     0.260 C 
HETATM   13  O4  UNL     1      -0.902  59.346  86.216  1.00  0.00    -0.265 OA
BRANCH  12  14
HETATM   14  C8  UNL     1       0.509  60.782  85.002  1.00  0.00     0.115 C 
BRANCH  14  15
HETATM   15  C9  UNL     1      -0.377  61.929  85.467  1.00  0.00    -0.005 C 
HETATM   16  C10 UNL     1      -1.100  62.517  84.294  1.00  0.00     0.005 C 
HETATM   17  C11 UNL     1      -1.236  63.999  84.391  1.00  0.00     0.000 C 
HETATM   18  C12 UNL     1      -2.075  64.401  85.586  1.00  0.00     0.000 C 
HETATM   19  C13 UNL     1      -1.215  64.801  86.761  1.00  0.00     0.000 C 
HETATM   20  C14 UNL     1      -0.271  63.754  87.205  1.00  0.00     0.000 C 
HETATM   21  C15 UNL     1       0.447  62.999  86.133  1.00  0.00     0.005 C 
ENDBRANCH  14  15
ENDBRANCH  12  14
ENDBRANCH   1  12
TORSDOF 7
ENDMDL
MODEL 3
REMARK VINA RESULT: -7.042306239      1.114      1.294
REMARK  7 active torsions:
REMARK  status: ('A' for Active; 'I' for Inactive)
REMARK    1  A    between atoms: C2_2  and  N1_4 
REMARK       I    between atoms: N1_4  and  C4_6 
REMARK    2  A    between atoms: C4_6  and  C5_8 
REMARK    3  A    between atoms: C5_8  and  C6_9 
REMARK    4  A    between atoms: C5_8  and  O3_11 
REMARK    5  A    between atoms: O3_11  and  C7_12 
REMARK    6  A    between atoms: C7_12  and  C8_14 
REMARK    7  A    between atoms: C8_14  and  C9_15 
ROOT
HETATM    1  O3  UNL     1       1.693  58.613  85.068  1.00  0.00    -0.299 OA
ENDROOT
BRANCH   1   2
HETATM    2  C5  UNL     1       0.507  59.312  84.731  1.00  0.00     0.284 C 
BRANCH   2   3
HETATM    3  C4  UNL     1       0.714  60.778  84.794  1.00  0.00     0.254 C 
HETATM    4  N1  UNL     1      -0.283  61.649  85.286  1.00  0.00    -0.355 N 
ATOM      5  H1  UNL     1      -1.162  61.239  85.601  1.00  0.00     0.162 HD
HETATM    6  O1  UNL     1       1.802  61.293  84.402  1.00  0.00    -0.270 OA
BRANCH   4   7
HETATM    7  C2  UNL     1      -0.138  63.075  85.372  1.00  0.00     0.076 C 
HETATM    8  C1  UNL     1      -1.238  63.789  84.644  1.00  0.00     0.032 C 
HETATM    9  C3  UNL     1      -0.010  63.564  86.796  1.00  0.00     0.032 C 
ENDBRANCH   4   7
ENDBRANCH   2   3
BRANCH   2  10
HETATM   10  C6  UNL     1      -0.608  58.913  85.647  1.00  0.00     0.273 C 
HETATM   11  O2  UNL     1      -1.706  58.654  85.210  1.00  0.00    -0.304 OA
ENDBRANCH   2  10
ENDBRANCH   1   2
BRANCH   1  12
HETATM   12  C7  UNL     1       1.677  57.231  85.172  1.00  0.00     0.260 C 
HETATM   13  O4  UNL     1       2.073  56.741  86.256  1.00  0.00    -0.265 OA
BRANCH  12  14
HETATM   14  C8  UNL     1       1.230  56.344  84.098  1.00  0.00     0.115 C 
BRANCH  14  15
HETATM   15  C9  UNL     1       0.047  55.464  84.476  1.00  0.00    -0.005 C 
HETATM   16  C10 UNL     1       0.489  54.037  84.575  1.00  0.00     0.005 C 
HETATM   17  C11 UNL     1      -0.540  53.083  84.070  1.00  0.00     0.000 C 
HETATM   18  C12 UNL     1      -1.804  53.141  84.902  1.00  0.00     0.000 C 
HETATM   19  C13 UNL     1      -2.859  54.005  84.254  1.00  0.00     0.000 C 
HETATM   20  C14 UNL     1      -2.428  55.395  83.994  1.00  0.00     0.000 C 
HETATM   21  C15 UNL     1      -1.048  55.579  83.449  1.00  0.00     0.005 C 
ENDBRANCH  14  15
ENDBRANCH  12  14
ENDBRANCH   1  12
TORSDOF 7
ENDMDL
MODEL 4
REMARK VINA RESULT: -7.020705315      1.796      6.568
REMARK  7 active torsions:
REMARK  status: ('A' for Active; 'I' for Inactive)
REMARK    1  A    between atoms: C2_2  and  N1_4 
REMARK       I    between atoms: N1_4  and  C4_6 
REMARK    2  A    between atoms: C4_6  and  C5_8 
REMARK    3  A    between atoms: C5_8  and  C6_9 
REMARK    4  A    between atoms: C5_8  and  O3_11 
REMARK    5  A    between atoms: O3_11  and  C7_12 
REMARK    6  A    between atoms: C7_12  and  C8_14 
REMARK    7  A    between atoms: C8_14  and  C9_15 
ROOT
HETATM    1  O3  UNL     1       0.964  58.349  85.866  1.00  0.00    -0.299 OA
ENDROOT
BRANCH   1   2
HETATM    2  C5  UNL     1       1.230  57.544  84.730  1.00  0.00     0.284 C 
BRANCH   2   3
HETATM    3  C4  UNL     1      -0.025  57.169  84.035  1.00  0.00     0.254 C 
HETATM    4  N1  UNL     1      -1.028  56.407  84.672  1.00  0.00    -0.355 N 
ATOM      5  H1  UNL     1      -0.866  56.115  85.636  1.00  0.00     0.162 HD
HETATM    6  O1  UNL     1      -0.230  57.526  82.838  1.00  0.00    -0.270 OA
BRANCH   4   7
HETATM    7  C2  UNL     1      -2.262  56.015  84.050  1.00  0.00     0.076 C 
HETATM    8  C1  UNL     1      -2.241  54.576  83.633  1.00  0.00     0.032 C 
HETATM    9  C3  UNL     1      -3.469  56.325  84.904  1.00  0.00     0.032 C 
ENDBRANCH   4   7
ENDBRANCH   2   3
BRANCH   2  10
HETATM   10  C6  UNL     1       1.980  56.312  85.131  1.00  0.00     0.273 C 
HETATM   11  O2  UNL     1       2.901  56.376  85.913  1.00  0.00    -0.304 OA
ENDBRANCH   2  10
ENDBRANCH   1   2
BRANCH   1  12
HETATM   12  C7  UNL     1       0.122  59.444  85.758  1.00  0.00     0.260 C 
HETATM   13  O4  UNL     1      -1.048  59.301  86.186  1.00  0.00    -0.265 OA
BRANCH  12  14
HETATM   14  C8  UNL     1       0.530  60.724  85.181  1.00  0.00     0.115 C 
BRANCH  14  15
HETATM   15  C9  UNL     1      -0.377  61.888  85.556  1.00  0.00    -0.005 C 
HETATM   16  C10 UNL     1      -1.013  62.452  84.322  1.00  0.00     0.005 C 
HETATM   17  C11 UNL     1      -1.144  63.936  84.375  1.00  0.00     0.000 C 
HETATM   18  C12 UNL     1      -2.060  64.371  85.499  1.00  0.00     0.000 C 
HETATM   19  C13 UNL     1      -1.279  64.795  86.721  1.00  0.00     0.000 C 
HETATM   20  C14 UNL     1      -0.376  63.753  87.254  1.00  0.00     0.000 C 
HETATM   21  C15 UNL     1       0.408  62.968  86.251  1.00  0.00     0.005 C 
ENDBRANCH  14  15
ENDBRANCH  12  14
ENDBRANCH   1  12
TORSDOF 7
ENDMDL
MODEL 5
REMARK VINA RESULT: -7.020271232      1.890      6.512
REMARK  7 active torsions:
REMARK  status: ('A' for Active; 'I' for Inactive)
REMARK    1  A    between atoms: C2_2  and  N1_4 
REMARK       I    between atoms: N1_4  and  C4_6 
REMARK    2  A    between atoms: C4_6  and  C5_8 
REMARK    3  A    between atoms: C5_8  and  C6_9 
REMARK    4  A    between atoms: C5_8  and  O3_11 
REMARK    5  A    between atoms: O3_11  and  C7_12 
REMARK    6  A    between atoms: C7_12  and  C8_14 
REMARK    7  A    between atoms: C8_14  and  C9_15 
ROOT
HETATM    1  O3  UNL     1       1.109  58.701  85.306  1.00  0.00    -0.299 OA
ENDROOT
BRANCH   1   2
HETATM    2  C5  UNL     1       1.540  57.682  84.419  1.00  0.00     0.284 C 
BRANCH   2   3
HETATM    3  C4  UNL     1       0.401  56.845  83.972  1.00  0.00     0.254 C 
HETATM    4  N1  UNL     1      -0.558  56.348  84.881  1.00  0.00    -0.355 N 
ATOM      5  H1  UNL     1      -0.446  56.581  85.868  1.00  0.00     0.162 HD
HETATM    6  O1  UNL     1       0.258  56.551  82.749  1.00  0.00    -0.270 OA
BRANCH   4   7
HETATM    7  C2  UNL     1      -1.682  55.535  84.507  1.00  0.00     0.076 C 
HETATM    8  C1  UNL     1      -1.735  54.263  85.298  1.00  0.00     0.032 C 
HETATM    9  C3  UNL     1      -2.992  56.284  84.575  1.00  0.00     0.032 C 
ENDBRANCH   4   7
ENDBRANCH   2   3
BRANCH   2  10
HETATM   10  C6  UNL     1       2.576  56.826  85.078  1.00  0.00     0.273 C 
HETATM   11  O2  UNL     1       2.414  56.414  86.204  1.00  0.00    -0.304 OA
ENDBRANCH   2  10
ENDBRANCH   1   2
BRANCH   1  12
HETATM   12  C7  UNL     1       0.254  59.693  84.856  1.00  0.00     0.260 C 
HETATM   13  O4  UNL     1      -0.976  59.486  84.995  1.00  0.00    -0.265 OA
BRANCH  12  14
HETATM   14  C8  UNL     1       0.712  60.940  84.242  1.00  0.00     0.115 C 
BRANCH  14  15
HETATM   15  C9  UNL     1       0.274  62.193  84.988  1.00  0.00    -0.005 C 
HETATM   16  C10 UNL     1       0.251  61.923  86.461  1.00  0.00     0.005 C 
HETATM   17  C11 UNL     1      -0.881  62.606  87.150  1.00  0.00     0.000 C 
HETATM   18  C12 UNL     1      -0.763  64.112  87.049  1.00  0.00     0.000 C 
HETATM   19  C13 UNL     1      -1.625  64.665  85.939  1.00  0.00     0.000 C 
HETATM   20  C14 UNL     1      -1.333  64.099  84.605  1.00  0.00     0.000 C 
HETATM   21  C15 UNL     1      -1.097  62.624  84.538  1.00  0.00     0.005 C 
ENDBRANCH  14  15
ENDBRANCH  12  14
ENDBRANCH   1  12
TORSDOF 7
ENDMDL
