MODEL 1
REMARK VINA RESULT: -6.860293154      0.000      0.000
REMARK  7 active torsions:
REMARK  status: ('A' for Active; 'I' for Inactive)
REMARK    1  A    between atoms: C2_2  and  O1_3 
REMARK    2  A    between atoms: O1_3  and  C3_4 
REMARK    3  A    between atoms: C3_4  and  C4_6 
REMARK    4  A    between atoms: C4_6  and  C5_7 
REMARK    5  A    between atoms: C5_7  and  N1_8 
REMARK    6  A    between atoms: N1_8  and  C6_11 
REMARK    7  A    between atoms: N2_18  and  C13_19 
ROOT
HETATM    1  C4  UNL     1       0.226  58.764  84.776  1.00  0.00     0.076 C 
HETATM    2  C10 UNL     1       0.867  59.665  83.777  1.00  0.00     0.027 C 
HETATM    3  C11 UNL     1       1.739  60.727  84.407  1.00  0.00     0.046 C 
HETATM    4  C12 UNL     1       0.870  61.951  84.611  1.00  0.00     0.068 C 
HETATM    5  N2  UNL     1       0.096  61.848  85.759  1.00  0.00    -0.355 N 
HETATM    6  C15 UNL     1      -0.746  60.759  85.957  1.00  0.00     0.069 C 
HETATM    7  C16 UNL     1      -0.092  59.421  86.083  1.00  0.00     0.066 C 
ENDROOT
BRANCH   1   8
HETATM    8  C3  UNL     1      -0.920  58.078  84.156  1.00  0.00     0.269 C 
HETATM    9  O2  UNL     1      -0.897  57.579  83.002  1.00  0.00    -0.264 OA
BRANCH   8  10
HETATM   10  O1  UNL     1      -2.100  57.967  84.869  1.00  0.00    -0.321 OA
BRANCH  10  11
HETATM   11  C2  UNL     1      -3.270  57.355  84.363  1.00  0.00     0.174 C 
HETATM   12  C1  UNL     1      -3.594  56.077  85.094  1.00  0.00     0.034 C 
ENDBRANCH  10  11
ENDBRANCH   8  10
ENDBRANCH   1   8
BRANCH   1  13
HETATM   13  C5  UNL     1       1.244  57.658  85.117  1.00  0.00     0.252 C 
BRANCH  13  14
HETATM   14  N1  UNL     1       0.569  56.653  85.907  1.00  0.00    -0.070 N 
ATOM     15  H12 UNL     1       0.723  56.808  86.904  1.00  0.00     0.277 HD
ATOM     16  H11 UNL     1      -0.442  56.782  85.873  1.00  0.00     0.277 HD
BRANCH  14  17
HETATM   17  C6  UNL     1       0.926  55.315  85.538  1.00  0.00     0.186 C 
HETATM   18  C7  UNL     1      -0.263  54.409  85.286  1.00  0.00     0.033 C 
HETATM   19  C8  UNL     1       0.145  54.297  83.856  1.00  0.00     0.004 C 
HETATM   20  C9  UNL     1       1.389  55.078  84.145  1.00  0.00     0.033 C 
ENDBRANCH  14  17
ENDBRANCH  13  14
ENDBRANCH   1  13
BRANCH   5  21
HETATM   21  C13 UNL     1       0.066  62.921  86.671  1.00  0.00     0.064 C 
HETATM   22  C14 UNL     1      -1.032  63.883  86.269  1.00  0.00     0.055 C 
ENDBRANCH   5  21
TORSDOF 7
ENDMDL
MODEL 2
REMARK VINA RESULT: -6.653657115      0.920      1.116
REMARK  7 active torsions:
REMARK  status: ('A' for Active; 'I' for Inactive)
REMARK    1  A    between atoms: C2_2  and  O1_3 
REMARK    2  A    between atoms: O1_3  and  C3_4 
REMARK    3  A    between atoms: C3_4  and  C4_6 
REMARK    4  A    between atoms: C4_6  and  C5_7 
REMARK    5  A    between atoms: C5_7  and  N1_8 
REMARK    6  A    between atoms: N1_8  and  C6_11 
REMARK    7  A    between atoms: N2_18  and  C13_19 
ROOT
HETATM    1  C4  UNL     1       0.520  58.425  84.606  1.00  0.00     0.076 C 
HETATM    2  C10 UNL     1       0.966  59.471  83.643  1.00  0.00     0.027 C 
HETATM    3  C11 UNL     1       1.679  60.627  84.308  1.00  0.00     0.046 C 
HETATM    4  C12 UNL     1       0.631  61.679  84.611  1.00  0.00     0.068 C 
HETATM    5  N2  UNL     1      -0.069  61.389  85.775  1.00  0.00    -0.355 N 
HETATM    6  C15 UNL     1      -0.715  60.166  85.933  1.00  0.00     0.069 C 
HETATM    7  C16 UNL     1       0.152  58.949  85.959  1.00  0.00     0.066 C 
ENDROOT
BRANCH   1   8
HETATM    8  C3  UNL     1      -0.524  57.594  83.982  1.00  0.00     0.269 C 
HETATM    9  O2  UNL     1      -0.830  57.653  82.764  1.00  0.00    -0.264 OA
BRANCH   8  10
HETATM   10  O1  UNL     1      -1.219  56.691  84.766  1.00  0.00    -0.321 OA
BRANCH  10  11
HETATM   11  C2  UNL     1      -2.347  55.967  84.317  1.00  0.00     0.174 C 
HETATM   12  C1  UNL     1      -3.637  56.603  84.769  1.00  0.00     0.034 C 
ENDBRANCH  10  11
ENDBRANCH   8  10
ENDBRANCH   1   8
BRANCH   1  13
HETATM   13  C5  UNL     1       1.716  57.484  84.849  1.00  0.00     0.252 C 
BRANCH  13  14
HETATM   14  N1  UNL     1       1.704  56.465  83.824  1.00  0.00    -0.070 N 
ATOM     15  H12 UNL     1       0.806  56.445  83.342  1.00  0.00     0.277 HD
ATOM     16  H11 UNL     1       2.307  56.727  83.044  1.00  0.00     0.277 HD
BRANCH  14  17
HETATM   17  C6  UNL     1       2.047  55.165  84.321  1.00  0.00     0.186 C 
HETATM   18  C7  UNL     1       1.676  54.946  85.775  1.00  0.00     0.033 C 
HETATM   19  C8  UNL     1       0.705  53.896  85.354  1.00  0.00     0.004 C 
HETATM   20  C9  UNL     1       1.175  54.022  83.938  1.00  0.00     0.033 C 
ENDBRANCH  14  17
ENDBRANCH  13  14
ENDBRANCH   1  13
BRANCH   5  21
HETATM   21  C13 UNL     1      -0.237  62.391  86.749  1.00  0.00     0.064 C 
HETATM   22  C14 UNL     1      -0.734  63.654  86.081  1.00  0.00     0.055 C 
ENDBRANCH   5  21
TORSDOF 7
ENDMDL
MODEL 3
REMARK VINA RESULT: -6.019516202      1.884      3.645
REMARK  7 active torsions:
REMARK  status: ('A' for Active; 'I' for Inactive)
REMARK    1  A    between atoms: C2_2  and  O1_3 
REMARK    2  A    between atoms: O1_3  and  C3_4 
REMARK    3  A    between atoms: C3_4  and  C4_6 
REMARK    4  A    between atoms: C4_6  and  C5_7 
REMARK    5  A    between atoms: C5_7  and  N1_8 
REMARK    6  A    between atoms: N1_8  and  C6_11 
REMARK    7  A    between atoms: N2_18  and  C13_19 
ROOT
HETATM    1  C4  UNL     1       0.627  57.739  84.470  1.00  0.00     0.076 C 
HETATM    2  C10 UNL     1      -0.150  58.051  85.703  1.00  0.00     0.027 C 
HETATM    3  C11 UNL     1      -1.009  59.289  85.567  1.00  0.00     0.046 C 
HETATM    4  C12 UNL     1      -0.185  60.457  86.069  1.00  0.00     0.068 C 
HETATM    5  N2  UNL     1       0.700  60.916  85.102  1.00  0.00    -0.355 N 
HETATM    6  C15 UNL     1       1.610  60.053  84.500  1.00  0.00     0.069 C 
HETATM    7  C16 UNL     1       1.037  58.942  83.679  1.00  0.00     0.066 C 
ENDROOT
BRANCH   1   8
HETATM    8  C3  UNL     1       1.741  56.836  84.806  1.00  0.00     0.269 C 
HETATM    9  O2  UNL     1       2.425  56.928  85.857  1.00  0.00    -0.264 OA
BRANCH   8  10
HETATM   10  O1  UNL     1       2.069  55.821  83.925  1.00  0.00    -0.321 OA
BRANCH  10  11
HETATM   11  C2  UNL     1       2.535  54.549  84.330  1.00  0.00     0.174 C 
HETATM   12  C1  UNL     1       2.602  53.584  83.174  1.00  0.00     0.034 C 
ENDBRANCH  10  11
ENDBRANCH   8  10
ENDBRANCH   1   8
BRANCH   1  13
HETATM   13  C5  UNL     1      -0.298  56.937  83.534  1.00  0.00     0.252 C 
BRANCH  13  14
HETATM   14  N1  UNL     1      -0.906  55.875  84.303  1.00  0.00    -0.070 N 
ATOM     15  H12 UNL     1      -0.360  55.016  84.233  1.00  0.00     0.277 HD
ATOM     16  H11 UNL     1      -0.813  56.051  85.303  1.00  0.00     0.277 HD
BRANCH  14  17
HETATM   17  C6  UNL     1      -2.275  55.640  83.950  1.00  0.00     0.186 C 
HETATM   18  C7  UNL     1      -2.980  54.645  84.852  1.00  0.00     0.033 C 
HETATM   19  C8  UNL     1      -3.887  55.732  85.317  1.00  0.00     0.004 C 
HETATM   20  C9  UNL     1      -3.277  56.673  84.325  1.00  0.00     0.033 C 
ENDBRANCH  14  17
ENDBRANCH  13  14
ENDBRANCH   1  13
BRANCH   5  21
HETATM   21  C13 UNL     1       0.766  62.295  84.823  1.00  0.00     0.064 C 
HETATM   22  C14 UNL     1      -0.093  63.044  85.819  1.00  0.00     0.055 C 
ENDBRANCH   5  21
TORSDOF 7
ENDMDL
MODEL 4
REMARK VINA RESULT: -6.010883275      2.149      3.812
REMARK  7 active torsions:
REMARK  status: ('A' for Active; 'I' for Inactive)
REMARK    1  A    between atoms: C2_2  and  O1_3 
REMARK    2  A    between atoms: O1_3  and  C3_4 
REMARK    3  A    between atoms: C3_4  and  C4_6 
REMARK    4  A    between atoms: C4_6  and  C5_7 
REMARK    5  A    between atoms: C5_7  and  N1_8 
REMARK    6  A    between atoms: N1_8  and  C6_11 
REMARK    7  A    between atoms: N2_18  and  C13_19 
ROOT
HETATM    1  C4  UNL     1       0.766  57.456  84.545  1.00  0.00     0.076 C 
HETATM    2  C10 UNL     1      -0.344  57.781  85.484  1.00  0.00     0.027 C 
HETATM    3  C11 UNL     1      -1.227  58.907  84.994  1.00  0.00     0.046 C 
HETATM    4  C12 UNL     1      -0.670  60.191  85.572  1.00  0.00     0.068 C 
HETATM    5  N2  UNL     1       0.409  60.663  84.835  1.00  0.00    -0.355 N 
HETATM    6  C15 UNL     1       1.516  59.855  84.594  1.00  0.00     0.069 C 
HETATM    7  C16 UNL     1       1.283  58.629  83.771  1.00  0.00     0.066 C 
ENDROOT
BRANCH   1   8
HETATM    8  C3  UNL     1       1.811  56.704  85.261  1.00  0.00     0.269 C 
HETATM    9  O2  UNL     1       1.870  56.606  86.513  1.00  0.00    -0.264 OA
BRANCH   8  10
HETATM   10  O1  UNL     1       2.795  56.063  84.529  1.00  0.00    -0.321 OA
BRANCH  10  11
HETATM   11  C2  UNL     1       3.811  55.267  85.107  1.00  0.00     0.174 C 
HETATM   12  C1  UNL     1       5.116  56.015  85.211  1.00  0.00     0.034 C 
ENDBRANCH  10  11
ENDBRANCH   8  10
ENDBRANCH   1   8
BRANCH   1  13
HETATM   13  C5  UNL     1       0.204  56.489  83.485  1.00  0.00     0.252 C 
BRANCH  13  14
HETATM   14  N1  UNL     1       0.183  55.160  84.053  1.00  0.00    -0.070 N 
ATOM     15  H12 UNL     1       0.936  54.588  83.670  1.00  0.00     0.277 HD
ATOM     16  H11 UNL     1       0.468  55.179  85.032  1.00  0.00     0.277 HD
BRANCH  14  17
HETATM   17  C6  UNL     1      -1.083  54.505  83.901  1.00  0.00     0.186 C 
HETATM   18  C7  UNL     1      -1.736  54.118  85.214  1.00  0.00     0.033 C 
HETATM   19  C8  UNL     1      -2.845  55.072  84.926  1.00  0.00     0.004 C 
HETATM   20  C9  UNL     1      -2.266  55.345  83.572  1.00  0.00     0.033 C 
ENDBRANCH  14  17
ENDBRANCH  13  14
ENDBRANCH   1  13
BRANCH   5  21
HETATM   21  C13 UNL     1       0.440  62.014  84.441  1.00  0.00     0.064 C 
HETATM   22  C14 UNL     1       0.134  62.888  85.639  1.00  0.00     0.055 C 
ENDBRANCH   5  21
TORSDOF 7
ENDMDL
MODEL 5
REMARK VINA RESULT: -5.972457150      1.410      5.766
REMARK  7 active torsions:
REMARK  status: ('A' for Active; 'I' for Inactive)
REMARK    1  A    between atoms: C2_2  and  O1_3 
REMARK    2  A    between atoms: O1_3  and  C3_4 
REMARK    3  A    between atoms: C3_4  and  C4_6 
REMARK    4  A    between atoms: C4_6  and  C5_7 
REMARK    5  A    between atoms: C5_7  and  N1_8 
REMARK    6  A    between atoms: N1_8  and  C6_11 
REMARK    7  A    between atoms: N2_18  and  C13_19 
ROOT
HETATM    1  C4  UNL     1       0.292  58.090  84.343  1.00  0.00     0.076 C 
HETATM    2  C10 UNL     1       1.061  57.606  85.524  1.00  0.00     0.027 C 
HETATM    3  C11 UNL     1       2.335  56.885  85.150  1.00  0.00     0.046 C 
HETATM    4  C12 UNL     1       1.999  55.411  85.054  1.00  0.00     0.068 C 
HETATM    5  N2  UNL     1       1.414  55.094  83.835  1.00  0.00    -0.355 N 
HETATM    6  C15 UNL     1       0.276  55.762  83.395  1.00  0.00     0.069 C 
HETATM    7  C16 UNL     1       0.421  57.226  83.128  1.00  0.00     0.066 C 
ENDROOT
BRANCH   1   8
HETATM    8  C3  UNL     1      -1.101  58.361  84.739  1.00  0.00     0.269 C 
HETATM    9  O2  UNL     1      -1.426  58.918  85.819  1.00  0.00    -0.264 OA
BRANCH   8  10
HETATM   10  O1  UNL     1      -2.125  57.987  83.888  1.00  0.00    -0.321 OA
BRANCH  10  11
HETATM   11  C2  UNL     1      -3.344  57.420  84.326  1.00  0.00     0.174 C 
HETATM   12  C1  UNL     1      -3.167  55.991  84.771  1.00  0.00     0.034 C 
ENDBRANCH  10  11
ENDBRANCH   8  10
ENDBRANCH   1   8
BRANCH   1  13
HETATM   13  C5  UNL     1       0.885  59.453  83.934  1.00  0.00     0.252 C 
BRANCH  13  14
HETATM   14  N1  UNL     1       0.906  60.304  85.102  1.00  0.00    -0.070 N 
ATOM     15  H12 UNL     1       0.220  59.994  85.791  1.00  0.00     0.277 HD
ATOM     16  H11 UNL     1       1.760  60.161  85.641  1.00  0.00     0.277 HD
BRANCH  14  17
HETATM   17  C6  UNL     1       0.724  61.691  84.789  1.00  0.00     0.186 C 
HETATM   18  C7  UNL     1      -0.674  62.036  84.316  1.00  0.00     0.033 C 
HETATM   19  C8  UNL     1      -0.861  62.879  85.531  1.00  0.00     0.004 C 
HETATM   20  C9  UNL     1       0.566  62.644  85.919  1.00  0.00     0.033 C 
ENDBRANCH  14  17
ENDBRANCH  13  14
ENDBRANCH   1  13
BRANCH   5  21
HETATM   21  C13 UNL     1       1.900  53.996  83.100  1.00  0.00     0.064 C 
HETATM   22  C14 UNL     1       2.891  53.229  83.948  1.00  0.00     0.055 C 
ENDBRANCH   5  21
TORSDOF 7
ENDMDL
