MODEL 1
REMARK VINA RESULT: -7.760363061      0.000      0.000
REMARK  7 active torsions:
REMARK  status: ('A' for Active; 'I' for Inactive)
REMARK    1  A    between atoms: C4_4  and  C5_5 
REMARK    2  A    between atoms: C5_5  and  N1_6 
REMARK    3  A    between atoms: N1_6  and  C6_7 
REMARK    4  A    between atoms: N1_6  and  C9_12 
REMARK    5  A    between atoms: C6_7  and  C7_8 
REMARK    6  A    between atoms: C7_8  and  O1_10 
REMARK    7  A    between atoms: C9_12  and  C10_13 
ROOT
HETATM    1  N1  UNL     1       1.026  57.221  83.917  1.00  0.00    -0.367 N 
ENDROOT
BRANCH   1   2
HETATM    2  C5  UNL     1       0.018  56.377  83.442  1.00  0.00     0.090 C 
BRANCH   2   3
HETATM    3  C4  UNL     1      -1.344  56.885  83.636  1.00  0.00     0.019 C 
HETATM    4  C2  UNL     1      -2.255  56.230  84.305  1.00  0.00    -0.086 C 
HETATM    5  C1  UNL     1      -3.645  56.770  84.493  1.00  0.00     0.043 C 
HETATM    6  C3  UNL     1      -1.931  54.908  84.890  1.00  0.00     0.043 C 
ENDBRANCH   2   3
ENDBRANCH   1   2
BRANCH   1   7
HETATM    7  C6  UNL     1       1.751  56.997  85.081  1.00  0.00     0.094 C 
BRANCH   7   8
HETATM    8  C7  UNL     1       3.001  56.207  84.909  1.00  0.00     0.152 C 
HETATM    9  C8  UNL     1       3.039  54.851  85.501  1.00  0.00     0.045 C 
BRANCH   8  10
HETATM   10  O1  UNL     1       4.091  56.962  85.404  1.00  0.00    -0.391 OA
ATOM     11  H1  UNL     1       4.794  56.368  85.638  1.00  0.00     0.210 HD
ENDBRANCH   8  10
ENDBRANCH   7   8
ENDBRANCH   1   7
BRANCH   1  12
HETATM   12  C9  UNL     1       0.860  58.618  83.584  1.00  0.00     0.132 C 
BRANCH  12  13
HETATM   13  C10 UNL     1       1.055  59.587  84.686  1.00  0.00     0.009 C 
HETATM   14  C11 UNL     1       1.754  60.808  84.067  1.00  0.00     0.011 C 
HETATM   15  C12 UNL     1       1.237  62.004  84.800  1.00  0.00     0.069 C 
HETATM   16  C13 UNL     1      -0.038  61.610  85.480  1.00  0.00     0.164 C 
HETATM   17  C14 UNL     1      -0.237  60.162  85.157  1.00  0.00     0.074 C 
HETATM   18  O2  UNL     1      -0.049  61.879  86.835  1.00  0.00    -0.353 OA
HETATM   19  O3  UNL     1      -1.117  62.397  85.035  1.00  0.00    -0.353 OA
HETATM   20  C15 UNL     1      -0.078  63.281  86.854  1.00  0.00     0.197 C 
HETATM   21  C16 UNL     1      -0.852  63.636  85.613  1.00  0.00     0.197 C 
ENDBRANCH  12  13
ENDBRANCH   1  12
TORSDOF 7
ENDMDL
MODEL 2
REMARK VINA RESULT: -7.583124926      1.034      1.236
REMARK  7 active torsions:
REMARK  status: ('A' for Active; 'I' for Inactive)
REMARK    1  A    between atoms: C4_4  and  C5_5 
REMARK    2  A    between atoms: C5_5  and  N1_6 
REMARK    3  A    between atoms: N1_6  and  C6_7 
REMARK    4  A    between atoms: N1_6  and  C9_12 
REMARK    5  A    between atoms: C6_7  and  C7_8 
REMARK    6  A    between atoms: C7_8  and  O1_10 
REMARK    7  A    between atoms: C9_12  and  C10_13 
ROOT
HETATM    1  N1  UNL     1       1.126  57.073  83.991  1.00  0.00    -0.367 N 
ENDROOT
BRANCH   1   2
HETATM    2  C5  UNL     1       0.647  56.032  83.189  1.00  0.00     0.090 C 
BRANCH   2   3
HETATM    3  C4  UNL     1      -0.654  55.495  83.598  1.00  0.00     0.019 C 
HETATM    4  C2  UNL     1      -0.817  54.263  84.000  1.00  0.00    -0.086 C 
HETATM    5  C1  UNL     1      -2.160  53.733  84.417  1.00  0.00     0.043 C 
HETATM    6  C3  UNL     1       0.343  53.341  84.040  1.00  0.00     0.043 C 
ENDBRANCH   2   3
ENDBRANCH   1   2
BRANCH   1   7
HETATM    7  C6  UNL     1       1.871  56.889  85.149  1.00  0.00     0.094 C 
BRANCH   7   8
HETATM    8  C7  UNL     1       3.152  56.153  84.970  1.00  0.00     0.152 C 
HETATM    9  C8  UNL     1       3.273  54.826  85.614  1.00  0.00     0.045 C 
BRANCH   8  10
HETATM   10  O1  UNL     1       4.218  56.978  85.401  1.00  0.00    -0.391 OA
ATOM     11  H1  UNL     1       5.034  56.625  85.066  1.00  0.00     0.210 HD
ENDBRANCH   8  10
ENDBRANCH   7   8
ENDBRANCH   1   7
BRANCH   1  12
HETATM   12  C9  UNL     1       0.307  58.264  83.997  1.00  0.00     0.132 C 
BRANCH  12  13
HETATM   13  C10 UNL     1       0.711  59.338  84.931  1.00  0.00     0.009 C 
HETATM   14  C11 UNL     1       1.465  60.379  84.088  1.00  0.00     0.011 C 
HETATM   15  C12 UNL     1       1.151  61.713  84.689  1.00  0.00     0.069 C 
HETATM   16  C13 UNL     1      -0.082  61.559  85.526  1.00  0.00     0.164 C 
HETATM   17  C14 UNL     1      -0.459  60.114  85.428  1.00  0.00     0.074 C 
HETATM   18  O2  UNL     1       0.075  62.001  86.826  1.00  0.00    -0.353 OA
HETATM   19  O3  UNL     1      -1.114  62.402  85.072  1.00  0.00    -0.353 OA
HETATM   20  C15 UNL     1       0.191  63.388  86.651  1.00  0.00     0.197 C 
HETATM   21  C16 UNL     1      -0.666  63.666  85.445  1.00  0.00     0.197 C 
ENDBRANCH  12  13
ENDBRANCH   1  12
TORSDOF 7
ENDMDL
MODEL 3
REMARK VINA RESULT: -7.442953503      0.842      1.642
REMARK  7 active torsions:
REMARK  status: ('A' for Active; 'I' for Inactive)
REMARK    1  A    between atoms: C4_4  and  C5_5 
REMARK    2  A    between atoms: C5_5  and  N1_6 
REMARK    3  A    between atoms: N1_6  and  C6_7 
REMARK    4  A    between atoms: N1_6  and  C9_12 
REMARK    5  A    between atoms: C6_7  and  C7_8 
REMARK    6  A    between atoms: C7_8  and  O1_10 
REMARK    7  A    between atoms: C9_12  and  C10_13 
ROOT
HETATM    1  N1  UNL     1       1.211  57.695  84.270  1.00  0.00    -0.367 N 
ENDROOT
BRANCH   1   2
HETATM    2  C5  UNL     1       0.129  57.568  83.392  1.00  0.00     0.090 C 
BRANCH   2   3
HETATM    3  C4  UNL     1      -0.643  56.332  83.552  1.00  0.00     0.019 C 
HETATM    4  C2  UNL     1      -1.893  56.322  83.930  1.00  0.00    -0.086 C 
HETATM    5  C1  UNL     1      -2.667  55.043  84.086  1.00  0.00     0.043 C 
HETATM    6  C3  UNL     1      -2.582  57.599  84.233  1.00  0.00     0.043 C 
ENDBRANCH   2   3
ENDBRANCH   1   2
BRANCH   1   7
HETATM    7  C6  UNL     1       1.575  56.737  85.207  1.00  0.00     0.094 C 
BRANCH   7   8
HETATM    8  C7  UNL     1       2.875  56.058  84.951  1.00  0.00     0.152 C 
HETATM    9  C8  UNL     1       3.068  54.710  85.532  1.00  0.00     0.045 C 
BRANCH   8  10
HETATM   10  O1  UNL     1       3.925  56.904  85.378  1.00  0.00    -0.391 OA
ATOM     11  H1  UNL     1       4.549  56.391  85.879  1.00  0.00     0.210 HD
ENDBRANCH   8  10
ENDBRANCH   7   8
ENDBRANCH   1   7
BRANCH   1  12
HETATM   12  C9  UNL     1       1.526  59.052  84.658  1.00  0.00     0.132 C 
BRANCH  12  13
HETATM   13  C10 UNL     1       0.397  60.008  84.685  1.00  0.00     0.009 C 
HETATM   14  C11 UNL     1      -0.260  59.860  86.067  1.00  0.00     0.011 C 
HETATM   15  C12 UNL     1      -0.750  61.221  86.447  1.00  0.00     0.069 C 
HETATM   16  C13 UNL     1      -0.026  62.222  85.600  1.00  0.00     0.164 C 
HETATM   17  C14 UNL     1       0.866  61.423  84.704  1.00  0.00     0.074 C 
HETATM   18  O2  UNL     1      -0.868  63.080  84.918  1.00  0.00    -0.353 OA
HETATM   19  O3  UNL     1       0.704  63.127  86.393  1.00  0.00    -0.353 OA
HETATM   20  C15 UNL     1      -1.407  63.849  85.959  1.00  0.00     0.197 C 
HETATM   21  C16 UNL     1      -0.294  63.905  86.972  1.00  0.00     0.197 C 
ENDBRANCH  12  13
ENDBRANCH   1  12
TORSDOF 7
ENDMDL
MODEL 4
REMARK VINA RESULT: -7.275670568      1.505      3.548
REMARK  7 active torsions:
REMARK  status: ('A' for Active; 'I' for Inactive)
REMARK    1  A    between atoms: C4_4  and  C5_5 
REMARK    2  A    between atoms: C5_5  and  N1_6 
REMARK    3  A    between atoms: N1_6  and  C6_7 
REMARK    4  A    between atoms: N1_6  and  C9_12 
REMARK    5  A    between atoms: C6_7  and  C7_8 
REMARK    6  A    between atoms: C7_8  and  O1_10 
REMARK    7  A    between atoms: C9_12  and  C10_13 
ROOT
HETATM    1  N1  UNL     1       0.988  57.210  84.213  1.00  0.00    -0.367 N 
ENDROOT
BRANCH   1   2
HETATM    2  C5  UNL     1       1.975  56.997  85.181  1.00  0.00     0.090 C 
BRANCH   2   3
HETATM    3  C4  UNL     1       2.255  55.586  85.466  1.00  0.00     0.019 C 
HETATM    4  C2  UNL     1       3.462  55.089  85.465  1.00  0.00    -0.086 C 
HETATM    5  C1  UNL     1       3.727  53.640  85.761  1.00  0.00     0.043 C 
HETATM    6  C3  UNL     1       4.618  55.962  85.150  1.00  0.00     0.043 C 
ENDBRANCH   2   3
ENDBRANCH   1   2
BRANCH   1   7
HETATM    7  C6  UNL     1       0.615  56.274  83.257  1.00  0.00     0.094 C 
BRANCH   7   8
HETATM    8  C7  UNL     1      -0.787  55.785  83.361  1.00  0.00     0.152 C 
HETATM    9  C8  UNL     1      -1.585  56.242  84.522  1.00  0.00     0.045 C 
BRANCH   8  10
HETATM   10  O1  UNL     1      -0.781  54.370  83.328  1.00  0.00    -0.391 OA
ATOM     11  H1  UNL     1      -0.777  54.042  84.220  1.00  0.00     0.210 HD
ENDBRANCH   8  10
ENDBRANCH   7   8
ENDBRANCH   1   7
BRANCH   1  12
HETATM   12  C9  UNL     1       0.840  58.583  83.786  1.00  0.00     0.132 C 
BRANCH  12  13
HETATM   13  C10 UNL     1       1.065  59.622  84.815  1.00  0.00     0.009 C 
HETATM   14  C11 UNL     1       1.710  60.814  84.089  1.00  0.00     0.011 C 
HETATM   15  C12 UNL     1       1.202  62.045  84.771  1.00  0.00     0.069 C 
HETATM   16  C13 UNL     1      -0.031  61.671  85.534  1.00  0.00     0.164 C 
HETATM   17  C14 UNL     1      -0.214  60.203  85.311  1.00  0.00     0.074 C 
HETATM   18  O2  UNL     1       0.016  62.025  86.870  1.00  0.00    -0.353 OA
HETATM   19  O3  UNL     1      -1.145  62.410  85.094  1.00  0.00    -0.353 OA
HETATM   20  C15 UNL     1      -0.041  63.424  86.803  1.00  0.00     0.197 C 
HETATM   21  C16 UNL     1      -0.880  63.687  85.580  1.00  0.00     0.197 C 
ENDBRANCH  12  13
ENDBRANCH   1  12
TORSDOF 7
ENDMDL
MODEL 5
REMARK VINA RESULT: -7.238348328      1.666      3.493
REMARK  7 active torsions:
REMARK  status: ('A' for Active; 'I' for Inactive)
REMARK    1  A    between atoms: C4_4  and  C5_5 
REMARK    2  A    between atoms: C5_5  and  N1_6 
REMARK    3  A    between atoms: N1_6  and  C6_7 
REMARK    4  A    between atoms: N1_6  and  C9_12 
REMARK    5  A    between atoms: C6_7  and  C7_8 
REMARK    6  A    between atoms: C7_8  and  O1_10 
REMARK    7  A    between atoms: C9_12  and  C10_13 
ROOT
HETATM    1  N1  UNL     1       0.063  57.200  84.108  1.00  0.00    -0.367 N 
ENDROOT
BRANCH   1   2
HETATM    2  C5  UNL     1       1.012  56.256  84.514  1.00  0.00     0.090 C 
BRANCH   2   3
HETATM    3  C4  UNL     1       1.252  55.178  83.549  1.00  0.00     0.019 C 
HETATM    4  C2  UNL     1       2.243  54.335  83.660  1.00  0.00    -0.086 C 
HETATM    5  C1  UNL     1       2.470  53.237  82.661  1.00  0.00     0.043 C 
HETATM    6  C3  UNL     1       3.192  54.459  84.793  1.00  0.00     0.043 C 
ENDBRANCH   2   3
ENDBRANCH   1   2
BRANCH   1   7
HETATM    7  C6  UNL     1      -1.166  56.881  83.543  1.00  0.00     0.094 C 
BRANCH   7   8
HETATM    8  C7  UNL     1      -2.165  56.302  84.482  1.00  0.00     0.152 C 
HETATM    9  C8  UNL     1      -3.235  55.457  83.904  1.00  0.00     0.045 C 
BRANCH   8  10
HETATM   10  O1  UNL     1      -2.752  57.351  85.228  1.00  0.00    -0.391 OA
ATOM     11  H1  UNL     1      -2.142  57.628  85.902  1.00  0.00     0.210 HD
ENDBRANCH   8  10
ENDBRANCH   7   8
ENDBRANCH   1   7
BRANCH   1  12
HETATM   12  C9  UNL     1       0.610  58.461  83.662  1.00  0.00     0.132 C 
BRANCH  12  13
HETATM   13  C10 UNL     1       0.904  59.461  84.712  1.00  0.00     0.009 C 
HETATM   14  C11 UNL     1       1.649  60.611  84.015  1.00  0.00     0.011 C 
HETATM   15  C12 UNL     1       1.232  61.866  84.714  1.00  0.00     0.069 C 
HETATM   16  C13 UNL     1      -0.036  61.577  85.456  1.00  0.00     0.164 C 
HETATM   17  C14 UNL     1      -0.331  60.132  85.205  1.00  0.00     0.074 C 
HETATM   18  O2  UNL     1       0.023  61.903  86.799  1.00  0.00    -0.353 OA
HETATM   19  O3  UNL     1      -1.084  62.409  85.018  1.00  0.00    -0.353 OA
HETATM   20  C15 UNL     1       0.076  63.303  86.757  1.00  0.00     0.197 C 
HETATM   21  C16 UNL     1      -0.724  63.652  85.531  1.00  0.00     0.197 C 
ENDBRANCH  12  13
ENDBRANCH   1  12
TORSDOF 7
ENDMDL
