MODEL 1
REMARK VINA RESULT: -7.075605953      0.000      0.000
REMARK  6 active torsions:
REMARK  status: ('A' for Active; 'I' for Inactive)
REMARK       I    between atoms: C2_2  and  N1_4 
REMARK    1  A    between atoms: N1_4  and  C3_6 
REMARK    2  A    between atoms: C3_6  and  C4_7 
REMARK    3  A    between atoms: C4_7  and  O2_8 
REMARK    4  A    between atoms: O2_8  and  C5_9 
REMARK    5  A    between atoms: N2_16  and  C11_17 
REMARK    6  A    between atoms: C11_17  and  C12_18 
ROOT
HETATM    1  C5  UNL     1      -1.638  58.315  84.254  1.00  0.00     0.180 C 
HETATM    2  C6  UNL     1      -0.734  57.339  83.562  1.00  0.00     0.038 C 
HETATM    3  C7  UNL     1       0.645  57.869  83.302  1.00  0.00     0.041 C 
HETATM    4  C8  UNL     1       1.128  58.781  84.432  1.00  0.00     0.250 C 
HETATM    5  C9  UNL     1       0.801  58.050  85.715  1.00  0.00     0.206 C 
HETATM    6  O3  UNL     1      -0.375  58.613  86.207  1.00  0.00    -0.353 OA
HETATM    7  C10 UNL     1      -0.925  59.298  85.128  1.00  0.00     0.389 C 
HETATM    8  N2  UNL     1       0.219  59.875  84.484  1.00  0.00     0.130 N 
ENDROOT
BRANCH   1   9
HETATM    9  O2  UNL     1      -2.564  57.632  85.034  1.00  0.00    -0.380 OA
BRANCH   9  10
HETATM   10  C4  UNL     1      -2.787  56.368  84.471  1.00  0.00     0.188 C 
BRANCH  10  11
HETATM   11  C3  UNL     1      -4.241  56.038  84.495  1.00  0.00     0.148 C 
BRANCH  11  12
HETATM   12  N1  UNL     1      -4.947  56.599  83.377  1.00  0.00    -0.359 N 
HETATM   13  C2  UNL     1      -5.816  57.708  83.474  1.00  0.00     0.213 C 
HETATM   14  C1  UNL     1      -6.531  58.248  82.279  1.00  0.00     0.117 C 
HETATM   15  O1  UNL     1      -5.990  58.250  84.589  1.00  0.00    -0.274 OA
ATOM     16  H1  UNL     1      -4.813  56.172  82.460  1.00  0.00     0.162 HD
ENDBRANCH  11  12
ENDBRANCH  10  11
ENDBRANCH   9  10
ENDBRANCH   1   9
BRANCH   8  17
HETATM   17  C11 UNL     1       0.692  61.091  85.026  1.00  0.00     0.304 C 
BRANCH  17  18
HETATM   18  C12 UNL     1      -0.126  62.278  84.783  1.00  0.00     0.005 C 
HETATM   19  C13 UNL     1      -0.746  62.872  85.784  1.00  0.00    -0.090 C 
HETATM   20  C14 UNL     1      -1.579  64.076  85.541  1.00  0.00     0.042 C 
HETATM   21  C15 UNL     1      -0.624  62.353  87.167  1.00  0.00     0.042 C 
ENDBRANCH  17  18
ENDBRANCH   8  17
TORSDOF 6
ENDMDL
MODEL 2
REMARK VINA RESULT: -6.936362475      3.091      6.152
REMARK  6 active torsions:
REMARK  status: ('A' for Active; 'I' for Inactive)
REMARK       I    between atoms: C2_2  and  N1_4 
REMARK    1  A    between atoms: N1_4  and  C3_6 
REMARK    2  A    between atoms: C3_6  and  C4_7 
REMARK    3  A    between atoms: C4_7  and  O2_8 
REMARK    4  A    between atoms: O2_8  and  C5_9 
REMARK    5  A    between atoms: N2_16  and  C11_17 
REMARK    6  A    between atoms: C11_17  and  C12_18 
ROOT
HETATM    1  C5  UNL     1       0.557  60.172  85.283  1.00  0.00     0.180 C 
HETATM    2  C6  UNL     1       0.985  60.429  83.868  1.00  0.00     0.038 C 
HETATM    3  C7  UNL     1       1.677  59.265  83.223  1.00  0.00     0.041 C 
HETATM    4  C8  UNL     1       1.085  57.927  83.675  1.00  0.00     0.250 C 
HETATM    5  C9  UNL     1      -0.416  58.094  83.582  1.00  0.00     0.206 C 
HETATM    6  O3  UNL     1      -0.868  58.355  84.875  1.00  0.00    -0.353 OA
HETATM    7  C10 UNL     1       0.266  58.735  85.584  1.00  0.00     0.389 C 
HETATM    8  N2  UNL     1       1.281  57.853  85.083  1.00  0.00     0.130 N 
ENDROOT
BRANCH   1   9
HETATM    9  O2  UNL     1      -0.580  60.916  85.576  1.00  0.00    -0.380 OA
BRANCH   9  10
HETATM   10  C4  UNL     1      -0.306  61.751  86.667  1.00  0.00     0.188 C 
BRANCH  10  11
HETATM   11  C3  UNL     1       0.108  63.103  86.193  1.00  0.00     0.148 C 
BRANCH  11  12
HETATM   12  N1  UNL     1      -0.517  63.461  84.950  1.00  0.00    -0.359 N 
HETATM   13  C2  UNL     1      -1.782  64.083  84.858  1.00  0.00     0.213 C 
HETATM   14  C1  UNL     1      -2.388  64.429  83.538  1.00  0.00     0.117 C 
HETATM   15  O1  UNL     1      -2.408  64.349  85.909  1.00  0.00    -0.274 OA
ATOM     16  H1  UNL     1      -0.018  63.255  84.084  1.00  0.00     0.162 HD
ENDBRANCH  11  12
ENDBRANCH  10  11
ENDBRANCH   9  10
ENDBRANCH   1   9
BRANCH   8  17
HETATM   17  C11 UNL     1       1.335  56.568  85.667  1.00  0.00     0.304 C 
BRANCH  17  18
HETATM   18  C12 UNL     1       1.455  55.437  84.749  1.00  0.00     0.005 C 
HETATM   19  C13 UNL     1       2.613  54.824  84.599  1.00  0.00    -0.090 C 
HETATM   20  C14 UNL     1       2.738  53.676  83.667  1.00  0.00     0.042 C 
HETATM   21  C15 UNL     1       3.809  55.265  85.357  1.00  0.00     0.042 C 
ENDBRANCH  17  18
ENDBRANCH   8  17
TORSDOF 6
ENDMDL
MODEL 3
REMARK VINA RESULT: -6.905214592      3.029      6.056
REMARK  6 active torsions:
REMARK  status: ('A' for Active; 'I' for Inactive)
REMARK       I    between atoms: C2_2  and  N1_4 
REMARK    1  A    between atoms: N1_4  and  C3_6 
REMARK    2  A    between atoms: C3_6  and  C4_7 
REMARK    3  A    between atoms: C4_7  and  O2_8 
REMARK    4  A    between atoms: O2_8  and  C5_9 
REMARK    5  A    between atoms: N2_16  and  C11_17 
REMARK    6  A    between atoms: C11_17  and  C12_18 
ROOT
HETATM    1  C5  UNL     1       0.576  60.613  85.410  1.00  0.00     0.180 C 
HETATM    2  C6  UNL     1       0.905  60.831  83.964  1.00  0.00     0.038 C 
HETATM    3  C7  UNL     1       1.457  59.617  83.278  1.00  0.00     0.041 C 
HETATM    4  C8  UNL     1       0.810  58.328  83.790  1.00  0.00     0.250 C 
HETATM    5  C9  UNL     1      -0.678  58.602  83.817  1.00  0.00     0.206 C 
HETATM    6  O3  UNL     1      -1.004  58.902  85.139  1.00  0.00    -0.353 OA
HETATM    7  C10 UNL     1       0.208  59.203  85.750  1.00  0.00     0.389 C 
HETATM    8  N2  UNL     1       1.113  58.248  85.179  1.00  0.00     0.130 N 
ENDROOT
BRANCH   1   9
HETATM    9  O2  UNL     1      -0.478  61.439  85.786  1.00  0.00    -0.380 OA
BRANCH   9  10
HETATM   10  C4  UNL     1      -0.012  62.757  85.872  1.00  0.00     0.188 C 
BRANCH  10  11
HETATM   11  C3  UNL     1      -1.120  63.718  85.606  1.00  0.00     0.148 C 
BRANCH  11  12
HETATM   12  N1  UNL     1      -1.767  63.470  84.347  1.00  0.00    -0.359 N 
HETATM   13  C2  UNL     1      -2.524  64.437  83.650  1.00  0.00     0.213 C 
HETATM   14  C1  UNL     1      -3.181  64.124  82.346  1.00  0.00     0.117 C 
HETATM   15  O1  UNL     1      -2.646  65.583  84.138  1.00  0.00    -0.274 OA
ATOM     16  H1  UNL     1      -1.674  62.542  83.934  1.00  0.00     0.162 HD
ENDBRANCH  11  12
ENDBRANCH  10  11
ENDBRANCH   9  10
ENDBRANCH   1   9
BRANCH   8  17
HETATM   17  C11 UNL     1       1.123  56.965  85.771  1.00  0.00     0.304 C 
BRANCH  17  18
HETATM   18  C12 UNL     1       2.169  56.046  85.325  1.00  0.00     0.005 C 
HETATM   19  C13 UNL     1       1.855  54.973  84.627  1.00  0.00    -0.090 C 
HETATM   20  C14 UNL     1       2.915  54.037  84.173  1.00  0.00     0.042 C 
HETATM   21  C15 UNL     1       0.444  54.679  84.279  1.00  0.00     0.042 C 
ENDBRANCH  17  18
ENDBRANCH   8  17
TORSDOF 6
ENDMDL
MODEL 4
REMARK VINA RESULT: -6.788712279      1.554      2.658
REMARK  6 active torsions:
REMARK  status: ('A' for Active; 'I' for Inactive)
REMARK       I    between atoms: C2_2  and  N1_4 
REMARK    1  A    between atoms: N1_4  and  C3_6 
REMARK    2  A    between atoms: C3_6  and  C4_7 
REMARK    3  A    between atoms: C4_7  and  O2_8 
REMARK    4  A    between atoms: O2_8  and  C5_9 
REMARK    5  A    between atoms: N2_16  and  C11_17 
REMARK    6  A    between atoms: C11_17  and  C12_18 
ROOT
HETATM    1  C5  UNL     1      -1.586  58.372  84.329  1.00  0.00     0.180 C 
HETATM    2  C6  UNL     1      -0.663  57.447  83.593  1.00  0.00     0.038 C 
HETATM    3  C7  UNL     1       0.680  58.044  83.293  1.00  0.00     0.041 C 
HETATM    4  C8  UNL     1       1.160  58.963  84.418  1.00  0.00     0.250 C 
HETATM    5  C9  UNL     1       0.912  58.201  85.702  1.00  0.00     0.206 C 
HETATM    6  O3  UNL     1      -0.271  58.704  86.241  1.00  0.00    -0.353 OA
HETATM    7  C10 UNL     1      -0.889  59.376  85.192  1.00  0.00     0.389 C 
HETATM    8  N2  UNL     1       0.205  60.014  84.517  1.00  0.00     0.130 N 
ENDROOT
BRANCH   1   9
HETATM    9  O2  UNL     1      -2.452  57.637  85.131  1.00  0.00    -0.380 OA
BRANCH   9  10
HETATM   10  C4  UNL     1      -3.455  57.082  84.325  1.00  0.00     0.188 C 
BRANCH  10  11
HETATM   11  C3  UNL     1      -3.809  55.715  84.803  1.00  0.00     0.148 C 
BRANCH  11  12
HETATM   12  N1  UNL     1      -2.663  54.989  85.276  1.00  0.00    -0.359 N 
HETATM   13  C2  UNL     1      -1.859  54.169  84.453  1.00  0.00     0.213 C 
HETATM   14  C1  UNL     1      -0.681  53.430  84.998  1.00  0.00     0.117 C 
HETATM   15  O1  UNL     1      -2.143  54.060  83.239  1.00  0.00    -0.274 OA
ATOM     16  H1  UNL     1      -2.415  55.069  86.262  1.00  0.00     0.162 HD
ENDBRANCH  11  12
ENDBRANCH  10  11
ENDBRANCH   9  10
ENDBRANCH   1   9
BRANCH   8  17
HETATM   17  C11 UNL     1       0.641  61.243  85.059  1.00  0.00     0.304 C 
BRANCH  17  18
HETATM   18  C12 UNL     1      -0.209  62.406  84.809  1.00  0.00     0.005 C 
HETATM   19  C13 UNL     1      -0.843  62.991  85.807  1.00  0.00    -0.090 C 
HETATM   20  C14 UNL     1      -1.707  64.171  85.556  1.00  0.00     0.042 C 
HETATM   21  C15 UNL     1      -0.706  62.486  87.194  1.00  0.00     0.042 C 
ENDBRANCH  17  18
ENDBRANCH   8  17
TORSDOF 6
ENDMDL
MODEL 5
REMARK VINA RESULT: -6.705127632      1.754      2.548
REMARK  6 active torsions:
REMARK  status: ('A' for Active; 'I' for Inactive)
REMARK       I    between atoms: C2_2  and  N1_4 
REMARK    1  A    between atoms: N1_4  and  C3_6 
REMARK    2  A    between atoms: C3_6  and  C4_7 
REMARK    3  A    between atoms: C4_7  and  O2_8 
REMARK    4  A    between atoms: O2_8  and  C5_9 
REMARK    5  A    between atoms: N2_16  and  C11_17 
REMARK    6  A    between atoms: C11_17  and  C12_18 
ROOT
HETATM    1  C5  UNL     1      -1.606  58.312  84.302  1.00  0.00     0.180 C 
HETATM    2  C6  UNL     1      -0.693  57.353  83.597  1.00  0.00     0.038 C 
HETATM    3  C7  UNL     1       0.669  57.911  83.312  1.00  0.00     0.041 C 
HETATM    4  C8  UNL     1       1.152  58.837  84.431  1.00  0.00     0.250 C 
HETATM    5  C9  UNL     1       0.863  58.102  85.722  1.00  0.00     0.206 C 
HETATM    6  O3  UNL     1      -0.317  58.643  86.232  1.00  0.00    -0.353 OA
HETATM    7  C10 UNL     1      -0.899  59.312  85.162  1.00  0.00     0.389 C 
HETATM    8  N2  UNL     1       0.222  59.912  84.496  1.00  0.00     0.130 N 
ENDROOT
BRANCH   1   9
HETATM    9  O2  UNL     1      -2.504  57.612  85.100  1.00  0.00    -0.380 OA
BRANCH   9  10
HETATM   10  C4  UNL     1      -3.523  57.096  84.289  1.00  0.00     0.188 C 
BRANCH  10  11
HETATM   11  C3  UNL     1      -4.206  55.960  84.972  1.00  0.00     0.148 C 
BRANCH  11  12
HETATM   12  N1  UNL     1      -3.327  55.249  85.859  1.00  0.00    -0.359 N 
HETATM   13  C2  UNL     1      -3.713  54.109  86.598  1.00  0.00     0.213 C 
HETATM   14  C1  UNL     1      -2.759  53.410  87.511  1.00  0.00     0.117 C 
HETATM   15  O1  UNL     1      -4.881  53.676  86.485  1.00  0.00    -0.274 OA
ATOM     16  H1  UNL     1      -2.369  55.587  85.960  1.00  0.00     0.162 HD
ENDBRANCH  11  12
ENDBRANCH  10  11
ENDBRANCH   9  10
ENDBRANCH   1   9
BRANCH   8  17
HETATM   17  C11 UNL     1       0.679  61.139  85.027  1.00  0.00     0.304 C 
BRANCH  17  18
HETATM   18  C12 UNL     1      -0.164  62.309  84.788  1.00  0.00     0.005 C 
HETATM   19  C13 UNL     1      -0.779  62.900  85.793  1.00  0.00    -0.090 C 
HETATM   20  C14 UNL     1      -1.637  64.088  85.554  1.00  0.00     0.042 C 
HETATM   21  C15 UNL     1      -0.627  62.395  87.179  1.00  0.00     0.042 C 
ENDBRANCH  17  18
ENDBRANCH   8  17
TORSDOF 6
ENDMDL
