MODEL 1
REMARK VINA RESULT: -7.470995206      0.000      0.000
REMARK  14 active torsions:
REMARK  status: ('A' for Active; 'I' for Inactive)
REMARK    1  A    between atoms: N1_1  and  C1_4 
REMARK    2  A    between atoms: C6_19  and  C7_20 
REMARK    3  A    between atoms: C7_20  and  N7_21 
REMARK    4  A    between atoms: N7_21  and  C8_22 
REMARK    5  A    between atoms: C9_25  and  N9_26 
REMARK    6  A    between atoms: N9_26  and  C10_28 
REMARK    7  A    between atoms: C10_28  and  C11_29 
REMARK    8  A    between atoms: C11_29  and  O1_30 
REMARK    9  A    between atoms: C12_34  and  C13_35 
REMARK   10  A    between atoms: C13_35  and  O2_36 
REMARK   11  A    between atoms: C13_35  and  O3_38 
REMARK   12  A    between atoms: C14_40  and  C15_41 
REMARK   13  A    between atoms: C15_41  and  O4_42 
REMARK   14  A    between atoms: C15_41  and  O5_44 
ROOT
HETATM    1  C8  UNL     1      25.749  32.140  30.017  1.00  0.00     0.206 A 
HETATM    2  N8  UNL     1      26.740  31.708  29.154  1.00  0.00    -0.164 N 
ATOM      3  H8  UNL     1      27.043  30.737  29.227  1.00  0.00     0.187 HD
HETATM    4  C9  UNL     1      27.320  32.469  28.241  1.00  0.00     0.680 A 
HETATM    5  N10 UNL     1      26.927  33.740  28.141  1.00  0.00    -0.190 N 
ATOM      6  H10 UNL     1      27.365  34.337  27.441  1.00  0.00     0.184 HD
HETATM    7  C12 UNL     1      25.947  34.275  28.952  1.00  0.00     0.097 A 
HETATM    8  C14 UNL     1      25.358  33.488  29.889  1.00  0.00     0.083 A 
ENDROOT
BRANCH   1   9
HETATM    9  N7  UNL     1      25.260  31.399  30.782  1.00  0.00    -0.395 NA
BRANCH   9  10
HETATM   10  C7  UNL     1      24.710  30.551  31.645  1.00  0.00     0.235 C 
BRANCH  10  11
HETATM   11  C6  UNL     1      25.101  29.090  31.463  1.00  0.00     0.165 A 
HETATM   12  N6  UNL     1      25.156  28.149  32.384  1.00  0.00    -0.170 N 
HETATM   13  C5  UNL     1      25.552  27.001  31.766  1.00  0.00     0.721 A 
ATOM     14  H6  UNL     1      24.941  28.259  33.375  1.00  0.00     0.186 HD
HETATM   15  N5  UNL     1      25.764  25.764  32.240  1.00  0.00    -0.129 N 
HETATM   16  N12 UNL     1      25.728  27.287  30.473  1.00  0.00    -0.064 N 
HETATM   17  N4  UNL     1      26.155  24.808  31.412  1.00  0.00    -0.280 N 
ATOM     18  H5  UNL     1      25.625  25.561  33.231  1.00  0.00     0.205 HD
HETATM   19  C4  UNL     1      26.341  25.052  30.111  1.00  0.00     0.139 A 
ATOM     20  H4  UNL     1      26.317  23.867  31.773  1.00  0.00     0.188 HD
HETATM   21  C1  UNL     1      26.750  24.090  29.199  1.00  0.00     0.132 A 
HETATM   22  C3  UNL     1      26.124  26.323  29.620  1.00  0.00     0.178 A 
HETATM   23  N2  UNL     1      26.904  24.442  27.928  1.00  0.00    -0.337 N 
HETATM   24  C2  UNL     1      26.689  25.684  27.466  1.00  0.00     0.183 A 
ATOM     25  H2  UNL     1      27.205  23.727  27.265  1.00  0.00     0.168 HD
HETATM   26  N3  UNL     1      26.292  26.644  28.318  1.00  0.00    -0.335 N 
ATOM     27  H3  UNL     1      26.121  27.595  27.989  1.00  0.00     0.168 HD
HETATM   28  N11 UNL     1      25.449  28.571  30.291  1.00  0.00    -0.260 N 
ATOM     29  H11 UNL     1      25.493  29.073  29.405  1.00  0.00     0.190 HD
BRANCH  21  30
HETATM   30  N1  UNL     1      26.965  22.893  29.609  1.00  0.00    -0.383 N 
ATOM     31  H12 UNL     1      26.174  22.257  29.721  1.00  0.00     0.157 HD
ATOM     32  H11 UNL     1      27.902  22.552  29.827  1.00  0.00     0.157 HD
ENDBRANCH  21  30
ENDBRANCH  10  11
ENDBRANCH   9  10
ENDBRANCH   1   9
BRANCH   8  33
HETATM   33  C15 UNL     1      24.368  33.983  30.837  1.00  0.00     0.295 C 
BRANCH  33  34
HETATM   34  O4  UNL     1      24.836  33.822  32.188  1.00  0.00    -0.367 OA
ATOM     35  H4  UNL     1      24.275  33.222  32.667  1.00  0.00     0.213 HD
ENDBRANCH  33  34
BRANCH  33  36
HETATM   36  O5  UNL     1      23.142  33.333  30.813  1.00  0.00    -0.367 OA
ATOM     37  H5  UNL     1      23.111  32.539  30.294  1.00  0.00     0.213 HD
ENDBRANCH  33  36
ENDBRANCH   8  33
BRANCH   4  38
HETATM   38  N9  UNL     1      28.251  31.987  27.466  1.00  0.00    -0.224 N 
ATOM     39  H9  UNL     1      28.273  32.331  26.506  1.00  0.00     0.177 HD
BRANCH  38  40
HETATM   40  C10 UNL     1      29.235  31.031  27.828  1.00  0.00     0.164 C 
BRANCH  40  41
HETATM   41  C11 UNL     1      28.715  29.658  27.380  1.00  0.00     0.184 C 
BRANCH  41  42
HETATM   42  O1  UNL     1      28.038  29.036  28.427  1.00  0.00    -0.399 OA
ATOM     43  H1  UNL     1      28.584  28.364  28.817  1.00  0.00     0.209 HD
ENDBRANCH  41  42
ENDBRANCH  40  41
ENDBRANCH  38  40
ENDBRANCH   4  38
BRANCH   7  44
HETATM   44  C13 UNL     1      25.525  35.665  28.710  1.00  0.00     0.306 C 
BRANCH  44  45
HETATM   45  O2  UNL     1      26.710  36.428  29.019  1.00  0.00    -0.366 OA
ATOM     46  H2  UNL     1      26.883  36.203  29.925  1.00  0.00     0.213 HD
ENDBRANCH  44  45
BRANCH  44  47
HETATM   47  O3  UNL     1      25.361  35.993  27.356  1.00  0.00    -0.366 OA
ATOM     48  H3  UNL     1      25.031  36.871  27.202  1.00  0.00     0.213 HD
ENDBRANCH  44  47
ENDBRANCH   7  44
TORSDOF 14
ENDMDL
MODEL 2
REMARK VINA RESULT: -7.377258384      3.975      6.136
REMARK  14 active torsions:
REMARK  status: ('A' for Active; 'I' for Inactive)
REMARK    1  A    between atoms: N1_1  and  C1_4 
REMARK    2  A    between atoms: C6_19  and  C7_20 
REMARK    3  A    between atoms: C7_20  and  N7_21 
REMARK    4  A    between atoms: N7_21  and  C8_22 
REMARK    5  A    between atoms: C9_25  and  N9_26 
REMARK    6  A    between atoms: N9_26  and  C10_28 
REMARK    7  A    between atoms: C10_28  and  C11_29 
REMARK    8  A    between atoms: C11_29  and  O1_30 
REMARK    9  A    between atoms: C12_34  and  C13_35 
REMARK   10  A    between atoms: C13_35  and  O2_36 
REMARK   11  A    between atoms: C13_35  and  O3_38 
REMARK   12  A    between atoms: C14_40  and  C15_41 
REMARK   13  A    between atoms: C15_41  and  O4_42 
REMARK   14  A    between atoms: C15_41  and  O5_44 
ROOT
HETATM    1  C8  UNL     1      22.216  35.543  32.668  1.00  0.00     0.206 A 
HETATM    2  N8  UNL     1      22.371  35.855  31.330  1.00  0.00    -0.164 N 
ATOM      3  H8  UNL     1      23.006  35.279  30.778  1.00  0.00     0.187 HD
HETATM    4  C9  UNL     1      21.753  36.851  30.718  1.00  0.00     0.680 A 
HETATM    5  N10 UNL     1      20.920  37.608  31.435  1.00  0.00    -0.190 N 
ATOM      6  H10 UNL     1      20.436  38.379  30.975  1.00  0.00     0.184 HD
HETATM    7  C12 UNL     1      20.691  37.386  32.777  1.00  0.00     0.097 A 
HETATM    8  C14 UNL     1      21.333  36.363  33.399  1.00  0.00     0.083 A 
ENDROOT
BRANCH   1   9
HETATM    9  N7  UNL     1      22.776  34.626  33.135  1.00  0.00    -0.395 NA
BRANCH   9  10
HETATM   10  C7  UNL     1      23.418  33.587  33.659  1.00  0.00     0.235 C 
BRANCH  10  11
HETATM   11  C6  UNL     1      24.202  32.737  32.665  1.00  0.00     0.165 A 
HETATM   12  N6  UNL     1      24.844  33.143  31.588  1.00  0.00    -0.170 N 
HETATM   13  C5  UNL     1      25.398  32.041  31.009  1.00  0.00     0.721 A 
ATOM     14  H6  UNL     1      24.914  34.103  31.251  1.00  0.00     0.186 HD
HETATM   15  N5  UNL     1      26.144  31.898  29.903  1.00  0.00    -0.129 N 
HETATM   16  N12 UNL     1      25.068  30.988  31.763  1.00  0.00    -0.064 N 
HETATM   17  N4  UNL     1      26.563  30.693  29.552  1.00  0.00    -0.280 N 
ATOM     18  H5  UNL     1      26.387  32.712  29.338  1.00  0.00     0.205 HD
HETATM   19  C4  UNL     1      26.256  29.614  30.280  1.00  0.00     0.139 A 
ATOM     20  H4  UNL     1      27.130  30.584  28.711  1.00  0.00     0.188 HD
HETATM   21  C1  UNL     1      26.667  28.328  29.960  1.00  0.00     0.132 A 
HETATM   22  C3  UNL     1      25.489  29.757  31.417  1.00  0.00     0.178 A 
HETATM   23  N2  UNL     1      26.305  27.327  30.753  1.00  0.00    -0.337 N 
HETATM   24  C2  UNL     1      25.557  27.483  31.858  1.00  0.00     0.183 A 
ATOM     25  H2  UNL     1      26.612  26.385  30.510  1.00  0.00     0.168 HD
HETATM   26  N3  UNL     1      25.140  28.714  32.202  1.00  0.00    -0.335 N 
ATOM     27  H3  UNL     1      24.572  28.856  33.038  1.00  0.00     0.168 HD
HETATM   28  N11 UNL     1      24.335  31.421  32.780  1.00  0.00    -0.260 N 
ATOM     29  H11 UNL     1      23.941  30.843  33.522  1.00  0.00     0.190 HD
BRANCH  21  30
HETATM   30  N1  UNL     1      27.383  28.145  28.910  1.00  0.00    -0.383 N 
ATOM     31  H12 UNL     1      28.332  27.784  29.014  1.00  0.00     0.157 HD
ATOM     32  H11 UNL     1      27.035  28.348  27.972  1.00  0.00     0.157 HD
ENDBRANCH  21  30
ENDBRANCH  10  11
ENDBRANCH   9  10
ENDBRANCH   1   9
BRANCH   8  33
HETATM   33  C15 UNL     1      21.211  36.097  34.827  1.00  0.00     0.295 C 
BRANCH  33  34
HETATM   34  O4  UNL     1      22.507  36.057  35.447  1.00  0.00    -0.367 OA
ATOM     35  H4  UNL     1      22.425  36.041  36.394  1.00  0.00     0.213 HD
ENDBRANCH  33  34
BRANCH  33  36
HETATM   36  O5  UNL     1      20.628  34.882  35.159  1.00  0.00    -0.367 OA
ATOM     37  H5  UNL     1      20.771  34.591  36.052  1.00  0.00     0.213 HD
ENDBRANCH  33  36
ENDBRANCH   8  33
BRANCH   4  38
HETATM   38  N9  UNL     1      21.955  37.083  29.451  1.00  0.00    -0.224 N 
ATOM     39  H9  UNL     1      21.663  37.994  29.098  1.00  0.00     0.177 HD
BRANCH  38  40
HETATM   40  C10 UNL     1      22.542  36.191  28.516  1.00  0.00     0.164 C 
BRANCH  40  41
HETATM   41  C11 UNL     1      24.062  36.385  28.602  1.00  0.00     0.184 C 
BRANCH  41  42
HETATM   42  O1  UNL     1      24.637  35.357  29.347  1.00  0.00    -0.399 OA
ATOM     43  H1  UNL     1      24.047  34.613  29.387  1.00  0.00     0.209 HD
ENDBRANCH  41  42
ENDBRANCH  40  41
ENDBRANCH  38  40
ENDBRANCH   4  38
BRANCH   7  44
HETATM   44  C13 UNL     1      19.693  38.225  33.462  1.00  0.00     0.306 C 
BRANCH  44  45
HETATM   45  O2  UNL     1      19.632  39.407  32.635  1.00  0.00    -0.366 OA
ATOM     46  H2  UNL     1      18.904  39.892  33.004  1.00  0.00     0.213 HD
ENDBRANCH  44  45
BRANCH  44  47
HETATM   47  O3  UNL     1      18.372  37.768  33.343  1.00  0.00    -0.366 OA
ATOM     48  H3  UNL     1      17.928  38.053  32.553  1.00  0.00     0.213 HD
ENDBRANCH  44  47
ENDBRANCH   7  44
TORSDOF 14
ENDMDL
MODEL 3
REMARK VINA RESULT: -7.238665665      4.076      6.452
REMARK  14 active torsions:
REMARK  status: ('A' for Active; 'I' for Inactive)
REMARK    1  A    between atoms: N1_1  and  C1_4 
REMARK    2  A    between atoms: C6_19  and  C7_20 
REMARK    3  A    between atoms: C7_20  and  N7_21 
REMARK    4  A    between atoms: N7_21  and  C8_22 
REMARK    5  A    between atoms: C9_25  and  N9_26 
REMARK    6  A    between atoms: N9_26  and  C10_28 
REMARK    7  A    between atoms: C10_28  and  C11_29 
REMARK    8  A    between atoms: C11_29  and  O1_30 
REMARK    9  A    between atoms: C12_34  and  C13_35 
REMARK   10  A    between atoms: C13_35  and  O2_36 
REMARK   11  A    between atoms: C13_35  and  O3_38 
REMARK   12  A    between atoms: C14_40  and  C15_41 
REMARK   13  A    between atoms: C15_41  and  O4_42 
REMARK   14  A    between atoms: C15_41  and  O5_44 
ROOT
HETATM    1  C8  UNL     1      22.296  35.462  32.686  1.00  0.00     0.206 A 
HETATM    2  N8  UNL     1      22.407  35.718  31.331  1.00  0.00    -0.164 N 
ATOM      3  H8  UNL     1      22.988  35.091  30.775  1.00  0.00     0.187 HD
HETATM    4  C9  UNL     1      21.811  36.721  30.708  1.00  0.00     0.680 A 
HETATM    5  N10 UNL     1      21.049  37.544  31.430  1.00  0.00    -0.190 N 
ATOM      6  H10 UNL     1      20.583  38.321  30.962  1.00  0.00     0.184 HD
HETATM    7  C12 UNL     1      20.868  37.382  32.788  1.00  0.00     0.097 A 
HETATM    8  C14 UNL     1      21.486  36.352  33.421  1.00  0.00     0.083 A 
ENDROOT
BRANCH   1   9
HETATM    9  N7  UNL     1      22.831  34.535  33.163  1.00  0.00    -0.395 NA
BRANCH   9  10
HETATM   10  C7  UNL     1      23.439  33.481  33.696  1.00  0.00     0.235 C 
BRANCH  10  11
HETATM   11  C6  UNL     1      24.213  32.610  32.714  1.00  0.00     0.165 A 
HETATM   12  N6  UNL     1      24.876  32.996  31.643  1.00  0.00    -0.170 N 
HETATM   13  C5  UNL     1      25.409  31.880  31.073  1.00  0.00     0.721 A 
ATOM     14  H6  UNL     1      24.973  33.953  31.303  1.00  0.00     0.186 HD
HETATM   15  N5  UNL     1      26.164  31.715  29.976  1.00  0.00    -0.129 N 
HETATM   16  N12 UNL     1      25.046  30.838  31.827  1.00  0.00    -0.064 N 
HETATM   17  N4  UNL     1      26.557  30.498  29.633  1.00  0.00    -0.280 N 
ATOM     18  H5  UNL     1      26.433  32.521  29.411  1.00  0.00     0.205 HD
HETATM   19  C4  UNL     1      26.216  29.430  30.361  1.00  0.00     0.139 A 
ATOM     20  H4  UNL     1      27.130  30.373  28.798  1.00  0.00     0.188 HD
HETATM   21  C1  UNL     1      26.599  28.133  30.049  1.00  0.00     0.132 A 
HETATM   22  C3  UNL     1      25.440  29.595  31.489  1.00  0.00     0.178 A 
HETATM   23  N2  UNL     1      26.204  27.144  30.842  1.00  0.00    -0.337 N 
HETATM   24  C2  UNL     1      25.449  27.322  31.938  1.00  0.00     0.183 A 
ATOM     25  H2  UNL     1      26.491  26.194  30.605  1.00  0.00     0.168 HD
HETATM   26  N3  UNL     1      25.057  28.563  32.274  1.00  0.00    -0.335 N 
ATOM     27  H3  UNL     1      24.484  28.722  33.103  1.00  0.00     0.168 HD
HETATM   28  N11 UNL     1      24.312  31.292  32.834  1.00  0.00    -0.260 N 
ATOM     29  H11 UNL     1      23.896  30.726  33.574  1.00  0.00     0.190 HD
BRANCH  21  30
HETATM   30  N1  UNL     1      27.321  27.929  29.008  1.00  0.00    -0.383 N 
ATOM     31  H12 UNL     1      28.285  27.614  29.127  1.00  0.00     0.157 HD
ATOM     32  H11 UNL     1      26.965  28.071  28.062  1.00  0.00     0.157 HD
ENDBRANCH  21  30
ENDBRANCH  10  11
ENDBRANCH   9  10
ENDBRANCH   1   9
BRANCH   8  33
HETATM   33  C15 UNL     1      21.414  36.143  34.861  1.00  0.00     0.295 C 
BRANCH  33  34
HETATM   34  O4  UNL     1      22.732  36.010  35.421  1.00  0.00    -0.367 OA
ATOM     35  H4  UNL     1      22.888  35.116  35.703  1.00  0.00     0.213 HD
ENDBRANCH  33  34
BRANCH  33  36
HETATM   36  O5  UNL     1      20.747  34.996  35.266  1.00  0.00    -0.367 OA
ATOM     37  H5  UNL     1      20.937  34.702  36.149  1.00  0.00     0.213 HD
ENDBRANCH  33  36
ENDBRANCH   8  33
BRANCH   4  38
HETATM   38  N9  UNL     1      21.969  36.897  29.426  1.00  0.00    -0.224 N 
ATOM     39  H9  UNL     1      22.009  36.059  28.847  1.00  0.00     0.177 HD
BRANCH  38  40
HETATM   40  C10 UNL     1      22.090  38.144  28.757  1.00  0.00     0.164 C 
BRANCH  40  41
HETATM   41  C11 UNL     1      23.384  38.800  29.259  1.00  0.00     0.184 C 
BRANCH  41  42
HETATM   42  O1  UNL     1      23.105  39.671  30.310  1.00  0.00    -0.399 OA
ATOM     43  H1  UNL     1      22.886  40.532  29.973  1.00  0.00     0.209 HD
ENDBRANCH  41  42
ENDBRANCH  40  41
ENDBRANCH  38  40
ENDBRANCH   4  38
BRANCH   7  44
HETATM   44  C13 UNL     1      19.943  38.295  33.482  1.00  0.00     0.306 C 
BRANCH  44  45
HETATM   45  O2  UNL     1      19.961  39.476  32.652  1.00  0.00    -0.366 OA
ATOM     46  H2  UNL     1      19.043  39.608  32.444  1.00  0.00     0.213 HD
ENDBRANCH  44  45
BRANCH  44  47
HETATM   47  O3  UNL     1      18.591  37.936  33.379  1.00  0.00    -0.366 OA
ATOM     48  H3  UNL     1      17.983  38.651  33.531  1.00  0.00     0.213 HD
ENDBRANCH  44  47
ENDBRANCH   7  44
TORSDOF 14
ENDMDL
MODEL 4
REMARK VINA RESULT: -7.013048587      3.955      6.748
REMARK  14 active torsions:
REMARK  status: ('A' for Active; 'I' for Inactive)
REMARK    1  A    between atoms: N1_1  and  C1_4 
REMARK    2  A    between atoms: C6_19  and  C7_20 
REMARK    3  A    between atoms: C7_20  and  N7_21 
REMARK    4  A    between atoms: N7_21  and  C8_22 
REMARK    5  A    between atoms: C9_25  and  N9_26 
REMARK    6  A    between atoms: N9_26  and  C10_28 
REMARK    7  A    between atoms: C10_28  and  C11_29 
REMARK    8  A    between atoms: C11_29  and  O1_30 
REMARK    9  A    between atoms: C12_34  and  C13_35 
REMARK   10  A    between atoms: C13_35  and  O2_36 
REMARK   11  A    between atoms: C13_35  and  O3_38 
REMARK   12  A    between atoms: C14_40  and  C15_41 
REMARK   13  A    between atoms: C15_41  and  O4_42 
REMARK   14  A    between atoms: C15_41  and  O5_44 
ROOT
HETATM    1  C8  UNL     1      22.101  35.481  32.442  1.00  0.00     0.206 A 
HETATM    2  N8  UNL     1      22.179  35.831  31.107  1.00  0.00    -0.164 N 
ATOM      3  H8  UNL     1      22.738  35.239  30.492  1.00  0.00     0.187 HD
HETATM    4  C9  UNL     1      21.578  36.881  30.572  1.00  0.00     0.680 A 
HETATM    5  N10 UNL     1      20.844  37.658  31.370  1.00  0.00    -0.190 N 
ATOM      6  H10 UNL     1      20.375  38.470  30.971  1.00  0.00     0.184 HD
HETATM    7  C12 UNL     1      20.698  37.402  32.718  1.00  0.00     0.097 A 
HETATM    8  C14 UNL     1      21.321  36.324  33.260  1.00  0.00     0.083 A 
ENDROOT
BRANCH   1   9
HETATM    9  N7  UNL     1      22.638  34.518  32.838  1.00  0.00    -0.395 NA
BRANCH   9  10
HETATM   10  C7  UNL     1      23.244  33.422  33.281  1.00  0.00     0.235 C 
BRANCH  10  11
HETATM   11  C6  UNL     1      24.176  32.744  32.283  1.00  0.00     0.165 A 
HETATM   12  N6  UNL     1      24.532  31.476  32.245  1.00  0.00    -0.170 N 
HETATM   13  C5  UNL     1      25.374  31.324  31.185  1.00  0.00     0.721 A 
ATOM     14  H6  UNL     1      24.232  30.744  32.889  1.00  0.00     0.186 HD
HETATM   15  N5  UNL     1      26.016  30.247  30.706  1.00  0.00    -0.129 N 
HETATM   16  N12 UNL     1      25.504  32.522  30.607  1.00  0.00    -0.064 N 
HETATM   17  N4  UNL     1      26.792  30.372  29.642  1.00  0.00    -0.280 N 
ATOM     18  H5  UNL     1      25.906  29.339  31.159  1.00  0.00     0.205 HD
HETATM   19  C4  UNL     1      26.948  31.552  29.033  1.00  0.00     0.139 A 
ATOM     20  H4  UNL     1      27.280  29.553  29.278  1.00  0.00     0.188 HD
HETATM   21  C1  UNL     1      27.748  31.742  27.916  1.00  0.00     0.132 A 
HETATM   22  C3  UNL     1      26.291  32.662  29.523  1.00  0.00     0.178 A 
HETATM   23  N2  UNL     1      27.832  32.958  27.391  1.00  0.00    -0.337 N 
HETATM   24  C2  UNL     1      27.185  34.028  27.880  1.00  0.00     0.183 A 
ATOM     25  H2  UNL     1      28.423  33.088  26.569  1.00  0.00     0.168 HD
HETATM   26  N3  UNL     1      26.400  33.886  28.961  1.00  0.00    -0.335 N 
ATOM     27  H3  UNL     1      25.897  34.685  29.349  1.00  0.00     0.168 HD
HETATM   28  N11 UNL     1      24.765  33.391  31.285  1.00  0.00    -0.260 N 
ATOM     29  H11 UNL     1      24.667  34.384  31.075  1.00  0.00     0.190 HD
BRANCH  21  30
HETATM   30  N1  UNL     1      28.381  30.739  27.425  1.00  0.00    -0.383 N 
ATOM     31  H12 UNL     1      27.858  29.903  27.161  1.00  0.00     0.157 HD
ATOM     32  H11 UNL     1      29.392  30.748  27.287  1.00  0.00     0.157 HD
ENDBRANCH  21  30
ENDBRANCH  10  11
ENDBRANCH   9  10
ENDBRANCH   1   9
BRANCH   8  33
HETATM   33  C15 UNL     1      21.285  36.015  34.684  1.00  0.00     0.295 C 
BRANCH  33  34
HETATM   34  O4  UNL     1      22.618  35.945  35.221  1.00  0.00    -0.367 OA
ATOM     35  H4  UNL     1      22.844  36.756  35.661  1.00  0.00     0.213 HD
ENDBRANCH  33  34
BRANCH  33  36
HETATM   36  O5  UNL     1      20.712  34.796  35.016  1.00  0.00    -0.367 OA
ATOM     37  H5  UNL     1      19.800  34.832  35.281  1.00  0.00     0.213 HD
ENDBRANCH  33  36
ENDBRANCH   8  33
BRANCH   4  38
HETATM   38  N9  UNL     1      21.704  37.145  29.301  1.00  0.00    -0.224 N 
ATOM     39  H9  UNL     1      21.314  38.030  28.975  1.00  0.00     0.177 HD
BRANCH  38  40
HETATM   40  C10 UNL     1      22.330  36.322  28.329  1.00  0.00     0.164 C 
BRANCH  40  41
HETATM   41  C11 UNL     1      23.816  36.706  28.305  1.00  0.00     0.184 C 
BRANCH  41  42
HETATM   42  O1  UNL     1      24.522  35.951  29.240  1.00  0.00    -0.399 OA
ATOM     43  H1  UNL     1      25.288  36.430  29.536  1.00  0.00     0.209 HD
ENDBRANCH  41  42
ENDBRANCH  40  41
ENDBRANCH  38  40
ENDBRANCH   4  38
BRANCH   7  44
HETATM   44  C13 UNL     1      19.802  38.271  33.499  1.00  0.00     0.306 C 
BRANCH  44  45
HETATM   45  O2  UNL     1      19.819  39.511  32.761  1.00  0.00    -0.366 OA
ATOM     46  H2  UNL     1      19.416  40.127  33.361  1.00  0.00     0.213 HD
ENDBRANCH  44  45
BRANCH  44  47
HETATM   47  O3  UNL     1      18.442  37.940  33.401  1.00  0.00    -0.366 OA
ATOM     48  H3  UNL     1      18.010  38.281  32.626  1.00  0.00     0.213 HD
ENDBRANCH  44  47
ENDBRANCH   7  44
TORSDOF 14
ENDMDL
MODEL 5
REMARK VINA RESULT: -6.826089282      4.027      6.422
REMARK  14 active torsions:
REMARK  status: ('A' for Active; 'I' for Inactive)
REMARK    1  A    between atoms: N1_1  and  C1_4 
REMARK    2  A    between atoms: C6_19  and  C7_20 
REMARK    3  A    between atoms: C7_20  and  N7_21 
REMARK    4  A    between atoms: N7_21  and  C8_22 
REMARK    5  A    between atoms: C9_25  and  N9_26 
REMARK    6  A    between atoms: N9_26  and  C10_28 
REMARK    7  A    between atoms: C10_28  and  C11_29 
REMARK    8  A    between atoms: C11_29  and  O1_30 
REMARK    9  A    between atoms: C12_34  and  C13_35 
REMARK   10  A    between atoms: C13_35  and  O2_36 
REMARK   11  A    between atoms: C13_35  and  O3_38 
REMARK   12  A    between atoms: C14_40  and  C15_41 
REMARK   13  A    between atoms: C15_41  and  O4_42 
REMARK   14  A    between atoms: C15_41  and  O5_44 
ROOT
HETATM    1  C8  UNL     1      22.351  35.290  31.853  1.00  0.00     0.206 A 
HETATM    2  N8  UNL     1      22.482  35.698  30.538  1.00  0.00    -0.164 N 
ATOM      3  H8  UNL     1      22.840  35.021  29.864  1.00  0.00     0.187 HD
HETATM    4  C9  UNL     1      22.174  36.905  30.095  1.00  0.00     0.680 A 
HETATM    5  N10 UNL     1      21.703  37.794  30.972  1.00  0.00    -0.190 N 
ATOM      6  H10 UNL     1      21.461  38.728  30.644  1.00  0.00     0.184 HD
HETATM    7  C12 UNL     1      21.532  37.493  32.308  1.00  0.00     0.097 A 
HETATM    8  C14 UNL     1      21.854  36.252  32.755  1.00  0.00     0.083 A 
ENDROOT
BRANCH   1   9
HETATM    9  N7  UNL     1      22.617  34.192  32.165  1.00  0.00    -0.395 NA
BRANCH   9  10
HETATM   10  C7  UNL     1      22.919  32.945  32.511  1.00  0.00     0.235 C 
BRANCH  10  11
HETATM   11  C6  UNL     1      24.017  32.287  31.684  1.00  0.00     0.165 A 
HETATM   12  N6  UNL     1      24.439  31.040  31.751  1.00  0.00    -0.170 N 
HETATM   13  C5  UNL     1      25.430  30.899  30.827  1.00  0.00     0.721 A 
ATOM     14  H6  UNL     1      24.090  30.316  32.378  1.00  0.00     0.186 HD
HETATM   15  N5  UNL     1      26.188  29.845  30.490  1.00  0.00    -0.129 N 
HETATM   16  N12 UNL     1      25.579  32.081  30.221  1.00  0.00    -0.064 N 
HETATM   17  N4  UNL     1      27.100  29.976  29.540  1.00  0.00    -0.280 N 
ATOM     18  H5  UNL     1      26.062  28.949  30.962  1.00  0.00     0.205 HD
HETATM   19  C4  UNL     1      27.280  31.140  28.908  1.00  0.00     0.139 A 
ATOM     20  H4  UNL     1      27.676  29.174  29.284  1.00  0.00     0.188 HD
HETATM   21  C1  UNL     1      28.219  31.335  27.907  1.00  0.00     0.132 A 
HETATM   22  C3  UNL     1      26.503  32.227  29.253  1.00  0.00     0.178 A 
HETATM   23  N2  UNL     1      28.314  32.535  27.346  1.00  0.00    -0.337 N 
HETATM   24  C2  UNL     1      27.549  33.583  27.693  1.00  0.00     0.183 A 
ATOM     25  H2  UNL     1      29.008  32.668  26.610  1.00  0.00     0.168 HD
HETATM   26  N3  UNL     1      26.627  33.435  28.659  1.00  0.00    -0.335 N 
ATOM     27  H3  UNL     1      26.034  34.217  28.938  1.00  0.00     0.168 HD
HETATM   28  N11 UNL     1      24.707  32.930  30.751  1.00  0.00    -0.260 N 
ATOM     29  H11 UNL     1      24.589  33.908  30.486  1.00  0.00     0.190 HD
BRANCH  21  30
HETATM   30  N1  UNL     1      28.966  30.353  27.553  1.00  0.00    -0.383 N 
ATOM     31  H12 UNL     1      29.937  30.536  27.295  1.00  0.00     0.157 HD
ATOM     32  H11 UNL     1      28.623  29.393  27.520  1.00  0.00     0.157 HD
ENDBRANCH  21  30
ENDBRANCH  10  11
ENDBRANCH   9  10
ENDBRANCH   1   9
BRANCH   8  33
HETATM   33  C15 UNL     1      21.778  35.866  34.158  1.00  0.00     0.295 C 
BRANCH  33  34
HETATM   34  O4  UNL     1      23.076  35.495  34.654  1.00  0.00    -0.367 OA
ATOM     35  H4  UNL     1      23.330  34.642  34.320  1.00  0.00     0.213 HD
ENDBRANCH  33  34
BRANCH  33  36
HETATM   36  O5  UNL     1      20.974  34.768  34.432  1.00  0.00    -0.367 OA
ATOM     37  H5  UNL     1      21.017  34.441  35.323  1.00  0.00     0.213 HD
ENDBRANCH  33  36
ENDBRANCH   8  33
BRANCH   4  38
HETATM   38  N9  UNL     1      22.329  37.214  28.839  1.00  0.00    -0.224 N 
ATOM     39  H9  UNL     1      21.575  37.740  28.397  1.00  0.00     0.177 HD
BRANCH  38  40
HETATM   40  C10 UNL     1      23.447  36.891  28.025  1.00  0.00     0.164 C 
BRANCH  40  41
HETATM   41  C11 UNL     1      24.014  38.214  27.492  1.00  0.00     0.184 C 
BRANCH  41  42
HETATM   42  O1  UNL     1      23.577  38.433  26.187  1.00  0.00    -0.399 OA
ATOM     43  H1  UNL     1      24.316  38.435  25.590  1.00  0.00     0.209 HD
ENDBRANCH  41  42
ENDBRANCH  40  41
ENDBRANCH  38  40
ENDBRANCH   4  38
BRANCH   7  44
HETATM   44  C13 UNL     1      20.930  38.516  33.181  1.00  0.00     0.306 C 
BRANCH  44  45
HETATM   45  O2  UNL     1      22.075  39.244  33.674  1.00  0.00    -0.366 OA
ATOM     46  H2  UNL     1      21.763  39.608  34.495  1.00  0.00     0.213 HD
ENDBRANCH  44  45
BRANCH  44  47
HETATM   47  O3  UNL     1      20.258  39.538  32.496  1.00  0.00    -0.366 OA
ATOM     48  H3  UNL     1      20.193  40.356  32.976  1.00  0.00     0.213 HD
ENDBRANCH  44  47
ENDBRANCH   7  44
TORSDOF 14
ENDMDL
