MODEL 1
REMARK VINA RESULT: -8.036208534      0.000      0.000
REMARK  11 active torsions:
REMARK  status: ('A' for Active; 'I' for Inactive)
REMARK    1  A    between atoms: C2_2  and  C12_28 
REMARK    2  A    between atoms: N1_3  and  N2_5 
REMARK       I    between atoms: N2_5  and  C3_7 
REMARK       I    between atoms: C3_7  and  N3_9 
REMARK    3  A    between atoms: N3_9  and  C4_11 
REMARK    4  A    between atoms: C4_11  and  C5_12 
REMARK    5  A    between atoms: C4_11  and  C10_19 
REMARK    6  A    between atoms: C12_28  and  N10_33 
REMARK    7  A    between atoms: N9_29  and  O2_31 
REMARK    8  A    between atoms: N10_33  and  C13_35 
REMARK    9  A    between atoms: C14_38  and  N12_39 
REMARK   10  A    between atoms: C14_38  and  N13_42 
REMARK   11  A    between atoms: N12_39  and  O3_40 
ROOT
HETATM    1  C1  UNL     1      25.352  33.275  29.984  1.00  0.00     0.074 C 
HETATM    2  C2  UNL     1      24.697  32.235  30.801  1.00  0.00     0.068 C 
HETATM    3  N1  UNL     1      23.498  32.419  31.208  1.00  0.00    -0.298 N 
ATOM      4  H1  UNL     1      23.052  31.697  31.773  1.00  0.00     0.187 HD
ENDROOT
BRANCH   3   5
HETATM    5  N2  UNL     1      22.786  33.576  30.905  1.00  0.00    -0.251 N 
HETATM    6  C3  UNL     1      22.709  34.694  31.767  1.00  0.00     0.335 C 
HETATM    7  O1  UNL     1      23.313  34.675  32.893  1.00  0.00    -0.246 OA
HETATM    8  N3  UNL     1      21.966  35.845  31.401  1.00  0.00    -0.325 N 
ATOM      9  H3  UNL     1      21.488  35.844  30.500  1.00  0.00     0.165 HD
ATOM     10  H2  UNL     1      22.292  33.619  30.013  1.00  0.00     0.191 HD
BRANCH   8  11
HETATM   11  C4  UNL     1      21.849  37.019  32.237  1.00  0.00     0.207 C 
BRANCH  11  12
HETATM   12  C5  UNL     1      21.131  38.143  31.603  1.00  0.00     0.039 A 
HETATM   13  C6  UNL     1      21.195  38.314  30.249  1.00  0.00     0.027 A 
HETATM   14  C7  UNL     1      20.539  39.345  29.630  1.00  0.00     0.003 A 
HETATM   15  C8  UNL     1      19.804  40.223  30.394  1.00  0.00     0.017 A 
HETATM   16  C9  UNL     1      19.744  40.044  31.758  1.00  0.00     0.088 A 
HETATM   17  N4  UNL     1      20.400  39.022  32.335  1.00  0.00    -0.367 N 
ATOM     18  H4  UNL     1      20.346  38.903  33.346  1.00  0.00     0.165 HD
ENDBRANCH  11  12
BRANCH  11  19
HETATM   19  C10 UNL     1      21.439  36.738  33.630  1.00  0.00     0.144 A 
HETATM   20  N5  UNL     1      20.560  35.766  34.016  1.00  0.00    -0.270 N 
HETATM   21  N6  UNL     1      20.402  35.781  35.323  1.00  0.00    -0.227 N 
ATOM     22  H5  UNL     1      20.092  35.119  33.381  1.00  0.00     0.190 HD
HETATM   23  N7  UNL     1      21.157  36.737  35.785  1.00  0.00    -0.225 N 
ATOM     24  H6  UNL     1      19.803  35.162  35.870  1.00  0.00     0.210 HD
HETATM   25  N8  UNL     1      21.801  37.339  34.774  1.00  0.00    -0.266 N 
ATOM     26  H7  UNL     1      21.244  36.991  36.769  1.00  0.00     0.210 HD
HETATM   27  C11 UNL     1      22.701  38.434  34.942  1.00  0.00     0.181 C 
ENDBRANCH  11  19
ENDBRANCH   8  11
ENDBRANCH   3   5
BRANCH   2  28
HETATM   28  C12 UNL     1      25.420  31.024  31.127  1.00  0.00     0.151 C 
HETATM   29  N9  UNL     1      25.505  30.564  32.337  1.00  0.00    -0.251 N 
ATOM     30  H9  UNL     1      26.030  29.705  32.503  1.00  0.00     0.196 HD
BRANCH  29  31
HETATM   31  O2  UNL     1      24.912  31.197  33.400  1.00  0.00    -0.288 OA
ATOM     32  H2  UNL     1      24.041  30.966  33.703  1.00  0.00     0.244 HD
ENDBRANCH  29  31
BRANCH  28  33
HETATM   33  N10 UNL     1      26.083  30.268  30.120  1.00  0.00    -0.311 N 
ATOM     34  H10 UNL     1      26.454  30.721  29.285  1.00  0.00     0.170 HD
BRANCH  33  35
HETATM   35  C13 UNL     1      26.218  28.848  30.310  1.00  0.00     0.185 A 
HETATM   36  N11 UNL     1      27.192  28.045  30.319  1.00  0.00    -0.301 N 
HETATM   37  C14 UNL     1      26.380  26.907  30.570  1.00  0.00     0.306 A 
ATOM     38  H11 UNL     1      28.197  28.169  30.192  1.00  0.00     0.168 HD
HETATM   39  N15 UNL     1      25.312  27.819  30.555  1.00  0.00    -0.301 N 
ATOM     40  H15 UNL     1      24.301  27.755  30.674  1.00  0.00     0.168 HD
BRANCH  37  41
HETATM   41  N12 UNL     1      26.643  26.336  31.885  1.00  0.00    -0.024 NA
BRANCH  41  42
HETATM   42  O3  UNL     1      25.627  25.517  32.254  1.00  0.00    -0.291 OA
ATOM     43  H3  UNL     1      25.433  25.626  33.177  1.00  0.00     0.239 HD
ENDBRANCH  41  42
ENDBRANCH  37  41
BRANCH  37  44
HETATM   44  N13 UNL     1      26.407  25.927  29.515  1.00  0.00    -0.280 N 
HETATM   45  N14 UNL     1      26.755  24.770  29.788  1.00  0.00    -0.345 N 
ATOM     46 2H14 UNL     1      27.014  24.533  30.746  1.00  0.00     0.176 HD
ATOM     47 1H14 UNL     1      26.774  24.076  29.041  1.00  0.00     0.176 HD
ATOM     48  H13 UNL     1      26.146  26.180  28.562  1.00  0.00     0.185 HD
ENDBRANCH  37  44
ENDBRANCH  33  35
ENDBRANCH  28  33
ENDBRANCH   2  28
TORSDOF 11
ENDMDL
MODEL 2
REMARK VINA RESULT: -7.939694695      3.019      9.150
REMARK  11 active torsions:
REMARK  status: ('A' for Active; 'I' for Inactive)
REMARK    1  A    between atoms: C2_2  and  C12_28 
REMARK    2  A    between atoms: N1_3  and  N2_5 
REMARK       I    between atoms: N2_5  and  C3_7 
REMARK       I    between atoms: C3_7  and  N3_9 
REMARK    3  A    between atoms: N3_9  and  C4_11 
REMARK    4  A    between atoms: C4_11  and  C5_12 
REMARK    5  A    between atoms: C4_11  and  C10_19 
REMARK    6  A    between atoms: C12_28  and  N10_33 
REMARK    7  A    between atoms: N9_29  and  O2_31 
REMARK    8  A    between atoms: N10_33  and  C13_35 
REMARK    9  A    between atoms: C14_38  and  N12_39 
REMARK   10  A    between atoms: C14_38  and  N13_42 
REMARK   11  A    between atoms: N12_39  and  O3_40 
ROOT
HETATM    1  C1  UNL     1      21.560  36.910  29.183  1.00  0.00     0.074 C 
HETATM    2  C2  UNL     1      22.171  37.273  30.476  1.00  0.00     0.068 C 
HETATM    3  N1  UNL     1      22.554  36.346  31.271  1.00  0.00    -0.298 N 
ATOM      4  H1  UNL     1      22.975  36.604  32.163  1.00  0.00     0.187 HD
ENDROOT
BRANCH   3   5
HETATM    5  N2  UNL     1      22.413  34.998  30.955  1.00  0.00    -0.251 N 
HETATM    6  C3  UNL     1      23.435  34.041  31.146  1.00  0.00     0.335 C 
HETATM    7  O1  UNL     1      24.562  34.397  31.632  1.00  0.00    -0.246 OA
HETATM    8  N3  UNL     1      23.231  32.680  30.804  1.00  0.00    -0.325 N 
ATOM      9  H3  UNL     1      22.327  32.411  30.415  1.00  0.00     0.165 HD
ATOM     10  H2  UNL     1      21.524  34.684  30.564  1.00  0.00     0.191 HD
BRANCH   8  11
HETATM   11  C4  UNL     1      24.234  31.654  30.975  1.00  0.00     0.207 C 
BRANCH  11  12
HETATM   12  C5  UNL     1      25.423  31.821  30.115  1.00  0.00     0.039 A 
HETATM   13  C6  UNL     1      26.288  30.778  29.938  1.00  0.00     0.027 A 
HETATM   14  C7  UNL     1      27.398  30.899  29.146  1.00  0.00     0.003 A 
HETATM   15  C8  UNL     1      27.643  32.100  28.519  1.00  0.00     0.017 A 
HETATM   16  C9  UNL     1      26.768  33.148  28.701  1.00  0.00     0.088 A 
HETATM   17  N4  UNL     1      25.686  32.995  29.486  1.00  0.00    -0.367 N 
ATOM     18  H4  UNL     1      25.048  33.781  29.612  1.00  0.00     0.165 HD
ENDBRANCH  11  12
BRANCH  11  19
HETATM   19  C10 UNL     1      24.539  31.328  32.385  1.00  0.00     0.144 A 
HETATM   20  N5  UNL     1      24.601  32.228  33.411  1.00  0.00    -0.270 N 
HETATM   21  N6  UNL     1      24.903  31.620  34.538  1.00  0.00    -0.227 N 
ATOM     22  H5  UNL     1      24.436  33.230  33.316  1.00  0.00     0.190 HD
HETATM   23  N7  UNL     1      25.036  30.354  34.263  1.00  0.00    -0.225 N 
ATOM     24  H6  UNL     1      25.011  32.057  35.454  1.00  0.00     0.210 HD
HETATM   25  N8  UNL     1      24.821  30.145  32.956  1.00  0.00    -0.266 N 
ATOM     26  H7  UNL     1      25.271  29.628  34.941  1.00  0.00     0.210 HD
HETATM   27  C11 UNL     1      24.899  28.866  32.329  1.00  0.00     0.181 C 
ENDBRANCH  11  19
ENDBRANCH   8  11
ENDBRANCH   3   5
BRANCH   2  28
HETATM   28  C12 UNL     1      22.327  38.669  30.824  1.00  0.00     0.151 C 
HETATM   29  N9  UNL     1      23.133  39.463  30.188  1.00  0.00    -0.251 N 
ATOM     30  H9  UNL     1      23.200  40.437  30.481  1.00  0.00     0.196 HD
BRANCH  29  31
HETATM   31  O2  UNL     1      23.898  39.032  29.133  1.00  0.00    -0.288 OA
ATOM     32  H2  UNL     1      24.675  38.500  29.257  1.00  0.00     0.244 HD
ENDBRANCH  29  31
BRANCH  28  33
HETATM   33  N10 UNL     1      21.595  39.248  31.897  1.00  0.00    -0.311 N 
ATOM     34  H10 UNL     1      21.085  40.121  31.771  1.00  0.00     0.170 HD
BRANCH  33  35
HETATM   35  C13 UNL     1      21.591  38.570  33.166  1.00  0.00     0.185 A 
HETATM   36  N11 UNL     1      22.462  38.345  34.052  1.00  0.00    -0.301 N 
HETATM   37  C14 UNL     1      21.565  37.638  34.897  1.00  0.00     0.306 A 
ATOM     38  H11 UNL     1      23.451  38.583  34.132  1.00  0.00     0.168 HD
HETATM   39  N15 UNL     1      20.613  37.901  33.898  1.00  0.00    -0.301 N 
ATOM     40  H15 UNL     1      19.624  37.690  33.765  1.00  0.00     0.168 HD
BRANCH  37  41
HETATM   41  N12 UNL     1      21.318  38.355  36.142  1.00  0.00    -0.024 NA
BRANCH  41  42
HETATM   42  O3  UNL     1      20.090  38.046  36.627  1.00  0.00    -0.291 OA
ATOM     43  H3  UNL     1      19.882  38.597  37.372  1.00  0.00     0.239 HD
ENDBRANCH  41  42
ENDBRANCH  37  41
BRANCH  37  44
HETATM   44  N13 UNL     1      21.921  36.258  35.103  1.00  0.00    -0.280 N 
HETATM   45  N14 UNL     1      21.489  35.677  36.107  1.00  0.00    -0.345 N 
ATOM     46 2H14 UNL     1      20.894  36.180  36.765  1.00  0.00     0.176 HD
ATOM     47 1H14 UNL     1      21.742  34.700  36.253  1.00  0.00     0.176 HD
ATOM     48  H13 UNL     1      22.518  35.769  34.435  1.00  0.00     0.185 HD
ENDBRANCH  37  44
ENDBRANCH  33  35
ENDBRANCH  28  33
ENDBRANCH   2  28
TORSDOF 11
ENDMDL
MODEL 3
REMARK VINA RESULT: -7.832283809      2.777     11.515
REMARK  11 active torsions:
REMARK  status: ('A' for Active; 'I' for Inactive)
REMARK    1  A    between atoms: C2_2  and  C12_28 
REMARK    2  A    between atoms: N1_3  and  N2_5 
REMARK       I    between atoms: N2_5  and  C3_7 
REMARK       I    between atoms: C3_7  and  N3_9 
REMARK    3  A    between atoms: N3_9  and  C4_11 
REMARK    4  A    between atoms: C4_11  and  C5_12 
REMARK    5  A    between atoms: C4_11  and  C10_19 
REMARK    6  A    between atoms: C12_28  and  N10_33 
REMARK    7  A    between atoms: N9_29  and  O2_31 
REMARK    8  A    between atoms: N10_33  and  C13_35 
REMARK    9  A    between atoms: C14_38  and  N12_39 
REMARK   10  A    between atoms: C14_38  and  N13_42 
REMARK   11  A    between atoms: N12_39  and  O3_40 
ROOT
HETATM    1  C1  UNL     1      23.507  31.463  30.761  1.00  0.00     0.074 C 
HETATM    2  C2  UNL     1      24.435  31.106  31.851  1.00  0.00     0.068 C 
HETATM    3  N1  UNL     1      25.008  29.962  31.838  1.00  0.00    -0.298 N 
ATOM      4  H1  UNL     1      25.649  29.722  32.594  1.00  0.00     0.187 HD
ENDROOT
BRANCH   3   5
HETATM    5  N2  UNL     1      24.785  29.037  30.822  1.00  0.00    -0.251 N 
HETATM    6  C3  UNL     1      25.747  28.090  30.404  1.00  0.00     0.335 C 
HETATM    7  O1  UNL     1      26.894  28.054  30.965  1.00  0.00    -0.246 OA
HETATM    8  N3  UNL     1      25.459  27.172  29.362  1.00  0.00    -0.325 N 
ATOM      9  H3  UNL     1      24.540  27.214  28.922  1.00  0.00     0.165 HD
ATOM     10  H2  UNL     1      23.878  29.043  30.355  1.00  0.00     0.191 HD
BRANCH   8  11
HETATM   11  C4  UNL     1      26.398  26.180  28.889  1.00  0.00     0.207 C 
BRANCH  11  12
HETATM   12  C5  UNL     1      26.500  24.985  29.750  1.00  0.00     0.039 A 
HETATM   13  C6  UNL     1      26.933  23.801  29.223  1.00  0.00     0.027 A 
HETATM   14  C7  UNL     1      27.041  22.674  29.994  1.00  0.00     0.003 A 
HETATM   15  C8  UNL     1      26.705  22.743  31.327  1.00  0.00     0.017 A 
HETATM   16  C9  UNL     1      26.269  23.939  31.852  1.00  0.00     0.088 A 
HETATM   17  N4  UNL     1      26.174  25.027  31.067  1.00  0.00    -0.367 N 
ATOM     18  H4  UNL     1      25.849  25.905  31.471  1.00  0.00     0.165 HD
ENDBRANCH  11  12
BRANCH  11  19
HETATM   19  C10 UNL     1      26.299  25.886  27.443  1.00  0.00     0.144 A 
HETATM   20  N5  UNL     1      25.412  25.019  26.870  1.00  0.00    -0.270 N 
HETATM   21  N6  UNL     1      25.587  24.977  25.566  1.00  0.00    -0.227 N 
ATOM     22  H5  UNL     1      24.713  24.479  27.381  1.00  0.00     0.190 HD
HETATM   23  N7  UNL     1      26.562  25.795  25.288  1.00  0.00    -0.225 N 
ATOM     24  H6  UNL     1      25.060  24.411  24.900  1.00  0.00     0.210 HD
HETATM   25  N8  UNL     1      27.016  26.364  26.414  1.00  0.00    -0.266 N 
ATOM     26  H7  UNL     1      26.926  25.976  24.352  1.00  0.00     0.210 HD
HETATM   27  C11 UNL     1      28.088  27.305  26.455  1.00  0.00     0.181 C 
ENDBRANCH  11  19
ENDBRANCH   8  11
ENDBRANCH   3   5
BRANCH   2  28
HETATM   28  C12 UNL     1      24.682  32.054  32.916  1.00  0.00     0.151 C 
HETATM   29  N9  UNL     1      24.941  31.688  34.133  1.00  0.00    -0.251 N 
ATOM     30  H9  UNL     1      25.107  32.404  34.841  1.00  0.00     0.196 HD
BRANCH  29  31
HETATM   31  O2  UNL     1      25.000  30.367  34.500  1.00  0.00    -0.288 OA
ATOM     32  H2  UNL     1      25.269  30.095  35.369  1.00  0.00     0.244 HD
ENDBRANCH  29  31
BRANCH  28  33
HETATM   33  N10 UNL     1      24.653  33.456  32.676  1.00  0.00    -0.311 N 
ATOM     34  H10 UNL     1      25.461  33.936  32.281  1.00  0.00     0.170 HD
BRANCH  33  35
HETATM   35  C13 UNL     1      23.455  34.181  33.005  1.00  0.00     0.185 A 
HETATM   36  N11 UNL     1      22.289  33.849  33.360  1.00  0.00    -0.301 N 
HETATM   37  C14 UNL     1      21.827  35.190  33.450  1.00  0.00     0.306 A 
ATOM     38  H11 UNL     1      21.842  32.947  33.522  1.00  0.00     0.168 HD
HETATM   39  N15 UNL     1      23.130  35.535  33.054  1.00  0.00    -0.301 N 
ATOM     40  H15 UNL     1      23.628  36.407  32.878  1.00  0.00     0.168 HD
BRANCH  37  41
HETATM   41  N12 UNL     1      21.516  35.562  34.824  1.00  0.00    -0.024 NA
BRANCH  41  42
HETATM   42  O3  UNL     1      20.395  34.923  35.242  1.00  0.00    -0.291 OA
ATOM     43  H3  UNL     1      20.494  33.984  35.141  1.00  0.00     0.239 HD
ENDBRANCH  41  42
ENDBRANCH  37  41
BRANCH  37  44
HETATM   44  N13 UNL     1      20.767  35.505  32.527  1.00  0.00    -0.280 N 
HETATM   45  N14 UNL     1      19.935  36.363  32.850  1.00  0.00    -0.345 N 
ATOM     46 2H14 UNL     1      20.013  36.828  33.755  1.00  0.00     0.176 HD
ATOM     47 1H14 UNL     1      19.184  36.586  32.196  1.00  0.00     0.176 HD
ATOM     48  H13 UNL     1      20.703  35.031  31.626  1.00  0.00     0.185 HD
ENDBRANCH  37  44
ENDBRANCH  33  35
ENDBRANCH  28  33
ENDBRANCH   2  28
TORSDOF 11
ENDMDL
MODEL 4
REMARK VINA RESULT: -7.795602431      2.603     11.100
REMARK  11 active torsions:
REMARK  status: ('A' for Active; 'I' for Inactive)
REMARK    1  A    between atoms: C2_2  and  C12_28 
REMARK    2  A    between atoms: N1_3  and  N2_5 
REMARK       I    between atoms: N2_5  and  C3_7 
REMARK       I    between atoms: C3_7  and  N3_9 
REMARK    3  A    between atoms: N3_9  and  C4_11 
REMARK    4  A    between atoms: C4_11  and  C5_12 
REMARK    5  A    between atoms: C4_11  and  C10_19 
REMARK    6  A    between atoms: C12_28  and  N10_33 
REMARK    7  A    between atoms: N9_29  and  O2_31 
REMARK    8  A    between atoms: N10_33  and  C13_35 
REMARK    9  A    between atoms: C14_38  and  N12_39 
REMARK   10  A    between atoms: C14_38  and  N13_42 
REMARK   11  A    between atoms: N12_39  and  O3_40 
ROOT
HETATM    1  C1  UNL     1      26.078  32.338  30.190  1.00  0.00     0.074 C 
HETATM    2  C2  UNL     1      25.301  31.784  31.315  1.00  0.00     0.068 C 
HETATM    3  N1  UNL     1      25.378  30.534  31.576  1.00  0.00    -0.298 N 
ATOM      4  H1  UNL     1      24.839  30.158  32.356  1.00  0.00     0.187 HD
ENDROOT
BRANCH   3   5
HETATM    5  N2  UNL     1      26.176  29.672  30.829  1.00  0.00    -0.251 N 
HETATM    6  C3  UNL     1      25.729  28.424  30.337  1.00  0.00     0.335 C 
HETATM    7  O1  UNL     1      24.536  28.034  30.574  1.00  0.00    -0.246 OA
HETATM    8  N3  UNL     1      26.591  27.590  29.581  1.00  0.00    -0.325 N 
ATOM      9  H3  UNL     1      27.541  27.914  29.401  1.00  0.00     0.165 HD
ATOM     10  H2  UNL     1      27.135  29.957  30.625  1.00  0.00     0.191 HD
BRANCH   8  11
HETATM   11  C4  UNL     1      26.195  26.305  29.050  1.00  0.00     0.207 C 
BRANCH  11  12
HETATM   12  C5  UNL     1      26.500  26.122  27.617  1.00  0.00     0.039 A 
HETATM   13  C6  UNL     1      25.794  25.213  26.882  1.00  0.00     0.027 A 
HETATM   14  C7  UNL     1      26.050  25.021  25.550  1.00  0.00     0.003 A 
HETATM   15  C8  UNL     1      27.042  25.761  24.947  1.00  0.00     0.017 A 
HETATM   16  C9  UNL     1      27.750  26.675  25.694  1.00  0.00     0.088 A 
HETATM   17  N4  UNL     1      27.474  26.840  27.000  1.00  0.00    -0.367 N 
ATOM     18  H4  UNL     1      28.008  27.520  27.540  1.00  0.00     0.165 HD
ENDBRANCH  11  12
BRANCH  11  19
HETATM   19  C10 UNL     1      26.559  25.154  29.905  1.00  0.00     0.144 A 
HETATM   20  N5  UNL     1      27.164  24.007  29.475  1.00  0.00    -0.270 N 
HETATM   21  N6  UNL     1      27.343  23.177  30.480  1.00  0.00    -0.227 N 
ATOM     22  H5  UNL     1      27.438  23.820  28.510  1.00  0.00     0.190 HD
HETATM   23  N7  UNL     1      26.870  23.761  31.544  1.00  0.00    -0.225 N 
ATOM     24  H6  UNL     1      27.771  22.252  30.435  1.00  0.00     0.210 HD
HETATM   25  N8  UNL     1      26.384  24.969  31.224  1.00  0.00    -0.266 N 
ATOM     26  H7  UNL     1      26.869  23.359  32.482  1.00  0.00     0.210 HD
HETATM   27  C11 UNL     1      25.786  25.862  32.162  1.00  0.00     0.181 C 
ENDBRANCH  11  19
ENDBRANCH   8  11
ENDBRANCH   3   5
BRANCH   2  28
HETATM   28  C12 UNL     1      24.466  32.663  32.106  1.00  0.00     0.151 C 
HETATM   29  N9  UNL     1      24.327  32.529  33.389  1.00  0.00    -0.251 N 
ATOM     30  H9  UNL     1      23.724  33.180  33.891  1.00  0.00     0.196 HD
BRANCH  29  31
HETATM   31  O2  UNL     1      24.966  31.539  34.092  1.00  0.00    -0.288 OA
ATOM     32  H2  UNL     1      25.882  31.604  34.336  1.00  0.00     0.244 HD
ENDBRANCH  29  31
BRANCH  28  33
HETATM   33  N10 UNL     1      23.745  33.732  31.505  1.00  0.00    -0.311 N 
ATOM     34  H10 UNL     1      23.956  34.036  30.555  1.00  0.00     0.170 HD
BRANCH  33  35
HETATM   35  C13 UNL     1      22.712  34.376  32.272  1.00  0.00     0.185 A 
HETATM   36  N11 UNL     1      21.463  34.224  32.378  1.00  0.00    -0.301 N 
HETATM   37  C14 UNL     1      21.316  35.269  33.328  1.00  0.00     0.306 A 
ATOM     38  H11 UNL     1      20.801  33.583  31.939  1.00  0.00     0.168 HD
HETATM   39  N15 UNL     1      22.706  35.420  33.194  1.00  0.00    -0.301 N 
ATOM     40  H15 UNL     1      23.411  36.035  33.600  1.00  0.00     0.168 HD
BRANCH  37  41
HETATM   41  N12 UNL     1      20.906  34.760  34.631  1.00  0.00    -0.024 NA
BRANCH  41  42
HETATM   42  O3  UNL     1      21.004  35.736  35.569  1.00  0.00    -0.291 OA
ATOM     43  H3  UNL     1      21.108  36.583  35.153  1.00  0.00     0.239 HD
ENDBRANCH  41  42
ENDBRANCH  37  41
BRANCH  37  44
HETATM   44  N13 UNL     1      20.500  36.364  32.869  1.00  0.00    -0.280 N 
HETATM   45  N14 UNL     1      19.404  36.557  33.413  1.00  0.00    -0.345 N 
ATOM     46 2H14 UNL     1      19.101  35.943  34.170  1.00  0.00     0.176 HD
ATOM     47 1H14 UNL     1      18.827  37.332  33.088  1.00  0.00     0.176 HD
ATOM     48  H13 UNL     1      20.817  36.968  32.111  1.00  0.00     0.185 HD
ENDBRANCH  37  44
ENDBRANCH  33  35
ENDBRANCH  28  33
ENDBRANCH   2  28
TORSDOF 11
ENDMDL
MODEL 5
REMARK VINA RESULT: -7.627166252      1.578      3.298
REMARK  11 active torsions:
REMARK  status: ('A' for Active; 'I' for Inactive)
REMARK    1  A    between atoms: C2_2  and  C12_28 
REMARK    2  A    between atoms: N1_3  and  N2_5 
REMARK       I    between atoms: N2_5  and  C3_7 
REMARK       I    between atoms: C3_7  and  N3_9 
REMARK    3  A    between atoms: N3_9  and  C4_11 
REMARK    4  A    between atoms: C4_11  and  C5_12 
REMARK    5  A    between atoms: C4_11  and  C10_19 
REMARK    6  A    between atoms: C12_28  and  N10_33 
REMARK    7  A    between atoms: N9_29  and  O2_31 
REMARK    8  A    between atoms: N10_33  and  C13_35 
REMARK    9  A    between atoms: C14_38  and  N12_39 
REMARK   10  A    between atoms: C14_38  and  N13_42 
REMARK   11  A    between atoms: N12_39  and  O3_40 
ROOT
HETATM    1  C1  UNL     1      24.462  34.035  30.198  1.00  0.00     0.074 C 
HETATM    2  C2  UNL     1      24.022  33.042  31.196  1.00  0.00     0.068 C 
HETATM    3  N1  UNL     1      22.833  33.105  31.663  1.00  0.00    -0.298 N 
ATOM      4  H1  UNL     1      22.535  32.415  32.353  1.00  0.00     0.187 HD
ENDROOT
BRANCH   3   5
HETATM    5  N2  UNL     1      21.933  34.087  31.258  1.00  0.00    -0.251 N 
HETATM    6  C3  UNL     1      21.887  35.383  31.821  1.00  0.00     0.335 C 
HETATM    7  O1  UNL     1      22.699  35.703  32.754  1.00  0.00    -0.246 OA
HETATM    8  N3  UNL     1      20.946  36.341  31.366  1.00  0.00    -0.325 N 
ATOM      9  H3  UNL     1      20.303  36.070  30.621  1.00  0.00     0.165 HD
ATOM     10  H2  UNL     1      21.271  33.859  30.516  1.00  0.00     0.191 HD
BRANCH   8  11
HETATM   11  C4  UNL     1      20.848  37.681  31.899  1.00  0.00     0.207 C 
BRANCH  11  12
HETATM   12  C5  UNL     1      21.109  37.775  33.349  1.00  0.00     0.039 A 
HETATM   13  C6  UNL     1      20.223  37.232  34.237  1.00  0.00     0.027 A 
HETATM   14  C7  UNL     1      20.436  37.300  35.588  1.00  0.00     0.003 A 
HETATM   15  C8  UNL     1      21.567  37.931  36.054  1.00  0.00     0.017 A 
HETATM   16  C9  UNL     1      22.456  38.476  35.154  1.00  0.00     0.088 A 
HETATM   17  N4  UNL     1      22.217  38.392  33.834  1.00  0.00    -0.367 N 
ATOM     18  H4  UNL     1      22.884  38.801  33.180  1.00  0.00     0.165 HD
ENDBRANCH  11  12
BRANCH  11  19
HETATM   19  C10 UNL     1      21.529  38.712  31.086  1.00  0.00     0.144 A 
HETATM   20  N5  UNL     1      22.766  38.586  30.521  1.00  0.00    -0.270 N 
HETATM   21  N6  UNL     1      23.088  39.683  29.870  1.00  0.00    -0.227 N 
ATOM     22  H5  UNL     1      23.357  37.758  30.593  1.00  0.00     0.190 HD
HETATM   23  N7  UNL     1      22.090  40.510  30.002  1.00  0.00    -0.225 N 
ATOM     24  H6  UNL     1      23.955  39.854  29.358  1.00  0.00     0.210 HD
HETATM   25  N8  UNL     1      21.124  39.945  30.740  1.00  0.00    -0.266 N 
ATOM     26  H7  UNL     1      22.049  41.448  29.604  1.00  0.00     0.210 HD
HETATM   27  C11 UNL     1      19.898  40.591  31.078  1.00  0.00     0.181 C 
ENDBRANCH  11  19
ENDBRANCH   8  11
ENDBRANCH   3   5
BRANCH   2  28
HETATM   28  C12 UNL     1      24.942  32.011  31.630  1.00  0.00     0.151 C 
HETATM   29  N9  UNL     1      25.086  31.682  32.876  1.00  0.00    -0.251 N 
ATOM     30  H9  UNL     1      25.751  30.947  33.120  1.00  0.00     0.196 HD
BRANCH  29  31
HETATM   31  O2  UNL     1      24.372  32.290  33.878  1.00  0.00    -0.288 OA
ATOM     32  H2  UNL     1      24.511  32.082  34.795  1.00  0.00     0.244 HD
ENDBRANCH  29  31
BRANCH  28  33
HETATM   33  N10 UNL     1      25.745  31.299  30.696  1.00  0.00    -0.311 N 
ATOM     34  H10 UNL     1      26.376  31.793  30.066  1.00  0.00     0.170 HD
BRANCH  33  35
HETATM   35  C13 UNL     1      25.645  29.865  30.663  1.00  0.00     0.185 A 
HETATM   36  N11 UNL     1      26.482  28.919  30.661  1.00  0.00    -0.301 N 
HETATM   37  C14 UNL     1      25.487  27.906  30.616  1.00  0.00     0.306 A 
ATOM     38  H11 UNL     1      27.501  28.892  30.682  1.00  0.00     0.168 HD
HETATM   39  N15 UNL     1      24.574  28.974  30.619  1.00  0.00    -0.301 N 
ATOM     40  H15 UNL     1      23.559  29.061  30.599  1.00  0.00     0.168 HD
BRANCH  37  41
HETATM   41  N12 UNL     1      25.466  27.116  31.842  1.00  0.00    -0.024 NA
BRANCH  41  42
HETATM   42  O3  UNL     1      26.728  26.778  32.204  1.00  0.00    -0.291 OA
ATOM     43  H3  UNL     1      27.359  27.206  31.639  1.00  0.00     0.239 HD
ENDBRANCH  41  42
ENDBRANCH  37  41
BRANCH  37  44
HETATM   44  N13 UNL     1      25.530  27.097  29.425  1.00  0.00    -0.280 N 
HETATM   45  N14 UNL     1      26.047  25.974  29.489  1.00  0.00    -0.345 N 
ATOM     46 2H14 UNL     1      26.430  25.643  30.376  1.00  0.00     0.176 HD
ATOM     47 1H14 UNL     1      26.078  25.401  28.646  1.00  0.00     0.176 HD
ATOM     48  H13 UNL     1      25.143  27.443  28.547  1.00  0.00     0.185 HD
ENDBRANCH  37  44
ENDBRANCH  33  35
ENDBRANCH  28  33
ENDBRANCH   2  28
TORSDOF 11
ENDMDL
