MODEL 1
REMARK VINA RESULT: -8.409460399      0.000      0.000
REMARK  5 active torsions:
REMARK  status: ('A' for Active; 'I' for Inactive)
REMARK    1  A    between atoms: C3_3  and  C4_4 
REMARK    2  A    between atoms: C7_11  and  N2_12 
REMARK    3  A    between atoms: N3_15  and  O2_17 
REMARK    4  A    between atoms: C10_19  and  O3_20 
REMARK    5  A    between atoms: C10_19  and  C11_22 
ROOT
HETATM    1  N2  UNL     1      20.962   7.305  23.732  1.00  0.00    -0.371 N 
HETATM    2  C8  UNL     1      19.652   6.697  23.912  1.00  0.00     0.181 C 
HETATM    3  C9  UNL     1      19.521   6.847  25.399  1.00  0.00     0.064 C 
HETATM    4  N3  UNL     1      19.056   5.945  26.168  1.00  0.00    -0.273 N 
ATOM      5  H3  UNL     1      19.014   6.160  27.164  1.00  0.00     0.193 HD
HETATM    6  C10 UNL     1      20.033   8.197  25.667  1.00  0.00     0.122 C 
HETATM    7  C15 UNL     1      21.166   8.343  24.715  1.00  0.00     0.168 C 
ENDROOT
BRANCH   1   8
HETATM    8  C7  UNL     1      21.879   6.831  22.703  1.00  0.00     0.050 A 
HETATM    9  C6  UNL     1      22.711   5.824  23.129  1.00  0.00     0.081 A 
HETATM   10  S2  UNL     1      23.617   5.360  21.796  1.00  0.00    -0.091 SA
HETATM   11  C5  UNL     1      22.917   6.477  20.670  1.00  0.00     0.059 A 
HETATM   12  S1  UNL     1      22.903   7.054  19.058  1.00  0.00    -0.076 SA
HETATM   13  C16 UNL     1      21.984   7.198  21.367  1.00  0.00     0.022 A 
HETATM   14  C3  UNL     1      21.692   8.230  19.269  1.00  0.00     0.077 A 
HETATM   15  C2  UNL     1      21.327   8.156  20.579  1.00  0.00    -0.025 A 
HETATM   16  C1  UNL     1      20.293   9.173  21.054  1.00  0.00     0.050 C 
BRANCH  14  17
HETATM   17  C4  UNL     1      21.154   9.088  18.196  1.00  0.00     0.272 C 
HETATM   18  N1  UNL     1      22.075   9.846  17.431  1.00  0.00    -0.057 NA
HETATM   19  O1  UNL     1      19.972   9.164  17.951  1.00  0.00    -0.270 OA
ENDBRANCH  14  17
ENDBRANCH   1   8
BRANCH   6  20
HETATM   20  O3  UNL     1      19.043   9.134  25.352  1.00  0.00    -0.381 OA
ATOM     21  H3  UNL     1      18.713   9.521  26.155  1.00  0.00     0.211 HD
ENDBRANCH   6  20
BRANCH   6  22
HETATM   22  C11 UNL     1      20.405   8.427  27.103  1.00  0.00    -0.013 C 
HETATM   23  C12 UNL     1      21.241   9.680  27.168  1.00  0.00     0.018 C 
HETATM   24  C13 UNL     1      19.132   8.681  27.880  1.00  0.00     0.018 C 
HETATM   25  C14 UNL     1      21.168   7.282  27.715  1.00  0.00     0.018 C 
ENDBRANCH   6  22
BRANCH   4  26
HETATM   26  O2  UNL     1      18.613   4.726  25.781  1.00  0.00    -0.290 OA
ATOM     27  H2  UNL     1      17.872   4.561  25.209  1.00  0.00     0.244 HD
ENDBRANCH   4  26
TORSDOF 5
ENDMDL
MODEL 2
REMARK VINA RESULT: -7.583684589      5.257      7.554
REMARK  5 active torsions:
REMARK  status: ('A' for Active; 'I' for Inactive)
REMARK    1  A    between atoms: C3_3  and  C4_4 
REMARK    2  A    between atoms: C7_11  and  N2_12 
REMARK    3  A    between atoms: N3_15  and  O2_17 
REMARK    4  A    between atoms: C10_19  and  O3_20 
REMARK    5  A    between atoms: C10_19  and  C11_22 
ROOT
HETATM    1  N2  UNL     1      23.726   4.564  19.846  1.00  0.00    -0.371 N 
HETATM    2  C8  UNL     1      23.150   3.714  20.877  1.00  0.00     0.181 C 
HETATM    3  C9  UNL     1      23.355   2.377  20.228  1.00  0.00     0.064 C 
HETATM    4  N3  UNL     1      22.491   1.443  20.231  1.00  0.00    -0.273 N 
ATOM      5  H3  UNL     1      22.742   0.575  19.756  1.00  0.00     0.193 HD
HETATM    6  C10 UNL     1      24.704   2.464  19.654  1.00  0.00     0.122 C 
HETATM    7  C15 UNL     1      24.795   3.867  19.170  1.00  0.00     0.168 C 
ENDROOT
BRANCH   1   8
HETATM    8  C7  UNL     1      23.198   5.897  19.585  1.00  0.00     0.050 A 
HETATM    9  C6  UNL     1      22.647   6.497  20.691  1.00  0.00     0.081 A 
HETATM   10  S2  UNL     1      22.181   8.036  20.214  1.00  0.00    -0.091 SA
HETATM   11  C5  UNL     1      22.702   7.909  18.565  1.00  0.00     0.059 A 
HETATM   12  S1  UNL     1      22.832   8.694  17.049  1.00  0.00    -0.076 SA
HETATM   13  C16 UNL     1      23.231   6.655  18.420  1.00  0.00     0.022 A 
HETATM   14  C3  UNL     1      23.572   7.408  16.214  1.00  0.00     0.077 A 
HETATM   15  C2  UNL     1      23.699   6.401  17.121  1.00  0.00    -0.025 A 
HETATM   16  C1  UNL     1      24.273   5.087  16.600  1.00  0.00     0.050 C 
BRANCH  14  17
HETATM   17  C4  UNL     1      24.010   7.459  14.806  1.00  0.00     0.272 C 
HETATM   18  N1  UNL     1      23.091   7.947  13.844  1.00  0.00    -0.057 NA
HETATM   19  O1  UNL     1      25.112   7.105  14.451  1.00  0.00    -0.270 OA
ENDBRANCH  14  17
ENDBRANCH   1   8
BRANCH   6  20
HETATM   20  O3  UNL     1      25.648   2.265  20.668  1.00  0.00    -0.381 OA
ATOM     21  H3  UNL     1      26.210   3.029  20.726  1.00  0.00     0.211 HD
ENDBRANCH   6  20
BRANCH   6  22
HETATM   22  C11 UNL     1      24.979   1.432  18.600  1.00  0.00    -0.013 C 
HETATM   23  C12 UNL     1      23.943   1.592  17.517  1.00  0.00     0.018 C 
HETATM   24  C13 UNL     1      26.332   1.734  17.992  1.00  0.00     0.018 C 
HETATM   25  C14 UNL     1      24.947   0.019  19.121  1.00  0.00     0.018 C 
ENDBRANCH   6  22
BRANCH   4  26
HETATM   26  O2  UNL     1      21.268   1.498  20.807  1.00  0.00    -0.290 OA
ATOM     27  H2  UNL     1      20.756   0.751  21.097  1.00  0.00     0.244 HD
ENDBRANCH   4  26
TORSDOF 5
ENDMDL
MODEL 3
REMARK VINA RESULT: -7.357690317      4.879      6.875
REMARK  5 active torsions:
REMARK  status: ('A' for Active; 'I' for Inactive)
REMARK    1  A    between atoms: C3_3  and  C4_4 
REMARK    2  A    between atoms: C7_11  and  N2_12 
REMARK    3  A    between atoms: N3_15  and  O2_17 
REMARK    4  A    between atoms: C10_19  and  O3_20 
REMARK    5  A    between atoms: C10_19  and  C11_22 
ROOT
HETATM    1  N2  UNL     1      23.671   4.999  20.071  1.00  0.00    -0.371 N 
HETATM    2  C8  UNL     1      24.161   4.852  21.433  1.00  0.00     0.181 C 
HETATM    3  C9  UNL     1      23.899   3.387  21.625  1.00  0.00     0.064 C 
HETATM    4  N3  UNL     1      23.423   2.882  22.692  1.00  0.00    -0.273 N 
ATOM      5  H3  UNL     1      23.288   1.871  22.707  1.00  0.00     0.193 HD
HETATM    6  C10 UNL     1      24.313   2.783  20.352  1.00  0.00     0.122 C 
HETATM    7  C15 UNL     1      23.889   3.778  19.331  1.00  0.00     0.168 C 
ENDROOT
BRANCH   1   8
HETATM    8  C7  UNL     1      23.030   6.231  19.628  1.00  0.00     0.050 A 
HETATM    9  C6  UNL     1      22.324   6.870  20.618  1.00  0.00     0.081 A 
HETATM   10  S2  UNL     1      21.742   8.291  19.944  1.00  0.00    -0.091 SA
HETATM   11  C5  UNL     1      22.415   8.063  18.363  1.00  0.00     0.059 A 
HETATM   12  S1  UNL     1      22.593   8.704  16.785  1.00  0.00    -0.076 SA
HETATM   13  C16 UNL     1      23.084   6.869  18.395  1.00  0.00     0.022 A 
HETATM   14  C3  UNL     1      23.534   7.436  16.152  1.00  0.00     0.077 A 
HETATM   15  C2  UNL     1      23.687   6.544  17.170  1.00  0.00    -0.025 A 
HETATM   16  C1  UNL     1      24.441   5.259  16.838  1.00  0.00     0.050 C 
BRANCH  14  17
HETATM   17  C4  UNL     1      24.086   7.397  14.784  1.00  0.00     0.272 C 
HETATM   18  N1  UNL     1      23.264   7.857  13.726  1.00  0.00    -0.057 NA
HETATM   19  O1  UNL     1      25.200   6.993  14.540  1.00  0.00    -0.270 OA
ENDBRANCH  14  17
ENDBRANCH   1   8
BRANCH   6  20
HETATM   20  O3  UNL     1      25.707   2.666  20.330  1.00  0.00    -0.381 OA
ATOM     21  H3  UNL     1      26.013   2.749  19.435  1.00  0.00     0.211 HD
ENDBRANCH   6  20
BRANCH   6  22
HETATM   22  C11 UNL     1      23.760   1.405  20.131  1.00  0.00    -0.013 C 
HETATM   23  C12 UNL     1      22.308   1.420  20.534  1.00  0.00     0.018 C 
HETATM   24  C13 UNL     1      23.825   1.108  18.649  1.00  0.00     0.018 C 
HETATM   25  C14 UNL     1      24.486   0.337  20.907  1.00  0.00     0.018 C 
ENDBRANCH   6  22
BRANCH   4  26
HETATM   26  O2  UNL     1      23.081   3.566  23.808  1.00  0.00    -0.290 OA
ATOM     27  H2  UNL     1      23.377   4.440  24.037  1.00  0.00     0.244 HD
ENDBRANCH   4  26
TORSDOF 5
ENDMDL
MODEL 4
REMARK VINA RESULT: -7.267506746      3.406      4.895
REMARK  5 active torsions:
REMARK  status: ('A' for Active; 'I' for Inactive)
REMARK    1  A    between atoms: C3_3  and  C4_4 
REMARK    2  A    between atoms: C7_11  and  N2_12 
REMARK    3  A    between atoms: N3_15  and  O2_17 
REMARK    4  A    between atoms: C10_19  and  O3_20 
REMARK    5  A    between atoms: C10_19  and  C11_22 
ROOT
HETATM    1  N2  UNL     1      22.051   6.946  21.186  1.00  0.00    -0.371 N 
HETATM    2  C8  UNL     1      22.285   7.390  22.552  1.00  0.00     0.181 C 
HETATM    3  C9  UNL     1      21.920   6.130  23.279  1.00  0.00     0.064 C 
HETATM    4  N3  UNL     1      21.238   6.099  24.354  1.00  0.00    -0.273 N 
ATOM      5  H3  UNL     1      21.051   5.182  24.760  1.00  0.00     0.193 HD
HETATM    6  C10 UNL     1      22.519   5.063  22.467  1.00  0.00     0.122 C 
HETATM    7  C15 UNL     1      22.333   5.534  21.069  1.00  0.00     0.168 C 
ENDROOT
BRANCH   1   8
HETATM    8  C7  UNL     1      21.561   7.866  20.167  1.00  0.00     0.050 A 
HETATM    9  C6  UNL     1      20.513   8.647  20.589  1.00  0.00     0.081 A 
HETATM   10  S2  UNL     1      20.154   9.685  19.322  1.00  0.00    -0.091 SA
HETATM   11  C5  UNL     1      21.369   9.107  18.229  1.00  0.00     0.059 A 
HETATM   12  S1  UNL     1      22.084   9.266  16.681  1.00  0.00    -0.076 SA
HETATM   13  C16 UNL     1      22.034   8.104  18.882  1.00  0.00     0.022 A 
HETATM   14  C3  UNL     1      23.248   8.039  16.864  1.00  0.00     0.077 A 
HETATM   15  C2  UNL     1      23.058   7.531  18.113  1.00  0.00    -0.025 A 
HETATM   16  C1  UNL     1      23.939   6.347  18.505  1.00  0.00     0.050 C 
BRANCH  14  17
HETATM   17  C4  UNL     1      24.264   7.683  15.854  1.00  0.00     0.272 C 
HETATM   18  N1  UNL     1      23.813   7.327  14.559  1.00  0.00    -0.057 NA
HETATM   19  O1  UNL     1      25.451   7.687  16.091  1.00  0.00    -0.270 OA
ENDBRANCH  14  17
ENDBRANCH   1   8
BRANCH   6  20
HETATM   20  O3  UNL     1      23.888   4.986  22.748  1.00  0.00    -0.381 OA
ATOM     21  H3  UNL     1      24.319   4.487  22.065  1.00  0.00     0.211 HD
ENDBRANCH   6  20
BRANCH   6  22
HETATM   22  C11 UNL     1      21.946   3.704  22.737  1.00  0.00    -0.013 C 
HETATM   23  C12 UNL     1      22.015   2.910  21.458  1.00  0.00     0.018 C 
HETATM   24  C13 UNL     1      22.831   3.016  23.754  1.00  0.00     0.018 C 
HETATM   25  C14 UNL     1      20.522   3.741  23.229  1.00  0.00     0.018 C 
ENDBRANCH   6  22
BRANCH   4  26
HETATM   26  O2  UNL     1      20.740   7.175  25.007  1.00  0.00    -0.290 OA
ATOM     27  H2  UNL     1      20.416   7.182  25.900  1.00  0.00     0.244 HD
ENDBRANCH   4  26
TORSDOF 5
ENDMDL
MODEL 5
REMARK VINA RESULT: -7.169132561      3.132      4.338
REMARK  5 active torsions:
REMARK  status: ('A' for Active; 'I' for Inactive)
REMARK    1  A    between atoms: C3_3  and  C4_4 
REMARK    2  A    between atoms: C7_11  and  N2_12 
REMARK    3  A    between atoms: N3_15  and  O2_17 
REMARK    4  A    between atoms: C10_19  and  O3_20 
REMARK    5  A    between atoms: C10_19  and  C11_22 
ROOT
HETATM    1  N2  UNL     1      21.662   7.398  21.580  1.00  0.00    -0.371 N 
HETATM    2  C8  UNL     1      22.278   8.072  22.714  1.00  0.00     0.181 C 
HETATM    3  C9  UNL     1      21.707   7.240  23.825  1.00  0.00     0.064 C 
HETATM    4  N3  UNL     1      21.271   7.718  24.921  1.00  0.00    -0.273 N 
ATOM      5  H3  UNL     1      20.905   7.054  25.605  1.00  0.00     0.193 HD
HETATM    6  C10 UNL     1      21.797   5.863  23.321  1.00  0.00     0.122 C 
HETATM    7  C15 UNL     1      21.489   5.994  21.872  1.00  0.00     0.168 C 
ENDROOT
BRANCH   1   8
HETATM    8  C7  UNL     1      21.275   8.135  20.384  1.00  0.00     0.050 A 
HETATM    9  C6  UNL     1      20.200   8.969  20.575  1.00  0.00     0.081 A 
HETATM   10  S2  UNL     1      19.967   9.783  19.128  1.00  0.00    -0.091 SA
HETATM   11  C5  UNL     1      21.271   9.042  18.260  1.00  0.00     0.059 A 
HETATM   12  S1  UNL     1      22.126   8.950  16.779  1.00  0.00    -0.076 SA
HETATM   13  C16 UNL     1      21.865   8.164  19.126  1.00  0.00     0.022 A 
HETATM   14  C3  UNL     1      23.258   7.777  17.266  1.00  0.00     0.077 A 
HETATM   15  C2  UNL     1      22.951   7.479  18.558  1.00  0.00    -0.025 A 
HETATM   16  C1  UNL     1      23.781   6.381  19.217  1.00  0.00     0.050 C 
BRANCH  14  17
HETATM   17  C4  UNL     1      24.359   7.267  16.425  1.00  0.00     0.272 C 
HETATM   18  N1  UNL     1      24.031   6.367  15.381  1.00  0.00    -0.057 NA
HETATM   19  O1  UNL     1      25.513   7.588  16.594  1.00  0.00    -0.270 OA
ENDBRANCH  14  17
ENDBRANCH   1   8
BRANCH   6  20
HETATM   20  O3  UNL     1      23.110   5.404  23.472  1.00  0.00    -0.381 OA
ATOM     21  H3  UNL     1      23.690   5.936  22.942  1.00  0.00     0.211 HD
ENDBRANCH   6  20
BRANCH   6  22
HETATM   22  C11 UNL     1      20.913   4.895  24.051  1.00  0.00    -0.013 C 
HETATM   23  C12 UNL     1      20.587   3.766  23.107  1.00  0.00     0.018 C 
HETATM   24  C13 UNL     1      21.705   4.317  25.204  1.00  0.00     0.018 C 
HETATM   25  C14 UNL     1      19.635   5.513  24.556  1.00  0.00     0.018 C 
ENDBRANCH   6  22
BRANCH   4  26
HETATM   26  O2  UNL     1      21.247   9.027  25.260  1.00  0.00    -0.290 OA
ATOM     27  H2  UNL     1      21.359   9.758  24.663  1.00  0.00     0.244 HD
ENDBRANCH   4  26
TORSDOF 5
ENDMDL
