MODEL 1
REMARK VINA RESULT: -10.752269829      0.000      0.000
REMARK  4 active torsions:
REMARK  status: ('A' for Active; 'I' for Inactive)
REMARK    1  A    between atoms: C4_4  and  C5_5 
REMARK    2  A    between atoms: C5_5  and  C6_6 
REMARK    3  A    between atoms: C7_7  and  O1_8 
REMARK    4  A    between atoms: C9_11  and  O2_12 
ROOT
HETATM    1  C6  UNL     1      24.693   6.136  17.811  1.00  0.00     0.014 A 
HETATM    2  C7  UNL     1      25.252   5.021  17.232  1.00  0.00     0.077 A 
HETATM    3  C8  UNL     1      25.150   3.797  17.864  1.00  0.00     0.074 A 
HETATM    4  C9  UNL     1      24.497   3.673  19.067  1.00  0.00     0.085 A 
HETATM    5  C10 UNL     1      23.949   4.812  19.618  1.00  0.00     0.083 A 
HETATM    6  C11 UNL     1      23.330   4.549  20.821  1.00  0.00     0.205 C 
HETATM    7  O3  UNL     1      23.454   3.418  21.347  1.00  0.00    -0.286 OA
HETATM    8  C12 UNL     1      22.530   5.404  21.597  1.00  0.00     0.073 A 
HETATM    9  S1  UNL     1      21.833   5.013  23.104  1.00  0.00    -0.090 SA
HETATM   10  C13 UNL     1      21.042   6.481  23.428  1.00  0.00    -0.013 A 
HETATM   11  C14 UNL     1      20.198   6.867  24.619  1.00  0.00     0.057 C 
HETATM   12  C15 UNL     1      21.344   7.255  22.339  1.00  0.00    -0.032 A 
HETATM   13  C16 UNL     1      20.824   8.682  22.235  1.00  0.00     0.050 C 
HETATM   14  C17 UNL     1      22.119   6.697  21.383  1.00  0.00     0.068 A 
HETATM   15  C18 UNL     1      22.496   7.390  20.209  1.00  0.00     0.300 C 
HETATM   16  O4  UNL     1      21.710   8.316  19.835  1.00  0.00    -0.259 OA
HETATM   17  O5  UNL     1      23.545   7.216  19.445  1.00  0.00    -0.273 OA
HETATM   18  C19 UNL     1      24.023   6.052  19.029  1.00  0.00     0.105 A 
ENDROOT
BRANCH   1  19
HETATM   19  C5  UNL     1      24.759   7.504  17.200  1.00  0.00     0.072 C 
BRANCH  19  20
HETATM   20  C4  UNL     1      24.338   7.536  15.803  1.00  0.00    -0.020 C 
HETATM   21  C2  UNL     1      23.213   8.173  15.428  1.00  0.00    -0.091 C 
HETATM   22  C1  UNL     1      22.378   8.857  16.421  1.00  0.00     0.042 C 
HETATM   23  C3  UNL     1      22.814   8.183  13.998  1.00  0.00     0.042 C 
ENDBRANCH  19  20
ENDBRANCH   1  19
BRANCH   2  24
HETATM   24  O1  UNL     1      25.910   5.163  16.014  1.00  0.00    -0.360 OA
ATOM     25  H1  UNL     1      25.976   4.407  15.442  1.00  0.00     0.217 HD
ENDBRANCH   2  24
BRANCH   4  26
HETATM   26  O2  UNL     1      24.369   2.446  19.747  1.00  0.00    -0.360 OA
ATOM     27  H2  UNL     1      24.024   2.377  20.630  1.00  0.00     0.217 HD
ENDBRANCH   4  26
TORSDOF 4
ENDMDL
MODEL 2
REMARK VINA RESULT: -10.404649683      2.565      7.131
REMARK  4 active torsions:
REMARK  status: ('A' for Active; 'I' for Inactive)
REMARK    1  A    between atoms: C4_4  and  C5_5 
REMARK    2  A    between atoms: C5_5  and  C6_6 
REMARK    3  A    between atoms: C7_7  and  O1_8 
REMARK    4  A    between atoms: C9_11  and  O2_12 
ROOT
HETATM    1  C6  UNL     1      21.733   7.995  21.120  1.00  0.00     0.014 A 
HETATM    2  C7  UNL     1      20.596   8.661  21.513  1.00  0.00     0.077 A 
HETATM    3  C8  UNL     1      19.852   9.356  20.579  1.00  0.00     0.074 A 
HETATM    4  C9  UNL     1      20.232   9.395  19.258  1.00  0.00     0.085 A 
HETATM    5  C10 UNL     1      21.377   8.716  18.901  1.00  0.00     0.083 A 
HETATM    6  C11 UNL     1      21.644   8.840  17.555  1.00  0.00     0.205 C 
HETATM    7  O3  UNL     1      20.967   9.633  16.860  1.00  0.00    -0.286 OA
HETATM    8  C12 UNL     1      22.616   8.172  16.792  1.00  0.00     0.073 A 
HETATM    9  S1  UNL     1      22.912   8.416  15.129  1.00  0.00    -0.090 SA
HETATM   10  C13 UNL     1      24.182   7.308  14.913  1.00  0.00    -0.013 A 
HETATM   11  C14 UNL     1      24.954   6.977  13.658  1.00  0.00     0.057 C 
HETATM   12  C15 UNL     1      24.350   6.766  16.159  1.00  0.00    -0.032 A 
HETATM   13  C16 UNL     1      25.420   5.711  16.407  1.00  0.00     0.050 C 
HETATM   14  C17 UNL     1      23.536   7.214  17.140  1.00  0.00     0.068 A 
HETATM   15  C18 UNL     1      23.607   6.730  18.468  1.00  0.00     0.300 C 
HETATM   16  O4  UNL     1      24.070   5.554  18.605  1.00  0.00    -0.259 OA
HETATM   17  O5  UNL     1      23.262   7.320  19.584  1.00  0.00    -0.273 OA
HETATM   18  C19 UNL     1      22.150   8.010  19.791  1.00  0.00     0.105 A 
ENDROOT
BRANCH   1  19
HETATM   19  C5  UNL     1      22.603   7.220  22.065  1.00  0.00     0.072 C 
BRANCH  19  20
HETATM   20  C4  UNL     1      22.022   5.946  22.475  1.00  0.00    -0.020 C 
HETATM   21  C2  UNL     1      22.730   4.803  22.410  1.00  0.00    -0.091 C 
HETATM   22  C1  UNL     1      24.113   4.811  21.923  1.00  0.00     0.042 C 
HETATM   23  C3  UNL     1      22.105   3.525  22.833  1.00  0.00     0.042 C 
ENDBRANCH  19  20
ENDBRANCH   1  19
BRANCH   2  24
HETATM   24  O1  UNL     1      20.226   8.612  22.854  1.00  0.00    -0.360 OA
ATOM     25  H1  UNL     1      20.909   8.563  23.512  1.00  0.00     0.217 HD
ENDBRANCH   2  24
BRANCH   4  26
HETATM   26  O2  UNL     1      19.504  10.091  18.272  1.00  0.00    -0.360 OA
ATOM     27  H2  UNL     1      19.912  10.478  17.506  1.00  0.00     0.217 HD
ENDBRANCH   4  26
TORSDOF 4
ENDMDL
MODEL 3
REMARK VINA RESULT: -9.925257606      0.792      1.007
REMARK  4 active torsions:
REMARK  status: ('A' for Active; 'I' for Inactive)
REMARK    1  A    between atoms: C4_4  and  C5_5 
REMARK    2  A    between atoms: C5_5  and  C6_6 
REMARK    3  A    between atoms: C7_7  and  O1_8 
REMARK    4  A    between atoms: C9_11  and  O2_12 
ROOT
HETATM    1  C6  UNL     1      24.371   5.756  18.284  1.00  0.00     0.014 A 
HETATM    2  C7  UNL     1      24.747   4.603  17.637  1.00  0.00     0.077 A 
HETATM    3  C8  UNL     1      24.425   3.376  18.182  1.00  0.00     0.074 A 
HETATM    4  C9  UNL     1      23.733   3.286  19.366  1.00  0.00     0.085 A 
HETATM    5  C10 UNL     1      23.372   4.463  19.987  1.00  0.00     0.083 A 
HETATM    6  C11 UNL     1      22.690   4.231  21.161  1.00  0.00     0.205 C 
HETATM    7  O3  UNL     1      22.609   3.064  21.610  1.00  0.00    -0.286 OA
HETATM    8  C12 UNL     1      22.027   5.157  21.984  1.00  0.00     0.073 A 
HETATM    9  S1  UNL     1      21.240   4.793  23.453  1.00  0.00    -0.090 SA
HETATM   10  C13 UNL     1      20.700   6.349  23.867  1.00  0.00    -0.013 A 
HETATM   11  C14 UNL     1      19.906   6.794  25.072  1.00  0.00     0.057 C 
HETATM   12  C15 UNL     1      21.154   7.130  22.837  1.00  0.00    -0.032 A 
HETATM   13  C16 UNL     1      20.885   8.629  22.825  1.00  0.00     0.050 C 
HETATM   14  C17 UNL     1      21.846   6.512  21.855  1.00  0.00     0.068 A 
HETATM   15  C18 UNL     1      22.362   7.206  20.735  1.00  0.00     0.300 C 
HETATM   16  O4  UNL     1      21.753   8.275  20.416  1.00  0.00    -0.259 OA
HETATM   17  O5  UNL     1      23.384   6.906  19.974  1.00  0.00    -0.273 OA
HETATM   18  C19 UNL     1      23.668   5.708  19.485  1.00  0.00     0.105 A 
ENDROOT
BRANCH   1  19
HETATM   19  C5  UNL     1      24.682   7.130  17.768  1.00  0.00     0.072 C 
BRANCH  19  20
HETATM   20  C4  UNL     1      23.605   7.706  16.968  1.00  0.00    -0.020 C 
HETATM   21  C2  UNL     1      23.689   7.766  15.626  1.00  0.00    -0.091 C 
HETATM   22  C1  UNL     1      24.872   7.248  14.929  1.00  0.00     0.042 C 
HETATM   23  C3  UNL     1      22.576   8.361  14.845  1.00  0.00     0.042 C 
ENDBRANCH  19  20
ENDBRANCH   1  19
BRANCH   2  24
HETATM   24  O1  UNL     1      25.448   4.711  16.439  1.00  0.00    -0.360 OA
ATOM     25  H1  UNL     1      25.039   5.167  15.713  1.00  0.00     0.217 HD
ENDBRANCH   2  24
BRANCH   4  26
HETATM   26  O2  UNL     1      23.383   2.056  19.959  1.00  0.00    -0.360 OA
ATOM     27  H2  UNL     1      23.384   1.917  20.899  1.00  0.00     0.217 HD
ENDBRANCH   4  26
TORSDOF 4
ENDMDL
MODEL 4
REMARK VINA RESULT: -9.737702932      1.672      4.250
REMARK  4 active torsions:
REMARK  status: ('A' for Active; 'I' for Inactive)
REMARK    1  A    between atoms: C4_4  and  C5_5 
REMARK    2  A    between atoms: C5_5  and  C6_6 
REMARK    3  A    between atoms: C7_7  and  O1_8 
REMARK    4  A    between atoms: C9_11  and  O2_12 
ROOT
HETATM    1  C6  UNL     1      24.576   5.476  17.896  1.00  0.00     0.014 A 
HETATM    2  C7  UNL     1      24.824   6.075  16.684  1.00  0.00     0.077 A 
HETATM    3  C8  UNL     1      24.209   7.271  16.372  1.00  0.00     0.074 A 
HETATM    4  C9  UNL     1      23.347   7.876  17.256  1.00  0.00     0.085 A 
HETATM    5  C10 UNL     1      23.121   7.247  18.462  1.00  0.00     0.083 A 
HETATM    6  C11 UNL     1      22.239   7.955  19.248  1.00  0.00     0.205 C 
HETATM    7  O3  UNL     1      21.638   8.945  18.768  1.00  0.00    -0.286 OA
HETATM    8  C12 UNL     1      21.886   7.726  20.588  1.00  0.00     0.073 A 
HETATM    9  S1  UNL     1      20.745   8.627  21.482  1.00  0.00    -0.090 SA
HETATM   10  C13 UNL     1      20.843   7.800  22.962  1.00  0.00    -0.013 A 
HETATM   11  C14 UNL     1      20.097   8.058  24.249  1.00  0.00     0.057 C 
HETATM   12  C15 UNL     1      21.774   6.825  22.723  1.00  0.00    -0.032 A 
HETATM   13  C16 UNL     1      22.157   5.836  23.816  1.00  0.00     0.050 C 
HETATM   14  C17 UNL     1      22.320   6.784  21.488  1.00  0.00     0.068 A 
HETATM   15  C18 UNL     1      23.296   5.828  21.119  1.00  0.00     0.300 C 
HETATM   16  O4  UNL     1      24.001   5.360  22.067  1.00  0.00    -0.259 OA
HETATM   17  O5  UNL     1      23.582   5.352  19.934  1.00  0.00    -0.273 OA
HETATM   18  C19 UNL     1      23.709   6.057  18.819  1.00  0.00     0.105 A 
ENDROOT
BRANCH   1  19
HETATM   19  C5  UNL     1      25.195   4.176  18.316  1.00  0.00     0.072 C 
BRANCH  19  20
HETATM   20  C4  UNL     1      24.431   3.006  17.894  1.00  0.00    -0.020 C 
HETATM   21  C2  UNL     1      24.203   1.981  18.736  1.00  0.00    -0.091 C 
HETATM   22  C1  UNL     1      24.718   2.016  20.109  1.00  0.00     0.042 C 
HETATM   23  C3  UNL     1      23.424   0.807  18.271  1.00  0.00     0.042 C 
ENDBRANCH  19  20
ENDBRANCH   1  19
BRANCH   2  24
HETATM   24  O1  UNL     1      25.699   5.450  15.800  1.00  0.00    -0.360 OA
ATOM     25  H1  UNL     1      26.090   5.967  15.105  1.00  0.00     0.217 HD
ENDBRANCH   2  24
BRANCH   4  26
HETATM   26  O2  UNL     1      22.697   9.096  16.980  1.00  0.00    -0.360 OA
ATOM     27  H2  UNL     1      21.793   9.265  17.218  1.00  0.00     0.217 HD
ENDBRANCH   4  26
TORSDOF 4
ENDMDL
MODEL 5
REMARK VINA RESULT: -9.726672919      2.328      6.826
REMARK  4 active torsions:
REMARK  status: ('A' for Active; 'I' for Inactive)
REMARK    1  A    between atoms: C4_4  and  C5_5 
REMARK    2  A    between atoms: C5_5  and  C6_6 
REMARK    3  A    between atoms: C7_7  and  O1_8 
REMARK    4  A    between atoms: C9_11  and  O2_12 
ROOT
HETATM    1  C6  UNL     1      22.543   6.673  22.058  1.00  0.00     0.014 A 
HETATM    2  C7  UNL     1      21.611   7.174  22.935  1.00  0.00     0.077 A 
HETATM    3  C8  UNL     1      20.698   8.115  22.501  1.00  0.00     0.074 A 
HETATM    4  C9  UNL     1      20.706   8.563  21.200  1.00  0.00     0.085 A 
HETATM    5  C10 UNL     1      21.655   8.038  20.349  1.00  0.00     0.083 A 
HETATM    6  C11 UNL     1      21.555   8.573  19.083  1.00  0.00     0.205 C 
HETATM    7  O3  UNL     1      20.778   9.535  18.877  1.00  0.00    -0.286 OA
HETATM    8  C12 UNL     1      22.228   8.182  17.914  1.00  0.00     0.073 A 
HETATM    9  S1  UNL     1      22.080   8.928  16.387  1.00  0.00    -0.090 SA
HETATM   10  C13 UNL     1      23.153   7.953  15.501  1.00  0.00    -0.013 A 
HETATM   11  C14 UNL     1      23.527   8.032  14.040  1.00  0.00     0.057 C 
HETATM   12  C15 UNL     1      23.610   7.056  16.428  1.00  0.00    -0.032 A 
HETATM   13  C16 UNL     1      24.622   5.987  16.038  1.00  0.00     0.050 C 
HETATM   14  C17 UNL     1      23.131   7.172  17.686  1.00  0.00     0.068 A 
HETATM   15  C18 UNL     1      23.522   6.304  18.733  1.00  0.00     0.300 C 
HETATM   16  O4  UNL     1      23.911   5.147  18.377  1.00  0.00    -0.259 OA
HETATM   17  O5  UNL     1      23.541   6.518  20.024  1.00  0.00    -0.273 OA
HETATM   18  C19 UNL     1      22.584   7.100  20.732  1.00  0.00     0.105 A 
ENDROOT
BRANCH   1  19
HETATM   19  C5  UNL     1      23.574   5.654  22.443  1.00  0.00     0.072 C 
BRANCH  19  20
HETATM   20  C4  UNL     1      23.025   4.313  22.622  1.00  0.00    -0.020 C 
HETATM   21  C2  UNL     1      23.533   3.257  21.959  1.00  0.00    -0.091 C 
HETATM   22  C1  UNL     1      24.660   3.429  21.036  1.00  0.00     0.042 C 
HETATM   23  C3  UNL     1      22.948   1.909  22.164  1.00  0.00     0.042 C 
ENDBRANCH  19  20
ENDBRANCH   1  19
BRANCH   2  24
HETATM   24  O1  UNL     1      21.616   6.712  24.248  1.00  0.00    -0.360 OA
ATOM     25  H1  UNL     1      20.889   6.177  24.544  1.00  0.00     0.217 HD
ENDBRANCH   2  24
BRANCH   4  26
HETATM   26  O2  UNL     1      19.795   9.521  20.714  1.00  0.00    -0.360 OA
ATOM     27  H2  UNL     1      18.922   9.298  20.412  1.00  0.00     0.217 HD
ENDBRANCH   4  26
TORSDOF 4
ENDMDL
