MODEL 1
REMARK VINA RESULT: -10.647146285      0.000      0.000
REMARK  5 active torsions:
REMARK  status: ('A' for Active; 'I' for Inactive)
REMARK    1  A    between atoms: C4_4  and  C5_5 
REMARK    2  A    between atoms: C5_5  and  C6_6 
REMARK    3  A    between atoms: C7_7  and  O1_8 
REMARK    4  A    between atoms: C11_13  and  O2_14 
REMARK    5  A    between atoms: C16_23  and  O5_24 
ROOT
HETATM    1  C6  UNL     1      20.968   7.797  22.537  1.00  0.00     0.013 A 
HETATM    2  C7  UNL     1      21.936   6.790  22.699  1.00  0.00     0.075 A 
HETATM    3  C8  UNL     1      22.731   6.354  21.685  1.00  0.00     0.053 A 
HETATM    4  C9  UNL     1      22.572   6.922  20.452  1.00  0.00     0.035 A 
HETATM    5  C10 UNL     1      21.655   7.894  20.242  1.00  0.00     0.066 A 
HETATM    6  C11 UNL     1      20.826   8.352  21.302  1.00  0.00     0.090 A 
HETATM    7  C12 UNL     1      21.366   8.604  19.002  1.00  0.00     0.236 C 
HETATM    8  O3  UNL     1      20.286   9.235  19.011  1.00  0.00    -0.283 OA
HETATM    9  C13 UNL     1      22.176   8.653  17.796  1.00  0.00     0.234 C 
HETATM   10  O4  UNL     1      22.054   9.723  17.149  1.00  0.00    -0.283 OA
HETATM   11  C14 UNL     1      23.111   7.627  17.240  1.00  0.00     0.049 A 
HETATM   12  C15 UNL     1      23.652   6.650  18.033  1.00  0.00     0.073 A 
HETATM   13  S1  UNL     1      24.624   5.764  16.945  1.00  0.00    -0.060 SA
HETATM   14  C16 UNL     1      24.321   6.648  15.522  1.00  0.00     0.114 A 
HETATM   15  C17 UNL     1      23.455   7.625  15.945  1.00  0.00    -0.006 A 
HETATM   16  C18 UNL     1      22.939   8.641  14.935  1.00  0.00     0.052 C 
HETATM   17  C19 UNL     1      23.499   6.351  19.470  1.00  0.00     0.201 C 
HETATM   18  O6  UNL     1      24.299   5.472  19.864  1.00  0.00    -0.286 OA
ENDROOT
BRANCH   1  19
HETATM   19  C5  UNL     1      20.178   8.181  23.709  1.00  0.00     0.071 C 
BRANCH  19  20
HETATM   20  C4  UNL     1      20.798   8.951  24.765  1.00  0.00    -0.020 C 
HETATM   21  C2  UNL     1      20.624   8.612  26.034  1.00  0.00    -0.091 C 
HETATM   22  C1  UNL     1      19.801   7.448  26.452  1.00  0.00     0.042 C 
HETATM   23  C3  UNL     1      21.282   9.434  27.085  1.00  0.00     0.042 C 
ENDBRANCH  19  20
ENDBRANCH   1  19
BRANCH   2  24
HETATM   24  O1  UNL     1      22.070   6.232  23.968  1.00  0.00    -0.360 OA
ATOM     25  H1  UNL     1      22.601   6.706  24.598  1.00  0.00     0.217 HD
ENDBRANCH   2  24
BRANCH   6  26
HETATM   26  O2  UNL     1      19.963   9.309  20.984  1.00  0.00    -0.359 OA
ATOM     27  H2  UNL     1      20.167  10.088  20.480  1.00  0.00     0.217 HD
ENDBRANCH   6  26
BRANCH  14  28
HETATM   28  O5  UNL     1      24.829   6.436  14.221  1.00  0.00    -0.353 OA
ATOM     29  H5  UNL     1      24.358   6.390  13.396  1.00  0.00     0.218 HD
ENDBRANCH  14  28
TORSDOF 5
ENDMDL
MODEL 2
REMARK VINA RESULT: -10.044878424      4.077      7.898
REMARK  5 active torsions:
REMARK  status: ('A' for Active; 'I' for Inactive)
REMARK    1  A    between atoms: C4_4  and  C5_5 
REMARK    2  A    between atoms: C5_5  and  C6_6 
REMARK    3  A    between atoms: C7_7  and  O1_8 
REMARK    4  A    between atoms: C11_13  and  O2_14 
REMARK    5  A    between atoms: C16_23  and  O5_24 
ROOT
HETATM    1  C6  UNL     1      24.056   6.388  18.348  1.00  0.00     0.013 A 
HETATM    2  C7  UNL     1      23.180   6.744  19.389  1.00  0.00     0.075 A 
HETATM    3  C8  UNL     1      22.659   5.842  20.263  1.00  0.00     0.053 A 
HETATM    4  C9  UNL     1      23.006   4.527  20.115  1.00  0.00     0.035 A 
HETATM    5  C10 UNL     1      23.845   4.131  19.131  1.00  0.00     0.066 A 
HETATM    6  C11 UNL     1      24.390   5.075  18.218  1.00  0.00     0.090 A 
HETATM    7  C12 UNL     1      24.318   2.783  18.842  1.00  0.00     0.236 C 
HETATM    8  O3  UNL     1      24.842   2.654  17.713  1.00  0.00    -0.283 OA
HETATM    9  C13 UNL     1      24.246   1.612  19.700  1.00  0.00     0.234 C 
HETATM   10  O4  UNL     1      25.183   0.795  19.519  1.00  0.00    -0.283 OA
HETATM   11  C14 UNL     1      23.233   1.263  20.742  1.00  0.00     0.049 A 
HETATM   12  C15 UNL     1      22.448   2.222  21.325  1.00  0.00     0.073 A 
HETATM   13  S1  UNL     1      21.490   1.326  22.418  1.00  0.00    -0.060 SA
HETATM   14  C16 UNL     1      22.103  -0.232  22.108  1.00  0.00     0.114 A 
HETATM   15  C17 UNL     1      23.054  -0.003  21.145  1.00  0.00    -0.006 A 
HETATM   16  C18 UNL     1      23.843  -1.182  20.593  1.00  0.00     0.052 C 
HETATM   17  C19 UNL     1      22.371   3.682  21.131  1.00  0.00     0.201 C 
HETATM   18  O6  UNL     1      21.642   4.241  21.983  1.00  0.00    -0.286 OA
ENDROOT
BRANCH   1  19
HETATM   19  C5  UNL     1      24.550   7.455  17.476  1.00  0.00     0.071 C 
BRANCH  19  20
HETATM   20  C4  UNL     1      24.239   7.424  16.064  1.00  0.00    -0.020 C 
HETATM   21  C2  UNL     1      23.259   8.172  15.576  1.00  0.00    -0.091 C 
HETATM   22  C1  UNL     1      22.433   9.071  16.422  1.00  0.00     0.042 C 
HETATM   23  C3  UNL     1      22.976   8.106  14.117  1.00  0.00     0.042 C 
ENDBRANCH  19  20
ENDBRANCH   1  19
BRANCH   2  24
HETATM   24  O1  UNL     1      22.847   8.091  19.510  1.00  0.00    -0.360 OA
ATOM     25  H1  UNL     1      23.523   8.680  19.824  1.00  0.00     0.217 HD
ENDBRANCH   2  24
BRANCH   6  26
HETATM   26  O2  UNL     1      25.203   4.577  17.294  1.00  0.00    -0.359 OA
ATOM     27  H2  UNL     1      25.083   4.658  16.355  1.00  0.00     0.217 HD
ENDBRANCH   6  26
BRANCH  14  28
HETATM   28  O5  UNL     1      21.732  -1.464  22.692  1.00  0.00    -0.353 OA
ATOM     29  H5  UNL     1      22.075  -1.881  23.474  1.00  0.00     0.218 HD
ENDBRANCH  14  28
TORSDOF 5
ENDMDL
MODEL 3
REMARK VINA RESULT: -9.968735566      1.030      1.415
REMARK  5 active torsions:
REMARK  status: ('A' for Active; 'I' for Inactive)
REMARK    1  A    between atoms: C4_4  and  C5_5 
REMARK    2  A    between atoms: C5_5  and  C6_6 
REMARK    3  A    between atoms: C7_7  and  O1_8 
REMARK    4  A    between atoms: C11_13  and  O2_14 
REMARK    5  A    between atoms: C16_23  and  O5_24 
ROOT
HETATM    1  C6  UNL     1      21.584   7.071  22.683  1.00  0.00     0.013 A 
HETATM    2  C7  UNL     1      22.559   6.058  22.671  1.00  0.00     0.075 A 
HETATM    3  C8  UNL     1      23.270   5.724  21.561  1.00  0.00     0.053 A 
HETATM    4  C9  UNL     1      23.018   6.409  20.405  1.00  0.00     0.035 A 
HETATM    5  C10 UNL     1      22.091   7.393  20.361  1.00  0.00     0.066 A 
HETATM    6  C11 UNL     1      21.349   7.742  21.522  1.00  0.00     0.090 A 
HETATM    7  C12 UNL     1      21.709   8.218  19.222  1.00  0.00     0.236 C 
HETATM    8  O3  UNL     1      20.635   8.841  19.376  1.00  0.00    -0.283 OA
HETATM    9  C13 UNL     1      22.423   8.386  17.967  1.00  0.00     0.234 C 
HETATM   10  O4  UNL     1      22.255   9.513  17.438  1.00  0.00    -0.283 OA
HETATM   11  C14 UNL     1      23.308   7.422  17.244  1.00  0.00     0.049 A 
HETATM   12  C15 UNL     1      23.905   6.376  17.894  1.00  0.00     0.073 A 
HETATM   13  S1  UNL     1      24.786   5.602  16.653  1.00  0.00    -0.060 SA
HETATM   14  C16 UNL     1      24.377   6.618  15.350  1.00  0.00     0.114 A 
HETATM   15  C17 UNL     1      23.550   7.547  15.931  1.00  0.00    -0.006 A 
HETATM   16  C18 UNL     1      22.960   8.653  15.068  1.00  0.00     0.052 C 
HETATM   17  C19 UNL     1      23.863   5.939  19.303  1.00  0.00     0.201 C 
HETATM   18  O6  UNL     1      24.689   5.028  19.546  1.00  0.00    -0.286 OA
ENDROOT
BRANCH   1  19
HETATM   19  C5  UNL     1      20.891   7.337  23.944  1.00  0.00     0.071 C 
BRANCH  19  20
HETATM   20  C4  UNL     1      20.000   6.339  24.493  1.00  0.00    -0.020 C 
HETATM   21  C2  UNL     1      20.078   5.999  25.772  1.00  0.00    -0.091 C 
HETATM   22  C1  UNL     1      21.059   6.604  26.709  1.00  0.00     0.042 C 
HETATM   23  C3  UNL     1      19.140   4.967  26.291  1.00  0.00     0.042 C 
ENDBRANCH  19  20
ENDBRANCH   1  19
BRANCH   2  24
HETATM   24  O1  UNL     1      22.789   5.380  23.866  1.00  0.00    -0.360 OA
ATOM     25  H1  UNL     1      22.065   4.886  24.232  1.00  0.00     0.217 HD
ENDBRANCH   2  24
BRANCH   6  26
HETATM   26  O2  UNL     1      20.468   8.723  21.366  1.00  0.00    -0.359 OA
ATOM     27  H2  UNL     1      19.656   8.815  21.851  1.00  0.00     0.217 HD
ENDBRANCH   6  26
BRANCH  14  28
HETATM   28  O5  UNL     1      24.781   6.535  13.999  1.00  0.00    -0.353 OA
ATOM     29  H5  UNL     1      24.281   6.727  13.213  1.00  0.00     0.218 HD
ENDBRANCH  14  28
TORSDOF 5
ENDMDL
MODEL 4
REMARK VINA RESULT: -9.845207885      4.273      7.879
REMARK  5 active torsions:
REMARK  status: ('A' for Active; 'I' for Inactive)
REMARK    1  A    between atoms: C4_4  and  C5_5 
REMARK    2  A    between atoms: C5_5  and  C6_6 
REMARK    3  A    between atoms: C7_7  and  O1_8 
REMARK    4  A    between atoms: C11_13  and  O2_14 
REMARK    5  A    between atoms: C16_23  and  O5_24 
ROOT
HETATM    1  C6  UNL     1      24.666   5.802  17.966  1.00  0.00     0.013 A 
HETATM    2  C7  UNL     1      25.355   4.717  17.397  1.00  0.00     0.075 A 
HETATM    3  C8  UNL     1      25.244   3.442  17.858  1.00  0.00     0.053 A 
HETATM    4  C9  UNL     1      24.425   3.213  18.929  1.00  0.00     0.035 A 
HETATM    5  C10 UNL     1      23.740   4.222  19.514  1.00  0.00     0.066 A 
HETATM    6  C11 UNL     1      23.854   5.554  19.031  1.00  0.00     0.090 A 
HETATM    7  C12 UNL     1      22.827   4.149  20.648  1.00  0.00     0.236 C 
HETATM    8  O3  UNL     1      22.562   5.256  21.166  1.00  0.00    -0.283 OA
HETATM    9  C13 UNL     1      22.213   2.962  21.220  1.00  0.00     0.234 C 
HETATM   10  O4  UNL     1      21.088   3.175  21.736  1.00  0.00    -0.283 OA
HETATM   11  C14 UNL     1      22.730   1.560  21.273  1.00  0.00     0.049 A 
HETATM   12  C15 UNL     1      23.690   1.120  20.401  1.00  0.00     0.073 A 
HETATM   13  S1  UNL     1      23.920  -0.506  20.869  1.00  0.00    -0.060 SA
HETATM   14  C16 UNL     1      22.801  -0.585  22.149  1.00  0.00     0.114 A 
HETATM   15  C17 UNL     1      22.272   0.681  22.175  1.00  0.00    -0.006 A 
HETATM   16  C18 UNL     1      21.208   1.015  23.212  1.00  0.00     0.052 C 
HETATM   17  C19 UNL     1      24.408   1.797  19.305  1.00  0.00     0.201 C 
HETATM   18  O6  UNL     1      25.094   1.002  18.620  1.00  0.00    -0.286 OA
ENDROOT
BRANCH   1  19
HETATM   19  C5  UNL     1      24.867   7.126  17.374  1.00  0.00     0.071 C 
BRANCH  19  20
HETATM   20  C4  UNL     1      24.423   7.377  16.021  1.00  0.00    -0.020 C 
HETATM   21  C2  UNL     1      23.302   8.047  15.794  1.00  0.00    -0.091 C 
HETATM   22  C1  UNL     1      22.444   8.574  16.886  1.00  0.00     0.042 C 
HETATM   23  C3  UNL     1      22.886   8.280  14.385  1.00  0.00     0.042 C 
ENDBRANCH  19  20
ENDBRANCH   1  19
BRANCH   2  24
HETATM   24  O1  UNL     1      26.181   4.985  16.309  1.00  0.00    -0.360 OA
ATOM     25  H1  UNL     1      27.049   5.324  16.494  1.00  0.00     0.217 HD
ENDBRANCH   2  24
BRANCH   6  26
HETATM   26  O2  UNL     1      23.136   6.463  19.678  1.00  0.00    -0.359 OA
ATOM     27  H2  UNL     1      22.558   7.099  19.273  1.00  0.00     0.217 HD
ENDBRANCH   6  26
BRANCH  14  28
HETATM   28  O5  UNL     1      22.486  -1.679  22.986  1.00  0.00    -0.353 OA
ATOM     29  H5  UNL     1      21.633  -1.986  23.273  1.00  0.00     0.218 HD
ENDBRANCH  14  28
TORSDOF 5
ENDMDL
MODEL 5
REMARK VINA RESULT: -9.732742283      3.618      7.486
REMARK  5 active torsions:
REMARK  status: ('A' for Active; 'I' for Inactive)
REMARK    1  A    between atoms: C4_4  and  C5_5 
REMARK    2  A    between atoms: C5_5  and  C6_6 
REMARK    3  A    between atoms: C7_7  and  O1_8 
REMARK    4  A    between atoms: C11_13  and  O2_14 
REMARK    5  A    between atoms: C16_23  and  O5_24 
ROOT
HETATM    1  C6  UNL     1      25.920   3.482  18.358  1.00  0.00     0.013 A 
HETATM    2  C7  UNL     1      25.268   3.298  19.589  1.00  0.00     0.075 A 
HETATM    3  C8  UNL     1      24.298   4.134  20.048  1.00  0.00     0.053 A 
HETATM    4  C9  UNL     1      23.948   5.203  19.271  1.00  0.00     0.035 A 
HETATM    5  C10 UNL     1      24.545   5.426  18.077  1.00  0.00     0.066 A 
HETATM    6  C11 UNL     1      25.558   4.552  17.597  1.00  0.00     0.090 A 
HETATM    7  C12 UNL     1      24.287   6.505  17.132  1.00  0.00     0.236 C 
HETATM    8  O3  UNL     1      25.171   6.643  16.257  1.00  0.00    -0.283 OA
HETATM    9  C13 UNL     1      23.147   7.407  17.101  1.00  0.00     0.234 C 
HETATM   10  O4  UNL     1      22.849   7.804  15.946  1.00  0.00    -0.283 OA
HETATM   11  C14 UNL     1      22.306   7.909  18.229  1.00  0.00     0.049 A 
HETATM   12  C15 UNL     1      22.242   7.242  19.424  1.00  0.00     0.073 A 
HETATM   13  S1  UNL     1      21.171   8.201  20.345  1.00  0.00    -0.060 SA
HETATM   14  C16 UNL     1      20.836   9.416  19.200  1.00  0.00     0.114 A 
HETATM   15  C17 UNL     1      21.581   9.031  18.114  1.00  0.00    -0.006 A 
HETATM   16  C18 UNL     1      21.547   9.886  16.855  1.00  0.00     0.052 C 
HETATM   17  C19 UNL     1      22.892   6.005  19.896  1.00  0.00     0.201 C 
HETATM   18  O6  UNL     1      22.443   5.620  21.001  1.00  0.00    -0.286 OA
ENDROOT
BRANCH   1  19
HETATM   19  C5  UNL     1      26.945   2.509  17.975  1.00  0.00     0.071 C 
BRANCH  19  20
HETATM   20  C4  UNL     1      26.545   1.218  17.460  1.00  0.00    -0.020 C 
HETATM   21  C2  UNL     1      27.244   0.633  16.497  1.00  0.00    -0.091 C 
HETATM   22  C1  UNL     1      28.455   1.246  15.894  1.00  0.00     0.042 C 
HETATM   23  C3  UNL     1      26.794  -0.695  16.000  1.00  0.00     0.042 C 
ENDBRANCH  19  20
ENDBRANCH   1  19
BRANCH   2  24
HETATM   24  O1  UNL     1      25.649   2.200  20.356  1.00  0.00    -0.360 OA
ATOM     25  H1  UNL     1      25.050   1.463  20.388  1.00  0.00     0.217 HD
ENDBRANCH   2  24
BRANCH   6  26
HETATM   26  O2  UNL     1      26.073   4.864  16.415  1.00  0.00    -0.359 OA
ATOM     27  H2  UNL     1      26.713   5.548  16.257  1.00  0.00     0.217 HD
ENDBRANCH   6  26
BRANCH  14  28
HETATM   28  O5  UNL     1      19.998  10.547  19.326  1.00  0.00    -0.353 OA
ATOM     29  H5  UNL     1      19.334  10.868  18.726  1.00  0.00     0.218 HD
ENDBRANCH  14  28
TORSDOF 5
ENDMDL
