MODEL 1
REMARK VINA RESULT: -6.258303233      0.000      0.000
REMARK  7 active torsions:
REMARK  status: ('A' for Active; 'I' for Inactive)
REMARK    1  A    between atoms: O1_2  and  C2_3 
REMARK    2  A    between atoms: C2_3  and  C3_4 
REMARK    3  A    between atoms: C3_4  and  O2_5 
REMARK    4  A    between atoms: O2_5  and  C4_6 
REMARK    5  A    between atoms: C4_6  and  C5_7 
REMARK    6  A    between atoms: N1_8  and  C6_10 
REMARK    7  A    between atoms: C9_15  and  N3_16 
ROOT
HETATM    1  C6  UNL     1       2.620  18.858  22.800  1.00  0.00     0.121 A 
HETATM    2  C7  UNL     1       1.744  19.893  22.995  1.00  0.00     0.066 A 
HETATM    3  C8  UNL     1       0.682  20.077  22.117  1.00  0.00     0.110 A 
HETATM    4  N2  UNL     1       0.522  19.245  21.087  1.00  0.00    -0.202 N 
ATOM      5  H2  UNL     1      -0.261  19.393  20.450  1.00  0.00     0.183 HD
HETATM    6  C9  UNL     1       1.358  18.220  20.860  1.00  0.00     0.677 A 
HETATM    7  N4  UNL     1       2.365  18.057  21.707  1.00  0.00    -0.177 N 
ATOM      8  H4  UNL     1       3.001  17.277  21.537  1.00  0.00     0.185 HD
ENDROOT
BRANCH   1   9
HETATM    9  N1  UNL     1       3.564  18.613  23.497  1.00  0.00    -0.353 N 
HETATM   10  C5  UNL     1       4.429  17.722  24.033  1.00  0.00     0.088 C 
ATOM     11  H1  UNL     1       3.858  19.517  23.867  1.00  0.00     0.166 HD
BRANCH  10  12
HETATM   12  C4  UNL     1       4.202  16.290  23.668  1.00  0.00     0.212 C 
BRANCH  12  13
HETATM   13  O2  UNL     1       4.758  15.998  22.448  1.00  0.00    -0.384 OA
BRANCH  13  14
HETATM   14  C3  UNL     1       4.128  15.060  21.694  1.00  0.00     0.194 C 
BRANCH  14  15
HETATM   15  C2  UNL     1       4.299  15.455  20.220  1.00  0.00     0.193 C 
BRANCH  15  16
HETATM   16  O1  UNL     1       5.486  14.959  19.707  1.00  0.00    -0.394 OA
HETATM   17  C1  UNL     1       5.314  13.846  18.917  1.00  0.00     0.201 C 
ENDBRANCH  15  16
ENDBRANCH  14  15
ENDBRANCH  13  14
ENDBRANCH  12  13
ENDBRANCH  10  12
ENDBRANCH   1   9
BRANCH   6  18
HETATM   18  N3  UNL     1       1.162  17.441  19.849  1.00  0.00    -0.234 N 
ATOM     19  H32 UNL     1       1.908  17.167  19.210  1.00  0.00     0.174 HD
ATOM     20  H31 UNL     1       0.229  17.073  19.664  1.00  0.00     0.174 HD
ENDBRANCH   6  18
TORSDOF 7
ENDMDL
MODEL 2
REMARK VINA RESULT: -6.239256151      2.448      4.062
REMARK  7 active torsions:
REMARK  status: ('A' for Active; 'I' for Inactive)
REMARK    1  A    between atoms: O1_2  and  C2_3 
REMARK    2  A    between atoms: C2_3  and  C3_4 
REMARK    3  A    between atoms: C3_4  and  O2_5 
REMARK    4  A    between atoms: O2_5  and  C4_6 
REMARK    5  A    between atoms: C4_6  and  C5_7 
REMARK    6  A    between atoms: N1_8  and  C6_10 
REMARK    7  A    between atoms: C9_15  and  N3_16 
ROOT
HETATM    1  C6  UNL     1       3.435  16.518  20.367  1.00  0.00     0.121 A 
HETATM    2  C7  UNL     1       3.617  16.544  21.724  1.00  0.00     0.066 A 
HETATM    3  C8  UNL     1       2.647  17.109  22.543  1.00  0.00     0.110 A 
HETATM    4  N2  UNL     1       1.542  17.625  22.003  1.00  0.00    -0.202 N 
ATOM      5  H2  UNL     1       0.839  18.037  22.617  1.00  0.00     0.183 HD
HETATM    6  C9  UNL     1       1.326  17.620  20.679  1.00  0.00     0.677 A 
HETATM    7  N4  UNL     1       2.260  17.076  19.911  1.00  0.00    -0.177 N 
ATOM      8  H4  UNL     1       2.096  17.071  18.904  1.00  0.00     0.185 HD
ENDROOT
BRANCH   1   9
HETATM    9  N1  UNL     1       4.208  16.055  19.576  1.00  0.00    -0.353 N 
HETATM   10  C5  UNL     1       4.884  14.995  19.076  1.00  0.00     0.088 C 
ATOM     11  H1  UNL     1       4.496  16.845  18.999  1.00  0.00     0.166 HD
BRANCH  10  12
HETATM   12  C4  UNL     1       4.660  13.691  19.769  1.00  0.00     0.212 C 
BRANCH  12  13
HETATM   13  O2  UNL     1       4.614  12.655  18.870  1.00  0.00    -0.384 OA
BRANCH  13  14
HETATM   14  C3  UNL     1       5.017  12.925  17.601  1.00  0.00     0.194 C 
BRANCH  14  15
HETATM   15  C2  UNL     1       5.634  11.641  17.026  1.00  0.00     0.193 C 
BRANCH  15  16
HETATM   16  O1  UNL     1       5.175  10.523  17.702  1.00  0.00    -0.394 OA
HETATM   17  C1  UNL     1       4.511   9.631  16.892  1.00  0.00     0.201 C 
ENDBRANCH  15  16
ENDBRANCH  14  15
ENDBRANCH  13  14
ENDBRANCH  12  13
ENDBRANCH  10  12
ENDBRANCH   1   9
BRANCH   6  18
HETATM   18  N3  UNL     1       0.239  18.132  20.203  1.00  0.00    -0.234 N 
ATOM     19  H32 UNL     1      -0.227  18.933  20.630  1.00  0.00     0.174 HD
ATOM     20  H31 UNL     1      -0.186  17.734  19.366  1.00  0.00     0.174 HD
ENDBRANCH   6  18
TORSDOF 7
ENDMDL
MODEL 3
REMARK VINA RESULT: -6.144840392      2.330      3.958
REMARK  7 active torsions:
REMARK  status: ('A' for Active; 'I' for Inactive)
REMARK    1  A    between atoms: O1_2  and  C2_3 
REMARK    2  A    between atoms: C2_3  and  C3_4 
REMARK    3  A    between atoms: C3_4  and  O2_5 
REMARK    4  A    between atoms: O2_5  and  C4_6 
REMARK    5  A    between atoms: C4_6  and  C5_7 
REMARK    6  A    between atoms: N1_8  and  C6_10 
REMARK    7  A    between atoms: C9_15  and  N3_16 
ROOT
HETATM    1  C6  UNL     1       3.430  16.545  20.348  1.00  0.00     0.121 A 
HETATM    2  C7  UNL     1       3.641  16.590  21.700  1.00  0.00     0.066 A 
HETATM    3  C8  UNL     1       2.686  17.161  22.532  1.00  0.00     0.110 A 
HETATM    4  N2  UNL     1       1.566  17.663  22.009  1.00  0.00    -0.202 N 
ATOM      5  H2  UNL     1       0.874  18.079  22.632  1.00  0.00     0.183 HD
HETATM    6  C9  UNL     1       1.321  17.639  20.690  1.00  0.00     0.677 A 
HETATM    7  N4  UNL     1       2.242  17.090  19.909  1.00  0.00    -0.177 N 
ATOM      8  H4  UNL     1       2.056  17.070  18.906  1.00  0.00     0.185 HD
ENDROOT
BRANCH   1   9
HETATM    9  N1  UNL     1       4.188  16.076  19.546  1.00  0.00    -0.353 N 
HETATM   10  C5  UNL     1       4.871  15.016  19.055  1.00  0.00     0.088 C 
ATOM     11  H1  UNL     1       4.442  16.854  18.939  1.00  0.00     0.166 HD
BRANCH  10  12
HETATM   12  C4  UNL     1       4.696  13.727  19.791  1.00  0.00     0.212 C 
BRANCH  12  13
HETATM   13  O2  UNL     1       4.913  12.654  18.964  1.00  0.00    -0.384 OA
BRANCH  13  14
HETATM   14  C3  UNL     1       4.155  12.582  17.840  1.00  0.00     0.194 C 
BRANCH  14  15
HETATM   15  C2  UNL     1       4.783  11.522  16.922  1.00  0.00     0.193 C 
BRANCH  15  16
HETATM   16  O1  UNL     1       5.989  11.964  16.405  1.00  0.00    -0.394 OA
HETATM   17  C1  UNL     1       5.866  12.571  15.177  1.00  0.00     0.201 C 
ENDBRANCH  15  16
ENDBRANCH  14  15
ENDBRANCH  13  14
ENDBRANCH  12  13
ENDBRANCH  10  12
ENDBRANCH   1   9
BRANCH   6  18
HETATM   18  N3  UNL     1       0.222  18.138  20.231  1.00  0.00    -0.234 N 
ATOM     19  H32 UNL     1       0.102  19.134  20.047  1.00  0.00     0.174 HD
ATOM     20  H31 UNL     1      -0.571  17.527  20.036  1.00  0.00     0.174 HD
ENDBRANCH   6  18
TORSDOF 7
ENDMDL
MODEL 4
REMARK VINA RESULT: -6.116895606      2.208      4.510
REMARK  7 active torsions:
REMARK  status: ('A' for Active; 'I' for Inactive)
REMARK    1  A    between atoms: O1_2  and  C2_3 
REMARK    2  A    between atoms: C2_3  and  C3_4 
REMARK    3  A    between atoms: C3_4  and  O2_5 
REMARK    4  A    between atoms: O2_5  and  C4_6 
REMARK    5  A    between atoms: C4_6  and  C5_7 
REMARK    6  A    between atoms: N1_8  and  C6_10 
REMARK    7  A    between atoms: C9_15  and  N3_16 
ROOT
HETATM    1  C6  UNL     1       3.280  16.725  20.468  1.00  0.00     0.121 A 
HETATM    2  C7  UNL     1       3.970  15.554  20.625  1.00  0.00     0.066 A 
HETATM    3  C8  UNL     1       4.823  15.111  19.620  1.00  0.00     0.110 A 
HETATM    4  N2  UNL     1       4.964  15.831  18.506  1.00  0.00    -0.202 N 
ATOM      5  H2  UNL     1       5.592  15.494  17.777  1.00  0.00     0.183 HD
HETATM    6  C9  UNL     1       4.305  16.983  18.313  1.00  0.00     0.677 A 
HETATM    7  N4  UNL     1       3.496  17.393  19.281  1.00  0.00    -0.177 N 
ATOM      8  H4  UNL     1       2.995  18.270  19.136  1.00  0.00     0.185 HD
ENDROOT
BRANCH   1   9
HETATM    9  N1  UNL     1       2.523  17.193  21.272  1.00  0.00    -0.353 N 
HETATM   10  C5  UNL     1       2.236  18.119  22.216  1.00  0.00     0.088 C 
ATOM     11  H1  UNL     1       1.689  16.608  21.217  1.00  0.00     0.166 HD
BRANCH  10  12
HETATM   12  C4  UNL     1       3.319  19.103  22.517  1.00  0.00     0.212 C 
BRANCH  12  13
HETATM   13  O2  UNL     1       3.703  19.028  23.832  1.00  0.00    -0.384 OA
BRANCH  13  14
HETATM   14  C3  UNL     1       5.017  18.790  24.077  1.00  0.00     0.194 C 
BRANCH  14  15
HETATM   15  C2  UNL     1       5.119  17.444  24.809  1.00  0.00     0.193 C 
BRANCH  15  16
HETATM   16  O1  UNL     1       5.053  16.387  23.916  1.00  0.00    -0.394 OA
HETATM   17  C1  UNL     1       4.067  15.477  24.222  1.00  0.00     0.201 C 
ENDBRANCH  15  16
ENDBRANCH  14  15
ENDBRANCH  13  14
ENDBRANCH  12  13
ENDBRANCH  10  12
ENDBRANCH   1   9
BRANCH   6  18
HETATM   18  N3  UNL     1       4.474  17.645  17.216  1.00  0.00    -0.234 N 
ATOM     19  H32 UNL     1       4.501  17.198  16.300  1.00  0.00     0.174 HD
ATOM     20  H31 UNL     1       4.586  18.658  17.247  1.00  0.00     0.174 HD
ENDBRANCH   6  18
TORSDOF 7
ENDMDL
MODEL 5
REMARK VINA RESULT: -6.087628910      3.791      6.748
REMARK  7 active torsions:
REMARK  status: ('A' for Active; 'I' for Inactive)
REMARK    1  A    between atoms: O1_2  and  C2_3 
REMARK    2  A    between atoms: C2_3  and  C3_4 
REMARK    3  A    between atoms: C3_4  and  O2_5 
REMARK    4  A    between atoms: O2_5  and  C4_6 
REMARK    5  A    between atoms: C4_6  and  C5_7 
REMARK    6  A    between atoms: N1_8  and  C6_10 
REMARK    7  A    between atoms: C9_15  and  N3_16 
ROOT
HETATM    1  C6  UNL     1       4.679  13.752  17.812  1.00  0.00     0.121 A 
HETATM    2  C7  UNL     1       5.589  12.741  17.966  1.00  0.00     0.066 A 
HETATM    3  C8  UNL     1       5.435  11.554  17.260  1.00  0.00     0.110 A 
HETATM    4  N2  UNL     1       4.399  11.404  16.435  1.00  0.00    -0.202 N 
ATOM      5  H2  UNL     1       4.298  10.527  15.923  1.00  0.00     0.183 HD
HETATM    6  C9  UNL     1       3.484  12.369  16.255  1.00  0.00     0.677 A 
HETATM    7  N4  UNL     1       3.645  13.496  16.935  1.00  0.00    -0.177 N 
ATOM      8  H4  UNL     1       2.951  14.231  16.799  1.00  0.00     0.185 HD
ENDROOT
BRANCH   1   9
HETATM    9  N1  UNL     1       4.721  14.811  18.372  1.00  0.00    -0.353 N 
HETATM   10  C5  UNL     1       4.634  15.545  19.505  1.00  0.00     0.088 C 
ATOM     11  H1  UNL     1       4.919  15.488  17.636  1.00  0.00     0.166 HD
BRANCH  10  12
HETATM   12  C4  UNL     1       4.318  14.785  20.753  1.00  0.00     0.212 C 
BRANCH  12  13
HETATM   13  O2  UNL     1       4.727  15.475  21.867  1.00  0.00    -0.384 OA
BRANCH  13  14
HETATM   14  C3  UNL     1       3.758  16.049  22.625  1.00  0.00     0.194 C 
BRANCH  14  15
HETATM   15  C2  UNL     1       4.273  16.113  24.070  1.00  0.00     0.193 C 
BRANCH  15  16
HETATM   16  O1  UNL     1       5.632  16.379  24.102  1.00  0.00    -0.394 OA
HETATM   17  C1  UNL     1       5.942  17.552  24.750  1.00  0.00     0.201 C 
ENDBRANCH  15  16
ENDBRANCH  14  15
ENDBRANCH  13  14
ENDBRANCH  12  13
ENDBRANCH  10  12
ENDBRANCH   1   9
BRANCH   6  18
HETATM   18  N3  UNL     1       2.497  12.177  15.444  1.00  0.00    -0.234 N 
ATOM     19  H32 UNL     1       2.334  11.287  14.973  1.00  0.00     0.174 HD
ATOM     20  H31 UNL     1       1.841  12.934  15.254  1.00  0.00     0.174 HD
ENDBRANCH   6  18
TORSDOF 7
ENDMDL
