MODEL 1
REMARK VINA RESULT: -6.694245928      0.000      0.000
REMARK  6 active torsions:
REMARK  status: ('A' for Active; 'I' for Inactive)
REMARK    1  A    between atoms: C2_5  and  C3_6 
REMARK    2  A    between atoms: C3_6  and  C4_7 
REMARK    3  A    between atoms: C4_7  and  C5_8 
REMARK    4  A    between atoms: C5_8  and  O1_9 
REMARK    5  A    between atoms: O1_9  and  C6_10 
REMARK    6  A    between atoms: C6_10  and  C7_11 
ROOT
HETATM    1  C4  UNL     1       4.178   9.508  15.965  1.00  0.00     0.032 C 
ENDROOT
BRANCH   1   2
HETATM    2  C3  UNL     1       2.880   9.759  15.184  1.00  0.00     0.061 C 
BRANCH   2   3
HETATM    3  C2  UNL     1       3.071   9.593  13.735  1.00  0.00     0.027 A 
HETATM    4  N2  UNL     1       3.163  10.520  12.763  1.00  0.00    -0.333 N 
HETATM    5  C1  UNL     1       3.336   9.925  11.570  1.00  0.00     0.192 A 
ATOM      6  H2  UNL     1       3.109  11.528  12.910  1.00  0.00     0.168 HD
HETATM    7  N1  UNL     1       3.473  10.578  10.315  1.00  0.00    -0.063 NA
HETATM    8  N4  UNL     1       3.351   8.606  11.813  1.00  0.00    -0.339 N 
HETATM    9  C10 UNL     1       3.192   8.353  13.121  1.00  0.00     0.115 A 
ATOM     10  H4  UNL     1       3.468   7.889  11.097  1.00  0.00     0.168 HD
ENDBRANCH   2   3
ENDBRANCH   1   2
BRANCH   1  11
HETATM   11  C5  UNL     1       3.987  10.079  17.328  1.00  0.00     0.168 C 
BRANCH  11  12
HETATM   12  O1  UNL     1       4.793  11.150  17.618  1.00  0.00    -0.389 OA
BRANCH  12  13
HETATM   13  C6  UNL     1       3.944  12.254  17.843  1.00  0.00     0.193 C 
BRANCH  13  14
HETATM   14  C7  UNL     1       4.215  13.383  16.899  1.00  0.00     0.116 A 
HETATM   15  C8  UNL     1       5.320  13.005  15.934  1.00  0.00     0.130 A 
HETATM   16  C9  UNL     1       4.343  13.102  14.824  1.00  0.00     0.220 A 
HETATM   17  O2  UNL     1       4.323  12.944  13.574  1.00  0.00    -0.274 OA
HETATM   18  N3  UNL     1       3.341  13.471  15.756  1.00  0.00    -0.354 N 
ATOM     19  H3  UNL     1       2.355  13.713  15.655  1.00  0.00     0.162 HD
ENDBRANCH  13  14
ENDBRANCH  12  13
ENDBRANCH  11  12
ENDBRANCH   1  11
TORSDOF 6
ENDMDL
MODEL 2
REMARK VINA RESULT: -6.488127692      1.838      2.507
REMARK  6 active torsions:
REMARK  status: ('A' for Active; 'I' for Inactive)
REMARK    1  A    between atoms: C2_5  and  C3_6 
REMARK    2  A    between atoms: C3_6  and  C4_7 
REMARK    3  A    between atoms: C4_7  and  C5_8 
REMARK    4  A    between atoms: C5_8  and  O1_9 
REMARK    5  A    between atoms: O1_9  and  C6_10 
REMARK    6  A    between atoms: C6_10  and  C7_11 
ROOT
HETATM    1  C4  UNL     1       3.613   9.669  16.378  1.00  0.00     0.032 C 
ENDROOT
BRANCH   1   2
HETATM    2  C3  UNL     1       2.900  10.617  15.404  1.00  0.00     0.061 C 
BRANCH   2   3
HETATM    3  C2  UNL     1       3.077  10.199  14.005  1.00  0.00     0.027 A 
HETATM    4  N2  UNL     1       3.352  10.934  12.911  1.00  0.00    -0.333 N 
HETATM    5  C1  UNL     1       3.428  10.142  11.827  1.00  0.00     0.192 A 
ATOM      6  H2  UNL     1       3.484  11.946  12.904  1.00  0.00     0.168 HD
HETATM    7  N1  UNL     1       3.701  10.560  10.496  1.00  0.00    -0.063 NA
HETATM    8  N4  UNL     1       3.194   8.895  12.263  1.00  0.00    -0.339 N 
HETATM    9  C10 UNL     1       2.974   8.879  13.586  1.00  0.00     0.115 A 
ATOM     10  H4  UNL     1       3.185   8.068  11.667  1.00  0.00     0.168 HD
ENDBRANCH   2   3
ENDBRANCH   1   2
BRANCH   1  11
HETATM   11  C5  UNL     1       4.979  10.220  16.606  1.00  0.00     0.168 C 
BRANCH  11  12
HETATM   12  O1  UNL     1       5.107  10.981  17.740  1.00  0.00    -0.389 OA
BRANCH  12  13
HETATM   13  C6  UNL     1       5.561  12.253  17.332  1.00  0.00     0.193 C 
BRANCH  13  14
HETATM   14  C7  UNL     1       4.596  13.342  17.681  1.00  0.00     0.116 A 
HETATM   15  C8  UNL     1       4.392  13.399  19.181  1.00  0.00     0.130 A 
HETATM   16  C9  UNL     1       4.994  14.754  19.180  1.00  0.00     0.220 A 
HETATM   17  O2  UNL     1       5.279  15.655  20.013  1.00  0.00    -0.274 OA
HETATM   18  N3  UNL     1       5.151  14.669  17.774  1.00  0.00    -0.354 N 
ATOM     19  H3  UNL     1       5.522  15.315  17.077  1.00  0.00     0.162 HD
ENDBRANCH  13  14
ENDBRANCH  12  13
ENDBRANCH  11  12
ENDBRANCH   1  11
TORSDOF 6
ENDMDL
MODEL 3
REMARK VINA RESULT: -6.369624737      5.181      8.776
REMARK  6 active torsions:
REMARK  status: ('A' for Active; 'I' for Inactive)
REMARK    1  A    between atoms: C2_5  and  C3_6 
REMARK    2  A    between atoms: C3_6  and  C4_7 
REMARK    3  A    between atoms: C4_7  and  C5_8 
REMARK    4  A    between atoms: C5_8  and  O1_9 
REMARK    5  A    between atoms: O1_9  and  C6_10 
REMARK    6  A    between atoms: C6_10  and  C7_11 
ROOT
HETATM    1  C4  UNL     1       4.208  16.296  19.919  1.00  0.00     0.032 C 
ENDROOT
BRANCH   1   2
HETATM    2  C3  UNL     1       3.647  16.747  21.275  1.00  0.00     0.061 C 
BRANCH   2   3
HETATM    3  C2  UNL     1       2.459  17.600  21.119  1.00  0.00     0.027 A 
HETATM    4  N2  UNL     1       2.235  18.856  21.549  1.00  0.00    -0.333 N 
HETATM    5  C1  UNL     1       1.004  19.257  21.185  1.00  0.00     0.192 A 
ATOM      6  H2  UNL     1       2.901  19.422  22.074  1.00  0.00     0.168 HD
HETATM    7  N1  UNL     1       0.415  20.521  21.461  1.00  0.00    -0.063 NA
HETATM    8  N4  UNL     1       0.461  18.228  20.520  1.00  0.00    -0.339 N 
HETATM    9  C10 UNL     1       1.311  17.192  20.453  1.00  0.00     0.115 A 
ATOM     10  H4  UNL     1      -0.476  18.231  20.116  1.00  0.00     0.168 HD
ENDBRANCH   2   3
ENDBRANCH   1   2
BRANCH   1  11
HETATM   11  C5  UNL     1       4.739  14.915  20.103  1.00  0.00     0.168 C 
BRANCH  11  12
HETATM   12  O1  UNL     1       5.479  14.441  19.049  1.00  0.00    -0.389 OA
BRANCH  12  13
HETATM   13  C6  UNL     1       4.879  14.935  17.871  1.00  0.00     0.193 C 
BRANCH  13  14
HETATM   14  C7  UNL     1       4.642  13.860  16.858  1.00  0.00     0.116 A 
HETATM   15  C8  UNL     1       5.526  12.663  17.148  1.00  0.00     0.130 A 
HETATM   16  C9  UNL     1       4.305  11.862  17.403  1.00  0.00     0.220 A 
HETATM   17  O2  UNL     1       4.008  10.684  17.738  1.00  0.00    -0.274 OA
HETATM   18  N3  UNL     1       3.513  12.999  17.106  1.00  0.00    -0.354 N 
ATOM     19  H3  UNL     1       2.505  13.153  17.077  1.00  0.00     0.162 HD
ENDBRANCH  13  14
ENDBRANCH  12  13
ENDBRANCH  11  12
ENDBRANCH   1  11
TORSDOF 6
ENDMDL
MODEL 4
REMARK VINA RESULT: -6.341899225      5.231      9.008
REMARK  6 active torsions:
REMARK  status: ('A' for Active; 'I' for Inactive)
REMARK    1  A    between atoms: C2_5  and  C3_6 
REMARK    2  A    between atoms: C3_6  and  C4_7 
REMARK    3  A    between atoms: C4_7  and  C5_8 
REMARK    4  A    between atoms: C5_8  and  O1_9 
REMARK    5  A    between atoms: O1_9  and  C6_10 
REMARK    6  A    between atoms: C6_10  and  C7_11 
ROOT
HETATM    1  C4  UNL     1       4.329  16.401  19.541  1.00  0.00     0.032 C 
ENDROOT
BRANCH   1   2
HETATM    2  C3  UNL     1       3.340  17.086  20.495  1.00  0.00     0.061 C 
BRANCH   2   3
HETATM    3  C2  UNL     1       3.571  16.697  21.894  1.00  0.00     0.027 A 
HETATM    4  N2  UNL     1       3.965  15.518  22.411  1.00  0.00    -0.333 N 
HETATM    5  C1  UNL     1       4.049  15.604  23.750  1.00  0.00     0.192 A 
ATOM      6  H2  UNL     1       4.171  14.681  21.866  1.00  0.00     0.168 HD
HETATM    7  N1  UNL     1       4.433  14.562  24.638  1.00  0.00    -0.063 NA
HETATM    8  N4  UNL     1       3.698  16.860  24.063  1.00  0.00    -0.339 N 
HETATM    9  C10 UNL     1       3.397  17.567  22.963  1.00  0.00     0.115 A 
ATOM     10  H4  UNL     1       3.666  17.230  25.013  1.00  0.00     0.168 HD
ENDBRANCH   2   3
ENDBRANCH   1   2
BRANCH   1  11
HETATM   11  C5  UNL     1       4.074  16.949  18.178  1.00  0.00     0.168 C 
BRANCH  11  12
HETATM   12  O1  UNL     1       4.615  16.212  17.155  1.00  0.00    -0.389 OA
BRANCH  12  13
HETATM   13  C6  UNL     1       4.881  14.926  17.670  1.00  0.00     0.193 C 
BRANCH  13  14
HETATM   14  C7  UNL     1       4.388  13.837  16.769  1.00  0.00     0.116 A 
HETATM   15  C8  UNL     1       5.371  12.684  16.756  1.00  0.00     0.130 A 
HETATM   16  C9  UNL     1       4.327  11.828  17.370  1.00  0.00     0.220 A 
HETATM   17  O2  UNL     1       4.202  10.639  17.768  1.00  0.00    -0.274 OA
HETATM   18  N3  UNL     1       3.432  12.927  17.347  1.00  0.00    -0.354 N 
ATOM     19  H3  UNL     1       2.459  13.035  17.635  1.00  0.00     0.162 HD
ENDBRANCH  13  14
ENDBRANCH  12  13
ENDBRANCH  11  12
ENDBRANCH   1  11
TORSDOF 6
ENDMDL
MODEL 5
REMARK VINA RESULT: -6.337464119      4.600      8.219
REMARK  6 active torsions:
REMARK  status: ('A' for Active; 'I' for Inactive)
REMARK    1  A    between atoms: C2_5  and  C3_6 
REMARK    2  A    between atoms: C3_6  and  C4_7 
REMARK    3  A    between atoms: C4_7  and  C5_8 
REMARK    4  A    between atoms: C5_8  and  O1_9 
REMARK    5  A    between atoms: O1_9  and  C6_10 
REMARK    6  A    between atoms: C6_10  and  C7_11 
ROOT
HETATM    1  C4  UNL     1       5.094  14.482  19.511  1.00  0.00     0.032 C 
ENDROOT
BRANCH   1   2
HETATM    2  C3  UNL     1       4.180  15.649  19.912  1.00  0.00     0.061 C 
BRANCH   2   3
HETATM    3  C2  UNL     1       4.059  15.775  21.372  1.00  0.00     0.027 A 
HETATM    4  N2  UNL     1       4.370  14.896  22.344  1.00  0.00    -0.333 N 
HETATM    5  C1  UNL     1       4.097  15.424  23.550  1.00  0.00     0.192 A 
ATOM      6  H2  UNL     1       4.755  13.965  22.188  1.00  0.00     0.168 HD
HETATM    7  N1  UNL     1       4.293  14.794  24.809  1.00  0.00    -0.063 NA
HETATM    8  N4  UNL     1       3.610  16.651  23.315  1.00  0.00    -0.339 N 
HETATM    9  C10 UNL     1       3.567  16.911  22.000  1.00  0.00     0.115 A 
ATOM     10  H4  UNL     1       3.311  17.302  24.042  1.00  0.00     0.168 HD
ENDBRANCH   2   3
ENDBRANCH   1   2
BRANCH   1  11
HETATM   11  C5  UNL     1       4.222  13.423  18.929  1.00  0.00     0.168 C 
BRANCH  11  12
HETATM   12  O1  UNL     1       4.894  12.320  18.465  1.00  0.00    -0.389 OA
BRANCH  12  13
HETATM   13  C6  UNL     1       4.183  11.848  17.342  1.00  0.00     0.193 C 
BRANCH  13  14
HETATM   14  C7  UNL     1       4.146  12.847  16.230  1.00  0.00     0.116 A 
HETATM   15  C8  UNL     1       5.116  12.449  15.136  1.00  0.00     0.130 A 
HETATM   16  C9  UNL     1       3.963  12.278  14.218  1.00  0.00     0.220 A 
HETATM   17  O2  UNL     1       3.758  11.938  13.023  1.00  0.00    -0.274 OA
HETATM   18  N3  UNL     1       3.091  12.674  15.263  1.00  0.00    -0.354 N 
ATOM     19  H3  UNL     1       2.079  12.795  15.313  1.00  0.00     0.162 HD
ENDBRANCH  13  14
ENDBRANCH  12  13
ENDBRANCH  11  12
ENDBRANCH   1  11
TORSDOF 6
ENDMDL
