MODEL 1
REMARK VINA RESULT: -6.564964922      0.000      0.000
REMARK  9 active torsions:
REMARK  status: ('A' for Active; 'I' for Inactive)
REMARK    1  A    between atoms: N1_2  and  C2_3 
REMARK    2  A    between atoms: N1_2  and  C5_10 
REMARK    3  A    between atoms: C2_3  and  C3_4 
REMARK    4  A    between atoms: C3_4  and  C4_5 
REMARK    5  A    between atoms: C4_5  and  N2_6 
REMARK    6  A    between atoms: C5_10  and  C6_11 
REMARK    7  A    between atoms: C6_11  and  N3_12 
REMARK    8  A    between atoms: N3_12  and  C7_14 
REMARK    9  A    between atoms: C10_19  and  N5_20 
ROOT
HETATM    1  N3  UNL     1       2.448   9.988   9.290  1.00  0.00    -0.374 N 
ATOM      2  H3  UNL     1       2.398   8.976   9.402  1.00  0.00     0.161 HD
ENDROOT
BRANCH   1   3
HETATM    3  C6  UNL     1       2.783  10.775  10.442  1.00  0.00     0.151 C 
BRANCH   3   4
HETATM    4  C5  UNL     1       3.575  10.049  11.484  1.00  0.00     0.291 C 
BRANCH   4   5
HETATM    5  N1  UNL     1       2.898  10.022  12.769  1.00  0.00     0.085 N 
HETATM    6  C1  UNL     1       3.463  11.011  13.673  1.00  0.00     0.309 C 
BRANCH   5   7
HETATM    7  C2  UNL     1       2.989   8.727  13.408  1.00  0.00     0.273 C 
BRANCH   7   8
HETATM    8  C3  UNL     1       3.771   7.722  12.647  1.00  0.00     0.057 C 
BRANCH   8   9
HETATM    9  C4  UNL     1       3.011   6.459  12.337  1.00  0.00     0.231 C 
BRANCH   9  10
HETATM   10  N2  UNL     1       2.887   6.209  10.924  1.00  0.00    -0.079 N 
ATOM     11  H23 UNL     1       2.337   6.939  10.473  1.00  0.00     0.274 HD
ATOM     12  H22 UNL     1       3.779   6.353  10.450  1.00  0.00     0.274 HD
ATOM     13  H21 UNL     1       2.508   5.285  10.715  1.00  0.00     0.274 HD
ENDBRANCH   9  10
ENDBRANCH   8   9
ENDBRANCH   7   8
ENDBRANCH   5   7
ENDBRANCH   4   5
ENDBRANCH   3   4
ENDBRANCH   1   3
BRANCH   1  14
HETATM   14  C7  UNL     1       2.206  10.482   8.116  1.00  0.00     0.118 A 
HETATM   15  C8  UNL     1       1.646   9.678   7.158  1.00  0.00     0.066 A 
HETATM   16  C9  UNL     1       1.364  10.233   5.919  1.00  0.00     0.110 A 
HETATM   17  N4  UNL     1       1.628  11.506   5.662  1.00  0.00    -0.202 N 
HETATM   18  C10 UNL     1       2.176  12.272   6.616  1.00  0.00     0.677 A 
ATOM     19  H4  UNL     1       1.415  11.900   4.745  1.00  0.00     0.183 HD
HETATM   20  N6  UNL     1       2.456  11.760   7.812  1.00  0.00    -0.177 N 
ATOM     21  H6  UNL     1       2.875  12.362   8.520  1.00  0.00     0.185 HD
BRANCH  18  22
HETATM   22  N5  UNL     1       2.434  13.530   6.380  1.00  0.00    -0.234 N 
ATOM     23  H52 UNL     1       3.357  13.797   6.038  1.00  0.00     0.174 HD
ATOM     24  H51 UNL     1       1.719  14.240   6.541  1.00  0.00     0.174 HD
ENDBRANCH  18  22
ENDBRANCH   1  14
TORSDOF 9
ENDMDL
MODEL 2
REMARK VINA RESULT: -6.476926107      1.512      2.471
REMARK  9 active torsions:
REMARK  status: ('A' for Active; 'I' for Inactive)
REMARK    1  A    between atoms: N1_2  and  C2_3 
REMARK    2  A    between atoms: N1_2  and  C5_10 
REMARK    3  A    between atoms: C2_3  and  C3_4 
REMARK    4  A    between atoms: C3_4  and  C4_5 
REMARK    5  A    between atoms: C4_5  and  N2_6 
REMARK    6  A    between atoms: C5_10  and  C6_11 
REMARK    7  A    between atoms: C6_11  and  N3_12 
REMARK    8  A    between atoms: N3_12  and  C7_14 
REMARK    9  A    between atoms: C10_19  and  N5_20 
ROOT
HETATM    1  N3  UNL     1       2.474   9.989   9.398  1.00  0.00    -0.374 N 
ATOM      2  H3  UNL     1       2.386   8.981   9.523  1.00  0.00     0.161 HD
ENDROOT
BRANCH   1   3
HETATM    3  C6  UNL     1       2.862  10.775  10.534  1.00  0.00     0.151 C 
BRANCH   3   4
HETATM    4  C5  UNL     1       3.422   9.987  11.675  1.00  0.00     0.291 C 
BRANCH   4   5
HETATM    5  N1  UNL     1       2.999  10.508  12.963  1.00  0.00     0.085 N 
HETATM    6  C1  UNL     1       3.810  11.651  13.352  1.00  0.00     0.309 C 
BRANCH   5   7
HETATM    7  C2  UNL     1       3.091   9.516  14.012  1.00  0.00     0.273 C 
BRANCH   7   8
HETATM    8  C3  UNL     1       2.889  10.051  15.381  1.00  0.00     0.057 C 
BRANCH   8   9
HETATM    9  C4  UNL     1       3.886   9.546  16.391  1.00  0.00     0.231 C 
BRANCH   9  10
HETATM   10  N2  UNL     1       4.954  10.478  16.641  1.00  0.00    -0.079 N 
ATOM     11  H23 UNL     1       5.791  10.222  16.118  1.00  0.00     0.274 HD
ATOM     12  H22 UNL     1       4.758  11.381  16.210  1.00  0.00     0.274 HD
ATOM     13  H21 UNL     1       5.165  10.587  17.634  1.00  0.00     0.274 HD
ENDBRANCH   9  10
ENDBRANCH   8   9
ENDBRANCH   7   8
ENDBRANCH   5   7
ENDBRANCH   4   5
ENDBRANCH   3   4
ENDBRANCH   1   3
BRANCH   1  14
HETATM   14  C7  UNL     1       2.229  10.478   8.223  1.00  0.00     0.118 A 
HETATM   15  C8  UNL     1       1.686   9.665   7.262  1.00  0.00     0.066 A 
HETATM   16  C9  UNL     1       1.401  10.215   6.022  1.00  0.00     0.110 A 
HETATM   17  N4  UNL     1       1.645  11.492   5.766  1.00  0.00    -0.202 N 
HETATM   18  C10 UNL     1       2.177  12.267   6.721  1.00  0.00     0.677 A 
ATOM     19  H4  UNL     1       1.429  11.882   4.848  1.00  0.00     0.183 HD
HETATM   20  N6  UNL     1       2.460  11.760   7.919  1.00  0.00    -0.177 N 
ATOM     21  H6  UNL     1       2.866  12.369   8.628  1.00  0.00     0.185 HD
BRANCH  18  22
HETATM   22  N5  UNL     1       2.416  13.529   6.486  1.00  0.00    -0.234 N 
ATOM     23  H52 UNL     1       1.849  14.241   6.947  1.00  0.00     0.174 HD
ATOM     24  H51 UNL     1       3.160  13.799   5.842  1.00  0.00     0.174 HD
ENDBRANCH  18  22
ENDBRANCH   1  14
TORSDOF 9
ENDMDL
MODEL 3
REMARK VINA RESULT: -6.457497055      1.449      3.205
REMARK  9 active torsions:
REMARK  status: ('A' for Active; 'I' for Inactive)
REMARK    1  A    between atoms: N1_2  and  C2_3 
REMARK    2  A    between atoms: N1_2  and  C5_10 
REMARK    3  A    between atoms: C2_3  and  C3_4 
REMARK    4  A    between atoms: C3_4  and  C4_5 
REMARK    5  A    between atoms: C4_5  and  N2_6 
REMARK    6  A    between atoms: C5_10  and  C6_11 
REMARK    7  A    between atoms: C6_11  and  N3_12 
REMARK    8  A    between atoms: N3_12  and  C7_14 
REMARK    9  A    between atoms: C10_19  and  N5_20 
ROOT
HETATM    1  N3  UNL     1       2.431   9.953   9.406  1.00  0.00    -0.374 N 
ATOM      2  H3  UNL     1       2.395   8.938   9.491  1.00  0.00     0.161 HD
ENDROOT
BRANCH   1   3
HETATM    3  C6  UNL     1       2.718  10.717  10.586  1.00  0.00     0.151 C 
BRANCH   3   4
HETATM    4  C5  UNL     1       3.933  10.270  11.337  1.00  0.00     0.291 C 
BRANCH   4   5
HETATM    5  N1  UNL     1       3.728  10.288  12.775  1.00  0.00     0.085 N 
HETATM    6  C1  UNL     1       2.759   9.278  13.172  1.00  0.00     0.309 C 
BRANCH   5   7
HETATM    7  C2  UNL     1       3.255  11.572  13.244  1.00  0.00     0.273 C 
BRANCH   7   8
HETATM    8  C3  UNL     1       4.239  12.328  14.058  1.00  0.00     0.057 C 
BRANCH   8   9
HETATM    9  C4  UNL     1       3.863  12.461  15.509  1.00  0.00     0.231 C 
BRANCH   9  10
HETATM   10  N2  UNL     1       3.293  13.744  15.828  1.00  0.00    -0.079 N 
ATOM     11  H23 UNL     1       3.963  14.325  16.332  1.00  0.00     0.274 HD
ATOM     12  H22 UNL     1       3.180  14.311  14.987  1.00  0.00     0.274 HD
ATOM     13  H21 UNL     1       2.414  13.674  16.341  1.00  0.00     0.274 HD
ENDBRANCH   9  10
ENDBRANCH   8   9
ENDBRANCH   7   8
ENDBRANCH   5   7
ENDBRANCH   4   5
ENDBRANCH   3   4
ENDBRANCH   1   3
BRANCH   1  14
HETATM   14  C7  UNL     1       2.215  10.472   8.237  1.00  0.00     0.118 A 
HETATM   15  C8  UNL     1       1.702   9.682   7.242  1.00  0.00     0.066 A 
HETATM   16  C9  UNL     1       1.447  10.263   6.009  1.00  0.00     0.110 A 
HETATM   17  N4  UNL     1       1.693  11.547   5.793  1.00  0.00    -0.202 N 
HETATM   18  C10 UNL     1       2.197  12.299   6.781  1.00  0.00     0.677 A 
ATOM     19  H4  UNL     1       1.500  11.961   4.879  1.00  0.00     0.183 HD
HETATM   20  N6  UNL     1       2.450  11.762   7.973  1.00  0.00    -0.177 N 
ATOM     21  H6  UNL     1       2.835  12.354   8.708  1.00  0.00     0.185 HD
BRANCH  18  22
HETATM   22  N5  UNL     1       2.437  13.567   6.585  1.00  0.00    -0.234 N 
ATOM     23  H52 UNL     1       2.064  14.256   7.238  1.00  0.00     0.174 HD
ATOM     24  H51 UNL     1       2.990  13.866   5.781  1.00  0.00     0.174 HD
ENDBRANCH  18  22
ENDBRANCH   1  14
TORSDOF 9
ENDMDL
MODEL 4
REMARK VINA RESULT: -6.367774683      0.886      1.636
REMARK  9 active torsions:
REMARK  status: ('A' for Active; 'I' for Inactive)
REMARK    1  A    between atoms: N1_2  and  C2_3 
REMARK    2  A    between atoms: N1_2  and  C5_10 
REMARK    3  A    between atoms: C2_3  and  C3_4 
REMARK    4  A    between atoms: C3_4  and  C4_5 
REMARK    5  A    between atoms: C4_5  and  N2_6 
REMARK    6  A    between atoms: C5_10  and  C6_11 
REMARK    7  A    between atoms: C6_11  and  N3_12 
REMARK    8  A    between atoms: N3_12  and  C7_14 
REMARK    9  A    between atoms: C10_19  and  N5_20 
ROOT
HETATM    1  N3  UNL     1       2.452   9.988   9.307  1.00  0.00    -0.374 N 
ATOM      2  H3  UNL     1       2.435   8.976   9.432  1.00  0.00     0.161 HD
ENDROOT
BRANCH   1   3
HETATM    3  C6  UNL     1       2.796  10.799  10.439  1.00  0.00     0.151 C 
BRANCH   3   4
HETATM    4  C5  UNL     1       3.609  10.101  11.483  1.00  0.00     0.291 C 
BRANCH   4   5
HETATM    5  N1  UNL     1       2.935  10.061  12.769  1.00  0.00     0.085 N 
HETATM    6  C1  UNL     1       3.537  11.003  13.699  1.00  0.00     0.309 C 
BRANCH   5   7
HETATM    7  C2  UNL     1       2.981   8.746  13.370  1.00  0.00     0.273 C 
BRANCH   7   8
HETATM    8  C3  UNL     1       3.755   7.744  12.595  1.00  0.00     0.057 C 
BRANCH   8   9
HETATM    9  C4  UNL     1       3.008   6.465  12.328  1.00  0.00     0.231 C 
BRANCH   9  10
HETATM   10  N2  UNL     1       2.880   6.170  10.924  1.00  0.00    -0.079 N 
ATOM     11  H23 UNL     1       3.633   5.557  10.611  1.00  0.00     0.274 HD
ATOM     12  H22 UNL     1       2.083   5.556  10.753  1.00  0.00     0.274 HD
ATOM     13  H21 UNL     1       2.827   7.007  10.344  1.00  0.00     0.274 HD
ENDBRANCH   9  10
ENDBRANCH   8   9
ENDBRANCH   7   8
ENDBRANCH   5   7
ENDBRANCH   4   5
ENDBRANCH   3   4
ENDBRANCH   1   3
BRANCH   1  14
HETATM   14  C7  UNL     1       2.163  10.459   8.134  1.00  0.00     0.118 A 
HETATM   15  C8  UNL     1       2.415  11.780   7.867  1.00  0.00     0.066 A 
HETATM   16  C9  UNL     1       2.130  12.258   6.597  1.00  0.00     0.110 A 
HETATM   17  N4  UNL     1       1.625  11.464   5.663  1.00  0.00    -0.202 N 
HETATM   18  C10 UNL     1       1.387  10.176   5.949  1.00  0.00     0.677 A 
ATOM     19  H4  UNL     1       1.420  11.831   4.733  1.00  0.00     0.183 HD
HETATM   20  N6  UNL     1       1.652   9.697   7.162  1.00  0.00    -0.177 N 
ATOM     21  H6  UNL     1       1.460   8.714   7.356  1.00  0.00     0.185 HD
BRANCH  18  22
HETATM   22  N5  UNL     1       0.897   9.381   5.037  1.00  0.00    -0.234 N 
ATOM     23  H52 UNL     1       1.530   8.907   4.393  1.00  0.00     0.174 HD
ATOM     24  H51 UNL     1      -0.111   9.238   4.967  1.00  0.00     0.174 HD
ENDBRANCH  18  22
ENDBRANCH   1  14
TORSDOF 9
ENDMDL
MODEL 5
REMARK VINA RESULT: -6.358129482      7.794     11.592
REMARK  9 active torsions:
REMARK  status: ('A' for Active; 'I' for Inactive)
REMARK    1  A    between atoms: N1_2  and  C2_3 
REMARK    2  A    between atoms: N1_2  and  C5_10 
REMARK    3  A    between atoms: C2_3  and  C3_4 
REMARK    4  A    between atoms: C3_4  and  C4_5 
REMARK    5  A    between atoms: C4_5  and  N2_6 
REMARK    6  A    between atoms: C5_10  and  C6_11 
REMARK    7  A    between atoms: C6_11  and  N3_12 
REMARK    8  A    between atoms: N3_12  and  C7_14 
REMARK    9  A    between atoms: C10_19  and  N5_20 
ROOT
HETATM    1  N3  UNL     1       4.498  16.387  19.219  1.00  0.00    -0.374 N 
ATOM      2  H3  UNL     1       4.951  17.187  18.777  1.00  0.00     0.161 HD
ENDROOT
BRANCH   1   3
HETATM    3  C6  UNL     1       4.952  15.074  18.858  1.00  0.00     0.151 C 
BRANCH   3   4
HETATM    4  C5  UNL     1       5.023  14.823  17.385  1.00  0.00     0.291 C 
BRANCH   4   5
HETATM    5  N1  UNL     1       4.571  13.488  17.033  1.00  0.00     0.085 N 
HETATM    6  C1  UNL     1       4.036  12.798  18.196  1.00  0.00     0.309 C 
BRANCH   5   7
HETATM    7  C2  UNL     1       5.635  12.678  16.482  1.00  0.00     0.273 C 
BRANCH   7   8
HETATM    8  C3  UNL     1       5.635  12.591  15.001  1.00  0.00     0.057 C 
BRANCH   8   9
HETATM    9  C4  UNL     1       4.268  12.693  14.380  1.00  0.00     0.231 C 
BRANCH   9  10
HETATM   10  N2  UNL     1       3.951  11.577  13.528  1.00  0.00    -0.079 N 
ATOM     11  H23 UNL     1       4.596  11.526  12.740  1.00  0.00     0.274 HD
ATOM     12  H22 UNL     1       4.177  10.694  13.986  1.00  0.00     0.274 HD
ATOM     13  H21 UNL     1       2.983  11.582  13.206  1.00  0.00     0.274 HD
ENDBRANCH   9  10
ENDBRANCH   8   9
ENDBRANCH   7   8
ENDBRANCH   5   7
ENDBRANCH   4   5
ENDBRANCH   3   4
ENDBRANCH   1   3
BRANCH   1  14
HETATM   14  C7  UNL     1       3.551  16.621  20.072  1.00  0.00     0.118 A 
HETATM   15  C8  UNL     1       3.748  16.303  21.391  1.00  0.00     0.066 A 
HETATM   16  C9  UNL     1       2.736  16.590  22.294  1.00  0.00     0.110 A 
HETATM   17  N4  UNL     1       1.604  17.156  21.898  1.00  0.00    -0.202 N 
HETATM   18  C10 UNL     1       1.434  17.457  20.603  1.00  0.00     0.677 A 
ATOM     19  H4  UNL     1       0.868  17.361  22.574  1.00  0.00     0.183 HD
HETATM   20  N6  UNL     1       2.393  17.189  19.719  1.00  0.00    -0.177 N 
ATOM     21  H6  UNL     1       2.239  17.424  18.739  1.00  0.00     0.185 HD
BRANCH  18  22
HETATM   22  N5  UNL     1       0.329  18.022  20.199  1.00  0.00    -0.234 N 
ATOM     23  H52 UNL     1       0.372  18.776  19.514  1.00  0.00     0.174 HD
ATOM     24  H51 UNL     1      -0.570  17.713  20.570  1.00  0.00     0.174 HD
ENDBRANCH  18  22
ENDBRANCH   1  14
TORSDOF 9
ENDMDL
