MODEL 1
REMARK VINA RESULT: -6.787445555      0.000      0.000
REMARK  8 active torsions:
REMARK  status: ('A' for Active; 'I' for Inactive)
REMARK    1  A    between atoms: C2_2  and  C3_3 
REMARK    2  A    between atoms: C3_3  and  N1_4 
REMARK    3  A    between atoms: N1_4  and  C4_6 
REMARK    4  A    between atoms: C6_13  and  N4_14 
REMARK    5  A    between atoms: N4_14  and  C7_16 
REMARK    6  A    between atoms: C7_16  and  C8_17 
REMARK    7  A    between atoms: C8_17  and  C9_18 
REMARK    8  A    between atoms: C9_18  and  N5_19 
ROOT
HETATM    1  C4  UNL     1       2.164  16.709  23.706  1.00  0.00     0.697 A 
HETATM    2  N2  UNL     1       2.933  15.936  24.502  1.00  0.00    -0.140 N 
ATOM      3  H2  UNL     1       2.801  15.952  25.513  1.00  0.00     0.189 HD
HETATM    4  C5  UNL     1       3.872  15.145  23.957  1.00  0.00     0.352 A 
HETATM    5  O1  UNL     1       4.563  14.444  24.738  1.00  0.00    -0.246 OA
HETATM    6  N3  UNL     1       4.076  15.096  22.626  1.00  0.00    -0.140 N 
ATOM      7  H3  UNL     1       4.791  14.494  22.216  1.00  0.00     0.189 HD
HETATM    8  C6  UNL     1       3.286  15.885  21.861  1.00  0.00     0.696 A 
HETATM    9  N6  UNL     1       2.339  16.685  22.377  1.00  0.00    -0.022 N 
ATOM     10  H6  UNL     1       1.763  17.266  21.768  1.00  0.00     0.203 HD
ENDROOT
BRANCH   8  11
HETATM   11  N4  UNL     1       3.442  15.873  20.581  1.00  0.00    -0.225 N 
ATOM     12  H4  UNL     1       2.792  16.399  19.996  1.00  0.00     0.177 HD
BRANCH  11  13
HETATM   13  C7  UNL     1       4.521  15.129  19.950  1.00  0.00     0.139 C 
BRANCH  13  14
HETATM   14  C8  UNL     1       4.685  15.654  18.527  1.00  0.00     0.047 C 
BRANCH  14  15
HETATM   15  C9  UNL     1       4.118  17.062  18.417  1.00  0.00     0.231 C 
BRANCH  15  16
HETATM   16  N5  UNL     1       4.695  17.653  17.225  1.00  0.00    -0.079 N 
ATOM     17  H53 UNL     1       5.544  17.182  16.914  1.00  0.00     0.274 HD
ATOM     18  H52 UNL     1       4.141  17.485  16.385  1.00  0.00     0.274 HD
ATOM     19  H51 UNL     1       4.832  18.643  17.425  1.00  0.00     0.274 HD
ENDBRANCH  15  16
ENDBRANCH  14  15
ENDBRANCH  13  14
ENDBRANCH  11  13
ENDBRANCH   8  11
BRANCH   1  20
HETATM   20  N1  UNL     1       1.250  17.482  24.198  1.00  0.00    -0.222 N 
ATOM     21  H1  UNL     1       0.301  17.123  24.297  1.00  0.00     0.178 HD
BRANCH  20  22
HETATM   22  C3  UNL     1       1.530  18.837  24.611  1.00  0.00     0.164 C 
BRANCH  22  23
HETATM   23  C2  UNL     1       0.654  19.785  23.899  1.00  0.00    -0.017 C 
HETATM   24  C1  UNL     1       1.072  20.364  22.790  1.00  0.00     0.008 C 
ENDBRANCH  22  23
ENDBRANCH  20  22
ENDBRANCH   1  20
TORSDOF 8
ENDMDL
MODEL 2
REMARK VINA RESULT: -6.741299787      1.211      4.710
REMARK  8 active torsions:
REMARK  status: ('A' for Active; 'I' for Inactive)
REMARK    1  A    between atoms: C2_2  and  C3_3 
REMARK    2  A    between atoms: C3_3  and  N1_4 
REMARK    3  A    between atoms: N1_4  and  C4_6 
REMARK    4  A    between atoms: C6_13  and  N4_14 
REMARK    5  A    between atoms: N4_14  and  C7_16 
REMARK    6  A    between atoms: C7_16  and  C8_17 
REMARK    7  A    between atoms: C8_17  and  C9_18 
REMARK    8  A    between atoms: C9_18  and  N5_19 
ROOT
HETATM    1  C4  UNL     1       3.119  15.646  21.756  1.00  0.00     0.697 A 
HETATM    2  N2  UNL     1       3.881  15.025  22.681  1.00  0.00    -0.140 N 
ATOM      3  H2  UNL     1       4.597  14.360  22.391  1.00  0.00     0.189 HD
HETATM    4  C5  UNL     1       3.693  15.288  23.985  1.00  0.00     0.352 A 
HETATM    5  O1  UNL     1       4.426  14.685  24.809  1.00  0.00    -0.246 OA
HETATM    6  N3  UNL     1       2.757  16.160  24.408  1.00  0.00    -0.140 N 
ATOM      7  H3  UNL     1       2.617  16.356  25.399  1.00  0.00     0.189 HD
HETATM    8  C6  UNL     1       2.013  16.763  23.451  1.00  0.00     0.696 A 
HETATM    9  N6  UNL     1       2.178  16.521  22.141  1.00  0.00    -0.022 N 
ATOM     10  H6  UNL     1       1.598  16.995  21.449  1.00  0.00     0.203 HD
ENDROOT
BRANCH   8  11
HETATM   11  N4  UNL     1       1.105  17.607  23.805  1.00  0.00    -0.225 N 
ATOM     12  H4  UNL     1       0.122  17.346  23.718  1.00  0.00     0.177 HD
BRANCH  11  13
HETATM   13  C7  UNL     1       1.445  18.923  24.325  1.00  0.00     0.139 C 
BRANCH  13  14
HETATM   14  C8  UNL     1       1.805  19.817  23.143  1.00  0.00     0.047 C 
BRANCH  14  15
HETATM   15  C9  UNL     1       0.546  20.230  22.393  1.00  0.00     0.231 C 
BRANCH  15  16
HETATM   16  N5  UNL     1       0.724  19.815  21.015  1.00  0.00    -0.079 N 
ATOM     17  H53 UNL     1       1.645  19.416  20.832  1.00  0.00     0.274 HD
ATOM     18  H52 UNL     1       0.176  18.991  20.770  1.00  0.00     0.274 HD
ATOM     19  H51 UNL     1       0.514  20.626  20.434  1.00  0.00     0.274 HD
ENDBRANCH  15  16
ENDBRANCH  14  15
ENDBRANCH  13  14
ENDBRANCH  11  13
ENDBRANCH   8  11
BRANCH   1  20
HETATM   20  N1  UNL     1       3.274  15.417  20.492  1.00  0.00    -0.222 N 
ATOM     21  H1  UNL     1       2.572  14.863  20.002  1.00  0.00     0.178 HD
BRANCH  20  22
HETATM   22  C3  UNL     1       4.407  15.920  19.752  1.00  0.00     0.164 C 
BRANCH  22  23
HETATM   23  C2  UNL     1       4.033  17.123  18.990  1.00  0.00    -0.017 C 
HETATM   24  C1  UNL     1       4.031  17.095  17.671  1.00  0.00     0.008 C 
ENDBRANCH  22  23
ENDBRANCH  20  22
ENDBRANCH   1  20
TORSDOF 8
ENDMDL
MODEL 3
REMARK VINA RESULT: -6.731230314      1.150      5.127
REMARK  8 active torsions:
REMARK  status: ('A' for Active; 'I' for Inactive)
REMARK    1  A    between atoms: C2_2  and  C3_3 
REMARK    2  A    between atoms: C3_3  and  N1_4 
REMARK    3  A    between atoms: N1_4  and  C4_6 
REMARK    4  A    between atoms: C6_13  and  N4_14 
REMARK    5  A    between atoms: N4_14  and  C7_16 
REMARK    6  A    between atoms: C7_16  and  C8_17 
REMARK    7  A    between atoms: C8_17  and  C9_18 
REMARK    8  A    between atoms: C9_18  and  N5_19 
ROOT
HETATM    1  C4  UNL     1       3.437  15.848  21.729  1.00  0.00     0.697 A 
HETATM    2  N2  UNL     1       4.125  15.085  22.603  1.00  0.00    -0.140 N 
ATOM      3  H2  UNL     1       4.849  14.450  22.269  1.00  0.00     0.189 HD
HETATM    4  C5  UNL     1       3.852  15.165  23.916  1.00  0.00     0.352 A 
HETATM    5  O1  UNL     1       4.519  14.434  24.691  1.00  0.00    -0.246 OA
HETATM    6  N3  UNL     1       2.904  15.991  24.397  1.00  0.00    -0.140 N 
ATOM      7  H3  UNL     1       2.699  16.049  25.395  1.00  0.00     0.189 HD
HETATM    8  C6  UNL     1       2.235  16.741  23.490  1.00  0.00     0.696 A 
HETATM    9  N6  UNL     1       2.485  16.683  22.172  1.00  0.00    -0.022 N 
ATOM     10  H6  UNL     1       1.961  17.264  21.519  1.00  0.00     0.203 HD
ENDROOT
BRANCH   8  11
HETATM   11  N4  UNL     1       1.318  17.549  23.900  1.00  0.00    -0.225 N 
ATOM     12  H4  UNL     1       0.378  17.189  24.069  1.00  0.00     0.177 HD
BRANCH  11  13
HETATM   13  C7  UNL     1       1.588  18.960  24.130  1.00  0.00     0.139 C 
BRANCH  13  14
HETATM   14  C8  UNL     1       0.606  19.769  23.289  1.00  0.00     0.047 C 
BRANCH  14  15
HETATM   15  C9  UNL     1       1.185  20.027  21.905  1.00  0.00     0.231 C 
BRANCH  15  16
HETATM   16  N5  UNL     1       0.385  19.262  20.969  1.00  0.00    -0.079 N 
ATOM     17  H53 UNL     1      -0.520  18.983  21.347  1.00  0.00     0.274 HD
ATOM     18  H52 UNL     1       0.032  19.819  20.191  1.00  0.00     0.274 HD
ATOM     19  H51 UNL     1       0.957  18.472  20.670  1.00  0.00     0.274 HD
ENDBRANCH  15  16
ENDBRANCH  14  15
ENDBRANCH  13  14
ENDBRANCH  11  13
ENDBRANCH   8  11
BRANCH   1  20
HETATM   20  N1  UNL     1       3.673  15.797  20.458  1.00  0.00    -0.222 N 
ATOM     21  H1  UNL     1       3.173  16.432  19.837  1.00  0.00     0.178 HD
BRANCH  20  22
HETATM   22  C3  UNL     1       4.623  14.869  19.889  1.00  0.00     0.164 C 
BRANCH  22  23
HETATM   23  C2  UNL     1       4.876  15.193  18.474  1.00  0.00    -0.017 C 
HETATM   24  C1  UNL     1       4.957  14.226  17.581  1.00  0.00     0.008 C 
ENDBRANCH  22  23
ENDBRANCH  20  22
ENDBRANCH   1  20
TORSDOF 8
ENDMDL
MODEL 4
REMARK VINA RESULT: -6.513036558      2.600      6.451
REMARK  8 active torsions:
REMARK  status: ('A' for Active; 'I' for Inactive)
REMARK    1  A    between atoms: C2_2  and  C3_3 
REMARK    2  A    between atoms: C3_3  and  N1_4 
REMARK    3  A    between atoms: N1_4  and  C4_6 
REMARK    4  A    between atoms: C6_13  and  N4_14 
REMARK    5  A    between atoms: N4_14  and  C7_16 
REMARK    6  A    between atoms: C7_16  and  C8_17 
REMARK    7  A    between atoms: C8_17  and  C9_18 
REMARK    8  A    between atoms: C9_18  and  N5_19 
ROOT
HETATM    1  C4  UNL     1       4.724  15.123  18.632  1.00  0.00     0.697 A 
HETATM    2  N2  UNL     1       4.812  14.266  19.671  1.00  0.00    -0.140 N 
ATOM      3  H2  UNL     1       5.222  13.341  19.539  1.00  0.00     0.189 HD
HETATM    4  C5  UNL     1       4.359  14.636  20.880  1.00  0.00     0.352 A 
HETATM    5  O1  UNL     1       4.463  13.804  21.817  1.00  0.00    -0.246 OA
HETATM    6  N3  UNL     1       3.811  15.848  21.095  1.00  0.00    -0.140 N 
ATOM      7  H3  UNL     1       3.468  16.125  22.015  1.00  0.00     0.189 HD
HETATM    8  C6  UNL     1       3.740  16.679  20.029  1.00  0.00     0.696 A 
HETATM    9  N6  UNL     1       4.185  16.338  18.809  1.00  0.00    -0.022 N 
ATOM     10  H6  UNL     1       4.114  16.991  18.030  1.00  0.00     0.203 HD
ENDROOT
BRANCH   8  11
HETATM   11  N4  UNL     1       3.225  17.851  20.184  1.00  0.00    -0.225 N 
ATOM     12  H4  UNL     1       3.657  18.649  19.718  1.00  0.00     0.177 HD
BRANCH  11  13
HETATM   13  C7  UNL     1       2.043  18.064  21.005  1.00  0.00     0.139 C 
BRANCH  13  14
HETATM   14  C8  UNL     1       2.391  19.099  22.070  1.00  0.00     0.047 C 
BRANCH  14  15
HETATM   15  C9  UNL     1       1.263  20.112  22.209  1.00  0.00     0.231 C 
BRANCH  15  16
HETATM   16  N5  UNL     1       0.584  20.158  20.928  1.00  0.00    -0.079 N 
ATOM     17  H53 UNL     1       0.537  21.097  20.532  1.00  0.00     0.274 HD
ATOM     18  H52 UNL     1       1.118  19.727  20.174  1.00  0.00     0.274 HD
ATOM     19  H51 UNL     1      -0.332  19.733  21.065  1.00  0.00     0.274 HD
ENDBRANCH  15  16
ENDBRANCH  14  15
ENDBRANCH  13  14
ENDBRANCH  11  13
ENDBRANCH   8  11
BRANCH   1  20
HETATM   20  N1  UNL     1       5.151  14.799  17.454  1.00  0.00    -0.222 N 
ATOM     21  H1  UNL     1       5.953  15.296  17.067  1.00  0.00     0.178 HD
BRANCH  20  22
HETATM   22  C3  UNL     1       4.529  13.758  16.670  1.00  0.00     0.164 C 
BRANCH  22  23
HETATM   23  C2  UNL     1       5.521  12.740  16.285  1.00  0.00    -0.017 C 
HETATM   24  C1  UNL     1       5.882  12.614  15.023  1.00  0.00     0.008 C 
ENDBRANCH  22  23
ENDBRANCH  20  22
ENDBRANCH   1  20
TORSDOF 8
ENDMDL
MODEL 5
REMARK VINA RESULT: -6.428373950      3.211      6.837
REMARK  8 active torsions:
REMARK  status: ('A' for Active; 'I' for Inactive)
REMARK    1  A    between atoms: C2_2  and  C3_3 
REMARK    2  A    between atoms: C3_3  and  N1_4 
REMARK    3  A    between atoms: N1_4  and  C4_6 
REMARK    4  A    between atoms: C6_13  and  N4_14 
REMARK    5  A    between atoms: N4_14  and  C7_16 
REMARK    6  A    between atoms: C7_16  and  C8_17 
REMARK    7  A    between atoms: C8_17  and  C9_18 
REMARK    8  A    between atoms: C9_18  and  N5_19 
ROOT
HETATM    1  C4  UNL     1       4.909  14.712  18.856  1.00  0.00     0.697 A 
HETATM    2  N2  UNL     1       4.735  15.548  17.812  1.00  0.00    -0.140 N 
ATOM      3  H2  UNL     1       5.053  15.278  16.881  1.00  0.00     0.189 HD
HETATM    4  C5  UNL     1       4.141  16.738  18.002  1.00  0.00     0.352 A 
HETATM    5  O1  UNL     1       4.002  17.483  16.998  1.00  0.00    -0.246 OA
HETATM    6  N3  UNL     1       3.708  17.132  19.215  1.00  0.00    -0.140 N 
ATOM      7  H3  UNL     1       3.258  18.037  19.356  1.00  0.00     0.189 HD
HETATM    8  C6  UNL     1       3.899  16.267  20.238  1.00  0.00     0.696 A 
HETATM    9  N6  UNL     1       4.489  15.071  20.079  1.00  0.00    -0.022 N 
ATOM     10  H6  UNL     1       4.616  14.445  20.874  1.00  0.00     0.203 HD
ENDROOT
BRANCH   8  11
HETATM   11  N4  UNL     1       3.501  16.597  21.419  1.00  0.00    -0.225 N 
ATOM     12  H4  UNL     1       4.178  16.623  22.183  1.00  0.00     0.177 HD
BRANCH  11  13
HETATM   13  C7  UNL     1       2.112  16.933  21.691  1.00  0.00     0.139 C 
BRANCH  13  14
HETATM   14  C8  UNL     1       2.070  18.360  22.227  1.00  0.00     0.047 C 
BRANCH  14  15
HETATM   15  C9  UNL     1       1.082  19.196  21.424  1.00  0.00     0.231 C 
BRANCH  15  16
HETATM   16  N5  UNL     1       0.455  18.299  20.472  1.00  0.00    -0.079 N 
ATOM     17  H53 UNL     1       0.716  17.323  20.607  1.00  0.00     0.274 HD
ATOM     18  H52 UNL     1      -0.547  18.186  20.625  1.00  0.00     0.274 HD
ATOM     19  H51 UNL     1       0.682  18.652  19.542  1.00  0.00     0.274 HD
ENDBRANCH  15  16
ENDBRANCH  14  15
ENDBRANCH  13  14
ENDBRANCH  11  13
ENDBRANCH   8  11
BRANCH   1  20
HETATM   20  N1  UNL     1       5.476  13.559  18.709  1.00  0.00    -0.222 N 
ATOM     21  H1  UNL     1       6.356  13.378  19.191  1.00  0.00     0.178 HD
BRANCH  20  22
HETATM   22  C3  UNL     1       4.905  12.520  17.885  1.00  0.00     0.164 C 
BRANCH  22  23
HETATM   23  C2  UNL     1       5.888  12.048  16.894  1.00  0.00    -0.017 C 
HETATM   24  C1  UNL     1       5.785  12.421  15.633  1.00  0.00     0.008 C 
ENDBRANCH  22  23
ENDBRANCH  20  22
ENDBRANCH   1  20
TORSDOF 8
ENDMDL
