MODEL 1
REMARK VINA RESULT: -6.859731753      0.000      0.000
REMARK  6 active torsions:
REMARK  status: ('A' for Active; 'I' for Inactive)
REMARK    1  A    between atoms: C2_2  and  C3_3 
REMARK    2  A    between atoms: C3_3  and  N1_4 
REMARK    3  A    between atoms: N1_4  and  C4_7 
REMARK    4  A    between atoms: C4_7  and  C5_8 
REMARK    5  A    between atoms: N2_10  and  C7_11 
REMARK    6  A    between atoms: C10_17  and  N4_18 
ROOT
HETATM    1  C7  UNL     1       4.664  13.844  17.327  1.00  0.00     0.124 A 
HETATM    2  C8  UNL     1       4.530  13.066  18.430  1.00  0.00     0.123 A 
HETATM    3  C9  UNL     1       4.369  13.669  19.659  1.00  0.00     0.263 A 
HETATM    4  O1  UNL     1       4.245  12.950  20.683  1.00  0.00    -0.268 OA
HETATM    5  N3  UNL     1       4.346  14.996  19.764  1.00  0.00    -0.156 N 
ATOM      6  H3  UNL     1       4.227  15.423  20.683  1.00  0.00     0.187 HD
HETATM    7  C10 UNL     1       4.477  15.783  18.690  1.00  0.00     0.680 A 
HETATM    8  N5  UNL     1       4.633  15.192  17.494  1.00  0.00    -0.177 N 
ATOM      9  H5  UNL     1       4.733  15.786  16.670  1.00  0.00     0.185 HD
ENDROOT
BRANCH   1  10
HETATM   10  N2  UNL     1       4.820  13.240  16.054  1.00  0.00    -0.357 N 
HETATM   11  C5  UNL     1       4.492  12.863  14.705  1.00  0.00     0.129 A 
HETATM   12  C6  UNL     1       5.773  12.389  15.244  1.00  0.00     0.152 A 
BRANCH  11  13
HETATM   13  C4  UNL     1       3.486  11.805  14.391  1.00  0.00     0.259 C 
BRANCH  13  14
HETATM   14  N1  UNL     1       2.889  11.377  15.621  1.00  0.00    -0.070 N 
ATOM     15  H12 UNL     1       1.939  11.741  15.703  1.00  0.00     0.277 HD
ATOM     16  H11 UNL     1       3.323  11.850  16.413  1.00  0.00     0.277 HD
BRANCH  14  17
HETATM   17  C3  UNL     1       2.901   9.938  15.818  1.00  0.00     0.259 C 
BRANCH  17  18
HETATM   18  C2  UNL     1       3.688   9.691  17.054  1.00  0.00    -0.010 C 
HETATM   19  C1  UNL     1       4.895   9.205  16.966  1.00  0.00     0.008 C 
ENDBRANCH  17  18
ENDBRANCH  14  17
ENDBRANCH  13  14
ENDBRANCH  11  13
ENDBRANCH   1  10
BRANCH   7  20
HETATM   20  N4  UNL     1       4.457  17.083  18.761  1.00  0.00    -0.234 N 
ATOM     21  H42 UNL     1       4.171  17.530  19.631  1.00  0.00     0.174 HD
ATOM     22  H41 UNL     1       4.718  17.683  17.979  1.00  0.00     0.174 HD
ENDBRANCH   7  20
TORSDOF 6
ENDMDL
MODEL 2
REMARK VINA RESULT: -6.793768746      3.147      4.636
REMARK  6 active torsions:
REMARK  status: ('A' for Active; 'I' for Inactive)
REMARK    1  A    between atoms: C2_2  and  C3_3 
REMARK    2  A    between atoms: C3_3  and  N1_4 
REMARK    3  A    between atoms: N1_4  and  C4_7 
REMARK    4  A    between atoms: C4_7  and  C5_8 
REMARK    5  A    between atoms: N2_10  and  C7_11 
REMARK    6  A    between atoms: C10_17  and  N4_18 
ROOT
HETATM    1  C7  UNL     1       3.210  16.222  20.914  1.00  0.00     0.124 A 
HETATM    2  C8  UNL     1       3.456  16.654  22.176  1.00  0.00     0.123 A 
HETATM    3  C9  UNL     1       2.600  17.569  22.750  1.00  0.00     0.263 A 
HETATM    4  O1  UNL     1       2.826  17.972  23.919  1.00  0.00    -0.268 OA
HETATM    5  N3  UNL     1       1.545  18.023  22.076  1.00  0.00    -0.156 N 
ATOM      6  H3  UNL     1       0.923  18.700  22.518  1.00  0.00     0.187 HD
HETATM    7  C10 UNL     1       1.283  17.610  20.831  1.00  0.00     0.680 A 
HETATM    8  N5  UNL     1       2.119  16.719  20.275  1.00  0.00    -0.177 N 
ATOM      9  H5  UNL     1       1.926  16.399  19.325  1.00  0.00     0.185 HD
ENDROOT
BRANCH   1  10
HETATM   10  N2  UNL     1       4.076  15.273  20.314  1.00  0.00    -0.357 N 
HETATM   11  C5  UNL     1       5.120  14.769  19.462  1.00  0.00     0.129 A 
HETATM   12  C6  UNL     1       4.406  13.797  20.300  1.00  0.00     0.152 A 
BRANCH  11  13
HETATM   13  C4  UNL     1       4.942  14.610  17.987  1.00  0.00     0.259 C 
BRANCH  13  14
HETATM   14  N1  UNL     1       4.040  13.520  17.761  1.00  0.00    -0.070 N 
ATOM     15  H12 UNL     1       3.099  13.764  18.071  1.00  0.00     0.277 HD
ATOM     16  H11 UNL     1       4.239  12.752  18.401  1.00  0.00     0.277 HD
BRANCH  14  17
HETATM   17  C3  UNL     1       4.016  13.047  16.388  1.00  0.00     0.259 C 
BRANCH  17  18
HETATM   18  C2  UNL     1       5.377  12.525  16.100  1.00  0.00    -0.010 C 
HETATM   19  C1  UNL     1       5.870  12.632  14.898  1.00  0.00     0.008 C 
ENDBRANCH  17  18
ENDBRANCH  14  17
ENDBRANCH  13  14
ENDBRANCH  11  13
ENDBRANCH   1  10
BRANCH   7  20
HETATM   20  N4  UNL     1       0.259  18.035  20.147  1.00  0.00    -0.234 N 
ATOM     21  H42 UNL     1      -0.545  18.423  20.642  1.00  0.00     0.174 HD
ATOM     22  H41 UNL     1       0.220  17.999  19.129  1.00  0.00     0.174 HD
ENDBRANCH   7  20
TORSDOF 6
ENDMDL
MODEL 3
REMARK VINA RESULT: -6.551797688      3.581      6.817
REMARK  6 active torsions:
REMARK  status: ('A' for Active; 'I' for Inactive)
REMARK    1  A    between atoms: C2_2  and  C3_3 
REMARK    2  A    between atoms: C3_3  and  N1_4 
REMARK    3  A    between atoms: N1_4  and  C4_7 
REMARK    4  A    between atoms: C4_7  and  C5_8 
REMARK    5  A    between atoms: N2_10  and  C7_11 
REMARK    6  A    between atoms: C10_17  and  N4_18 
ROOT
HETATM    1  C7  UNL     1       3.574   9.410  14.325  1.00  0.00     0.124 A 
HETATM    2  C8  UNL     1       3.198  10.436  13.520  1.00  0.00     0.123 A 
HETATM    3  C9  UNL     1       3.002  10.197  12.177  1.00  0.00     0.263 A 
HETATM    4  O1  UNL     1       2.653  11.146  11.430  1.00  0.00    -0.268 OA
HETATM    5  N3  UNL     1       3.179   8.976  11.675  1.00  0.00    -0.156 N 
ATOM      6  H3  UNL     1       3.029   8.820  10.678  1.00  0.00     0.187 HD
HETATM    7  C10 UNL     1       3.550   7.950  12.449  1.00  0.00     0.680 A 
HETATM    8  N5  UNL     1       3.740   8.187  13.757  1.00  0.00    -0.177 N 
ATOM      9  H5  UNL     1       4.023   7.409  14.354  1.00  0.00     0.185 HD
ENDROOT
BRANCH   1  10
HETATM   10  N2  UNL     1       3.770   9.638  15.710  1.00  0.00    -0.357 N 
HETATM   11  C5  UNL     1       3.545  10.195  17.017  1.00  0.00     0.129 A 
HETATM   12  C6  UNL     1       4.652   9.239  16.873  1.00  0.00     0.152 A 
BRANCH  11  13
HETATM   13  C4  UNL     1       3.935  11.593  17.369  1.00  0.00     0.259 C 
BRANCH  13  14
HETATM   14  N1  UNL     1       3.066  12.490  16.666  1.00  0.00    -0.070 N 
ATOM     15  H12 UNL     1       2.513  13.041  17.322  1.00  0.00     0.277 HD
ATOM     16  H11 UNL     1       2.319  11.973  16.202  1.00  0.00     0.277 HD
BRANCH  14  17
HETATM   17  C3  UNL     1       3.749  13.357  15.722  1.00  0.00     0.259 C 
BRANCH  17  18
HETATM   18  C2  UNL     1       5.198  13.049  15.841  1.00  0.00    -0.010 C 
HETATM   19  C1  UNL     1       5.876  12.707  14.781  1.00  0.00     0.008 C 
ENDBRANCH  17  18
ENDBRANCH  14  17
ENDBRANCH  13  14
ENDBRANCH  11  13
ENDBRANCH   1  10
BRANCH   7  20
HETATM   20  N4  UNL     1       3.729   6.746  11.986  1.00  0.00    -0.234 N 
ATOM     21  H42 UNL     1       2.940   6.245  11.579  1.00  0.00     0.174 HD
ATOM     22  H41 UNL     1       4.632   6.274  12.011  1.00  0.00     0.174 HD
ENDBRANCH   7  20
TORSDOF 6
ENDMDL
MODEL 4
REMARK VINA RESULT: -6.515905628      1.372      1.952
REMARK  6 active torsions:
REMARK  status: ('A' for Active; 'I' for Inactive)
REMARK    1  A    between atoms: C2_2  and  C3_3 
REMARK    2  A    between atoms: C3_3  and  N1_4 
REMARK    3  A    between atoms: N1_4  and  C4_7 
REMARK    4  A    between atoms: C4_7  and  C5_8 
REMARK    5  A    between atoms: N2_10  and  C7_11 
REMARK    6  A    between atoms: C10_17  and  N4_18 
ROOT
HETATM    1  C7  UNL     1       4.848  14.117  17.658  1.00  0.00     0.124 A 
HETATM    2  C8  UNL     1       4.926  13.974  19.005  1.00  0.00     0.123 A 
HETATM    3  C9  UNL     1       4.821  15.091  19.805  1.00  0.00     0.263 A 
HETATM    4  O1  UNL     1       4.894  14.960  21.053  1.00  0.00    -0.268 OA
HETATM    5  N3  UNL     1       4.644  16.295  19.265  1.00  0.00    -0.156 N 
ATOM      6  H3  UNL     1       4.568  17.110  19.874  1.00  0.00     0.187 HD
HETATM    7  C10 UNL     1       4.563  16.460  17.940  1.00  0.00     0.680 A 
HETATM    8  N5  UNL     1       4.666  15.370  17.163  1.00  0.00    -0.177 N 
ATOM      9  H5  UNL     1       4.606  15.487  16.151  1.00  0.00     0.185 HD
ENDROOT
BRANCH   1  10
HETATM   10  N2  UNL     1       4.944  12.976  16.822  1.00  0.00    -0.357 N 
HETATM   11  C5  UNL     1       4.583  11.710  16.243  1.00  0.00     0.129 A 
HETATM   12  C6  UNL     1       5.816  12.344  15.759  1.00  0.00     0.152 A 
BRANCH  11  13
HETATM   13  C4  UNL     1       4.758  10.418  16.971  1.00  0.00     0.259 C 
BRANCH  13  14
HETATM   14  N1  UNL     1       3.921   9.436  16.347  1.00  0.00    -0.070 N 
ATOM     15  H12 UNL     1       3.553   8.786  17.041  1.00  0.00     0.277 HD
ATOM     16  H11 UNL     1       4.480   8.793  15.787  1.00  0.00     0.277 HD
BRANCH  14  17
HETATM   17  C3  UNL     1       2.842   9.997  15.552  1.00  0.00     0.259 C 
BRANCH  17  18
HETATM   18  C2  UNL     1       2.914   9.337  14.222  1.00  0.00    -0.010 C 
HETATM   19  C1  UNL     1       3.175  10.047  13.161  1.00  0.00     0.008 C 
ENDBRANCH  17  18
ENDBRANCH  14  17
ENDBRANCH  13  14
ENDBRANCH  11  13
ENDBRANCH   1  10
BRANCH   7  20
HETATM   20  N4  UNL     1       4.389  17.625  17.383  1.00  0.00    -0.234 N 
ATOM     21  H42 UNL     1       5.132  18.321  17.439  1.00  0.00     0.174 HD
ATOM     22  H41 UNL     1       3.535  17.878  16.887  1.00  0.00     0.174 HD
ENDBRANCH   7  20
TORSDOF 6
ENDMDL
MODEL 5
REMARK VINA RESULT: -6.514353927      1.471      2.204
REMARK  6 active torsions:
REMARK  status: ('A' for Active; 'I' for Inactive)
REMARK    1  A    between atoms: C2_2  and  C3_3 
REMARK    2  A    between atoms: C3_3  and  N1_4 
REMARK    3  A    between atoms: N1_4  and  C4_7 
REMARK    4  A    between atoms: C4_7  and  C5_8 
REMARK    5  A    between atoms: N2_10  and  C7_11 
REMARK    6  A    between atoms: C10_17  and  N4_18 
ROOT
HETATM    1  C7  UNL     1       4.796  14.038  18.023  1.00  0.00     0.124 A 
HETATM    2  C8  UNL     1       4.848  14.054  19.378  1.00  0.00     0.123 A 
HETATM    3  C9  UNL     1       4.750  15.260  20.038  1.00  0.00     0.263 A 
HETATM    4  O1  UNL     1       4.799  15.277  21.295  1.00  0.00    -0.268 OA
HETATM    5  N3  UNL     1       4.607  16.395  19.356  1.00  0.00    -0.156 N 
ATOM      6  H3  UNL     1       4.536  17.277  19.863  1.00  0.00     0.187 HD
HETATM    7  C10 UNL     1       4.553  16.403  18.020  1.00  0.00     0.680 A 
HETATM    8  N5  UNL     1       4.648  15.226  17.380  1.00  0.00    -0.177 N 
ATOM      9  H5  UNL     1       4.607  15.224  16.360  1.00  0.00     0.185 HD
ENDROOT
BRANCH   1  10
HETATM   10  N2  UNL     1       4.885  12.805  17.329  1.00  0.00    -0.357 N 
HETATM   11  C5  UNL     1       5.404  11.818  16.421  1.00  0.00     0.129 A 
HETATM   12  C6  UNL     1       4.200  11.464  17.183  1.00  0.00     0.152 A 
BRANCH  11  13
HETATM   13  C4  UNL     1       5.230  11.922  14.941  1.00  0.00     0.259 C 
BRANCH  13  14
HETATM   14  N1  UNL     1       3.913  11.463  14.613  1.00  0.00    -0.070 N 
ATOM     15  H12 UNL     1       3.210  12.004  15.116  1.00  0.00     0.277 HD
ATOM     16  H11 UNL     1       3.744  10.542  15.017  1.00  0.00     0.277 HD
BRANCH  14  17
HETATM   17  C3  UNL     1       3.626  11.455  13.189  1.00  0.00     0.259 C 
BRANCH  17  18
HETATM   18  C2  UNL     1       3.239  10.061  12.847  1.00  0.00    -0.010 C 
HETATM   19  C1  UNL     1       2.900   9.233  13.795  1.00  0.00     0.008 C 
ENDBRANCH  17  18
ENDBRANCH  14  17
ENDBRANCH  13  14
ENDBRANCH  11  13
ENDBRANCH   1  10
BRANCH   7  20
HETATM   20  N4  UNL     1       4.411  17.496  17.326  1.00  0.00    -0.234 N 
ATOM     21  H42 UNL     1       5.074  18.259  17.457  1.00  0.00     0.174 HD
ATOM     22  H41 UNL     1       3.660  17.627  16.649  1.00  0.00     0.174 HD
ENDBRANCH   7  20
TORSDOF 6
ENDMDL
