MODEL 1
REMARK VINA RESULT: -6.293566793      0.000      0.000
REMARK  7 active torsions:
REMARK  status: ('A' for Active; 'I' for Inactive)
REMARK    1  A    between atoms: N1_1  and  C1_5 
REMARK    2  A    between atoms: C1_5  and  C2_6 
REMARK    3  A    between atoms: C2_6  and  C3_7 
REMARK    4  A    between atoms: C3_7  and  C4_8 
REMARK    5  A    between atoms: C4_8  and  C5_9 
REMARK    6  A    between atoms: C5_9  and  C6_10 
REMARK    7  A    between atoms: C6_10  and  C7_11 
ROOT
HETATM    1  C6  UNL     1       5.742  12.544  17.880  1.00  0.00     0.032 C 
ENDROOT
BRANCH   1   2
HETATM    2  C5  UNL     1       5.209  11.176  17.556  1.00  0.00     0.002 C 
BRANCH   2   3
HETATM    3  C4  UNL     1       5.188  10.990  16.073  1.00  0.00     0.000 C 
BRANCH   3   4
HETATM    4  C3  UNL     1       5.596  12.200  15.303  1.00  0.00     0.002 C 
BRANCH   4   5
HETATM    5  C2  UNL     1       4.573  12.591  14.252  1.00  0.00     0.027 C 
BRANCH   5   6
HETATM    6  C1  UNL     1       3.187  12.617  14.822  1.00  0.00     0.229 C 
BRANCH   6   7
HETATM    7  N1  UNL     1       3.078  13.797  15.663  1.00  0.00    -0.079 N 
ATOM      8  H13 UNL     1       2.120  13.993  15.951  1.00  0.00     0.274 HD
ATOM      9  H12 UNL     1       3.471  13.659  16.593  1.00  0.00     0.274 HD
ATOM     10  H11 UNL     1       3.509  14.574  15.162  1.00  0.00     0.274 HD
ENDBRANCH   6   7
ENDBRANCH   5   6
ENDBRANCH   4   5
ENDBRANCH   3   4
ENDBRANCH   2   3
ENDBRANCH   1   2
BRANCH   1  11
HETATM   11  C7  UNL     1       4.848  13.296  18.838  1.00  0.00     0.186 C 
HETATM   12  N2  UNL     1       5.218  13.093  20.213  1.00  0.00    -0.134 NA
HETATM   13  N3  UNL     1       4.033  13.305  20.960  1.00  0.00    -0.146 NA
HETATM   14  C8  UNL     1       4.043  14.559  21.633  1.00  0.00     0.150 C 
HETATM   15  C9  UNL     1       3.846  15.754  20.804  1.00  0.00     0.140 C 
HETATM   16  N4  UNL     1       4.373  15.738  19.488  1.00  0.00    -0.358 N 
HETATM   17  C10 UNL     1       4.794  14.736  18.570  1.00  0.00     0.238 C 
ATOM     18  H4  UNL     1       4.477  16.678  19.105  1.00  0.00     0.162 HD
HETATM   19  O1  UNL     1       5.155  15.128  17.414  1.00  0.00    -0.272 OA
ENDBRANCH   1  11
TORSDOF 7
ENDMDL
MODEL 2
REMARK VINA RESULT: -6.109176856      2.656      3.011
REMARK  7 active torsions:
REMARK  status: ('A' for Active; 'I' for Inactive)
REMARK    1  A    between atoms: N1_1  and  C1_5 
REMARK    2  A    between atoms: C1_5  and  C2_6 
REMARK    3  A    between atoms: C2_6  and  C3_7 
REMARK    4  A    between atoms: C3_7  and  C4_8 
REMARK    5  A    between atoms: C4_8  and  C5_9 
REMARK    6  A    between atoms: C5_9  and  C6_10 
REMARK    7  A    between atoms: C6_10  and  C7_11 
ROOT
HETATM    1  C6  UNL     1       4.847  10.943  16.531  1.00  0.00     0.032 C 
ENDROOT
BRANCH   1   2
HETATM    2  C5  UNL     1       3.837   9.837  16.664  1.00  0.00     0.002 C 
BRANCH   2   3
HETATM    3  C4  UNL     1       2.787   9.995  15.612  1.00  0.00     0.000 C 
BRANCH   3   4
HETATM    4  C3  UNL     1       3.197   9.502  14.266  1.00  0.00     0.002 C 
BRANCH   4   5
HETATM    5  C2  UNL     1       3.187  10.600  13.218  1.00  0.00     0.027 C 
BRANCH   5   6
HETATM    6  C1  UNL     1       3.607  10.079  11.876  1.00  0.00     0.229 C 
BRANCH   6   7
HETATM    7  N1  UNL     1       3.321   8.654  11.848  1.00  0.00    -0.079 N 
ATOM      8  H13 UNL     1       3.918   8.117  12.477  1.00  0.00     0.274 HD
ATOM      9  H12 UNL     1       2.428   8.420  12.280  1.00  0.00     0.274 HD
ATOM     10  H11 UNL     1       3.386   8.345  10.878  1.00  0.00     0.274 HD
ENDBRANCH   6   7
ENDBRANCH   5   6
ENDBRANCH   4   5
ENDBRANCH   3   4
ENDBRANCH   2   3
ENDBRANCH   1   2
BRANCH   1  11
HETATM   11  C7  UNL     1       4.541  12.112  17.439  1.00  0.00     0.186 C 
HETATM   12  N2  UNL     1       5.562  12.321  18.430  1.00  0.00    -0.134 NA
HETATM   13  N3  UNL     1       4.913  12.967  19.511  1.00  0.00    -0.146 NA
HETATM   14  C8  UNL     1       5.230  14.354  19.572  1.00  0.00     0.150 C 
HETATM   15  C9  UNL     1       4.609  15.217  18.560  1.00  0.00     0.140 C 
HETATM   16  N4  UNL     1       4.398  14.673  17.269  1.00  0.00    -0.358 N 
HETATM   17  C10 UNL     1       4.322  13.366  16.713  1.00  0.00     0.238 C 
ATOM     18  H4  UNL     1       4.269  15.399  16.563  1.00  0.00     0.162 HD
HETATM   19  O1  UNL     1       4.038  13.281  15.474  1.00  0.00    -0.272 OA
ENDBRANCH   1  11
TORSDOF 7
ENDMDL
MODEL 3
REMARK VINA RESULT: -6.012776239      6.753     10.354
REMARK  7 active torsions:
REMARK  status: ('A' for Active; 'I' for Inactive)
REMARK    1  A    between atoms: N1_1  and  C1_5 
REMARK    2  A    between atoms: C1_5  and  C2_6 
REMARK    3  A    between atoms: C2_6  and  C3_7 
REMARK    4  A    between atoms: C3_7  and  C4_8 
REMARK    5  A    between atoms: C4_8  and  C5_9 
REMARK    6  A    between atoms: C5_9  and  C6_10 
REMARK    7  A    between atoms: C6_10  and  C7_11 
ROOT
HETATM    1  C6  UNL     1       3.130  10.321   9.757  1.00  0.00     0.032 C 
ENDROOT
BRANCH   1   2
HETATM    2  C5  UNL     1       2.605  10.710  11.111  1.00  0.00     0.002 C 
BRANCH   2   3
HETATM    3  C4  UNL     1       3.692  10.563  12.127  1.00  0.00     0.000 C 
BRANCH   3   4
HETATM    4  C3  UNL     1       3.321  11.047  13.488  1.00  0.00     0.002 C 
BRANCH   4   5
HETATM    5  C2  UNL     1       4.143  12.247  13.920  1.00  0.00     0.027 C 
BRANCH   5   6
HETATM    6  C1  UNL     1       4.091  12.438  15.406  1.00  0.00     0.229 C 
BRANCH   6   7
HETATM    7  N1  UNL     1       3.218  13.570  15.674  1.00  0.00    -0.079 N 
ATOM      8  H13 UNL     1       2.913  14.045  14.825  1.00  0.00     0.274 HD
ATOM      9  H12 UNL     1       2.297  13.290  16.009  1.00  0.00     0.274 HD
ATOM     10  H11 UNL     1       3.705  14.188  16.323  1.00  0.00     0.274 HD
ENDBRANCH   6   7
ENDBRANCH   5   6
ENDBRANCH   4   5
ENDBRANCH   3   4
ENDBRANCH   2   3
ENDBRANCH   1   2
BRANCH   1  11
HETATM   11  C7  UNL     1       2.398  11.019   8.635  1.00  0.00     0.186 C 
HETATM   12  N2  UNL     1       3.120  12.156   8.130  1.00  0.00    -0.134 NA
HETATM   13  N3  UNL     1       2.136  13.017   7.584  1.00  0.00    -0.146 NA
HETATM   14  C8  UNL     1       2.128  12.983   6.160  1.00  0.00     0.150 C 
HETATM   15  C9  UNL     1       1.562  11.784   5.533  1.00  0.00     0.140 C 
HETATM   16  N4  UNL     1       1.747  10.544   6.194  1.00  0.00    -0.358 N 
HETATM   17  C10 UNL     1       2.071  10.131   7.516  1.00  0.00     0.238 C 
ATOM     18  H4  UNL     1       1.616   9.750   5.565  1.00  0.00     0.162 HD
HETATM   19  O1  UNL     1       2.077   8.878   7.745  1.00  0.00    -0.272 OA
ENDBRANCH   1  11
TORSDOF 7
ENDMDL
MODEL 4
REMARK VINA RESULT: -5.981542258      1.581      1.853
REMARK  7 active torsions:
REMARK  status: ('A' for Active; 'I' for Inactive)
REMARK    1  A    between atoms: N1_1  and  C1_5 
REMARK    2  A    between atoms: C1_5  and  C2_6 
REMARK    3  A    between atoms: C2_6  and  C3_7 
REMARK    4  A    between atoms: C3_7  and  C4_8 
REMARK    5  A    between atoms: C4_8  and  C5_9 
REMARK    6  A    between atoms: C5_9  and  C6_10 
REMARK    7  A    between atoms: C6_10  and  C7_11 
ROOT
HETATM    1  C6  UNL     1       5.734  12.541  17.678  1.00  0.00     0.032 C 
ENDROOT
BRANCH   1   2
HETATM    2  C5  UNL     1       4.938  11.710  16.711  1.00  0.00     0.002 C 
BRANCH   2   3
HETATM    3  C4  UNL     1       5.070  10.265  17.072  1.00  0.00     0.000 C 
BRANCH   3   4
HETATM    4  C3  UNL     1       3.856   9.451  16.775  1.00  0.00     0.002 C 
BRANCH   4   5
HETATM    5  C2  UNL     1       2.924  10.137  15.793  1.00  0.00     0.027 C 
BRANCH   5   6
HETATM    6  C1  UNL     1       3.026   9.529  14.427  1.00  0.00     0.229 C 
BRANCH   6   7
HETATM    7  N1  UNL     1       3.393  10.587  13.500  1.00  0.00    -0.079 N 
ATOM      8  H13 UNL     1       2.595  11.147  13.201  1.00  0.00     0.274 HD
ATOM      9  H12 UNL     1       3.923  11.337  13.944  1.00  0.00     0.274 HD
ATOM     10  H11 UNL     1       3.891  10.157  12.721  1.00  0.00     0.274 HD
ENDBRANCH   6   7
ENDBRANCH   5   6
ENDBRANCH   4   5
ENDBRANCH   3   4
ENDBRANCH   2   3
ENDBRANCH   1   2
BRANCH   1  11
HETATM   11  C7  UNL     1       4.856  13.263  18.673  1.00  0.00     0.186 C 
HETATM   12  N2  UNL     1       5.261  13.033  20.033  1.00  0.00    -0.134 NA
HETATM   13  N3  UNL     1       4.092  13.215  20.813  1.00  0.00    -0.146 NA
HETATM   14  C8  UNL     1       4.106  14.455  21.514  1.00  0.00     0.150 C 
HETATM   15  C9  UNL     1       3.877  15.666  20.716  1.00  0.00     0.140 C 
HETATM   16  N4  UNL     1       4.373  15.684  19.389  1.00  0.00    -0.358 N 
HETATM   17  C10 UNL     1       4.781  14.708  18.439  1.00  0.00     0.238 C 
ATOM     18  H4  UNL     1       4.458  16.634  19.024  1.00  0.00     0.162 HD
HETATM   19  O1  UNL     1       5.111  15.128  17.283  1.00  0.00    -0.272 OA
ENDBRANCH   1  11
TORSDOF 7
ENDMDL
MODEL 5
REMARK VINA RESULT: -5.951212785      1.577      1.708
REMARK  7 active torsions:
REMARK  status: ('A' for Active; 'I' for Inactive)
REMARK    1  A    between atoms: N1_1  and  C1_5 
REMARK    2  A    between atoms: C1_5  and  C2_6 
REMARK    3  A    between atoms: C2_6  and  C3_7 
REMARK    4  A    between atoms: C3_7  and  C4_8 
REMARK    5  A    between atoms: C4_8  and  C5_9 
REMARK    6  A    between atoms: C5_9  and  C6_10 
REMARK    7  A    between atoms: C6_10  and  C7_11 
ROOT
HETATM    1  C6  UNL     1       5.813  12.532  17.640  1.00  0.00     0.032 C 
ENDROOT
BRANCH   1   2
HETATM    2  C5  UNL     1       5.040  11.807  16.574  1.00  0.00     0.002 C 
BRANCH   2   3
HETATM    3  C4  UNL     1       5.569  12.191  15.229  1.00  0.00     0.000 C 
BRANCH   3   4
HETATM    4  C3  UNL     1       4.511  12.506  14.227  1.00  0.00     0.002 C 
BRANCH   4   5
HETATM    5  C2  UNL     1       3.515  11.373  14.060  1.00  0.00     0.027 C 
BRANCH   5   6
HETATM    6  C1  UNL     1       3.394  10.960  12.624  1.00  0.00     0.229 C 
BRANCH   6   7
HETATM    7  N1  UNL     1       2.847   9.613  12.598  1.00  0.00    -0.079 N 
ATOM      8  H13 UNL     1       2.802   9.185  13.522  1.00  0.00     0.274 HD
ATOM      9  H12 UNL     1       1.848   9.595  12.393  1.00  0.00     0.274 HD
ATOM     10  H11 UNL     1       3.398   9.069  11.934  1.00  0.00     0.274 HD
ENDBRANCH   6   7
ENDBRANCH   5   6
ENDBRANCH   4   5
ENDBRANCH   3   4
ENDBRANCH   2   3
ENDBRANCH   1   2
BRANCH   1  11
HETATM   11  C7  UNL     1       4.910  13.245  18.620  1.00  0.00     0.186 C 
HETATM   12  N2  UNL     1       5.294  13.021  19.987  1.00  0.00    -0.134 NA
HETATM   13  N3  UNL     1       4.110  13.191  20.746  1.00  0.00    -0.146 NA
HETATM   14  C8  UNL     1       4.098  14.431  21.446  1.00  0.00     0.150 C 
HETATM   15  C9  UNL     1       3.869  15.639  20.643  1.00  0.00     0.140 C 
HETATM   16  N4  UNL     1       4.388  15.661  19.324  1.00  0.00    -0.358 N 
HETATM   17  C10 UNL     1       4.823  14.689  18.383  1.00  0.00     0.238 C 
ATOM     18  H4  UNL     1       4.469  16.611  18.960  1.00  0.00     0.162 HD
HETATM   19  O1  UNL     1       5.168  15.112  17.232  1.00  0.00    -0.272 OA
ENDBRANCH   1  11
TORSDOF 7
ENDMDL
