MODEL 1
REMARK VINA RESULT: -8.771428911      0.000      0.000
REMARK  10 active torsions:
REMARK  status: ('A' for Active; 'I' for Inactive)
REMARK    1  A    between atoms: C2_2  and  C4_4 
REMARK    2  A    between atoms: C4_4  and  O1_20 
REMARK    3  A    between atoms: N1_5  and  C5_7 
REMARK    4  A    between atoms: N4_12  and  N5_13 
REMARK    5  A    between atoms: C6_16  and  N6_17 
REMARK    6  A    between atoms: O1_20  and  C7_21 
REMARK    7  A    between atoms: C7_21  and  N7_22 
REMARK    8  A    between atoms: C10_27  and  N9_28 
REMARK       I    between atoms: C11_30  and  N10_31 
REMARK       I    between atoms: C11_30  and  N12_35 
REMARK    9  A    between atoms: N12_35  and  N13_37 
REMARK   10  A    between atoms: C13_39  and  C15_41 
ROOT
HETATM    1  N9  UNL     1      10.217  19.881  27.646  1.00  0.00    -0.021 N 
ATOM      2  H9  UNL     1      10.649  20.033  26.735  1.00  0.00     0.203 HD
HETATM    3  C11 UNL     1       9.377  18.917  27.733  1.00  0.00     0.720 C 
HETATM    4  N10 UNL     1       8.722  18.618  28.940  1.00  0.00    -0.124 N 
ATOM      5  H10 UNL     1       8.763  17.675  29.326  1.00  0.00     0.197 HD
HETATM    6  C12 UNL     1       8.012  19.623  29.611  1.00  0.00     0.196 C 
HETATM    7  N11 UNL     1       7.402  20.454  30.178  1.00  0.00    -0.171 NA
HETATM    8  N12 UNL     1       9.086  18.093  26.585  1.00  0.00    -0.131 N 
ATOM      9  H12 UNL     1       9.869  17.726  26.044  1.00  0.00     0.205 HD
ENDROOT
BRANCH   1  10
HETATM   10  C10 UNL     1      10.603  20.751  28.683  1.00  0.00     0.692 C 
HETATM   11  N7  UNL     1      11.686  20.410  29.574  1.00  0.00    -0.194 N 
HETATM   12  C8  UNL     1      11.646  21.378  30.620  1.00  0.00     0.163 C 
HETATM   13  C9  UNL     1      10.734  22.485  30.106  1.00  0.00     0.158 C 
HETATM   14  N8  UNL     1      10.097  21.879  28.984  1.00  0.00    -0.224 N 
ATOM     15  H8  UNL     1       9.320  22.303  28.477  1.00  0.00     0.177 HD
BRANCH  11  16
HETATM   16  C7  UNL     1      12.603  19.308  29.436  1.00  0.00     0.321 C 
BRANCH  16  17
HETATM   17  O1  UNL     1      11.991  18.078  29.259  1.00  0.00    -0.315 OA
BRANCH  17  18
HETATM   18  C4  UNL     1      11.748  17.107  30.266  1.00  0.00     0.150 C 
HETATM   19  N1  UNL     1      11.784  17.545  31.431  1.00  0.00    -0.318 N 
ATOM     20  H1  UNL     1      11.984  18.545  31.428  1.00  0.00     0.169 HD
BRANCH  18  21
HETATM   21  C2  UNL     1      11.495  15.758  29.789  1.00  0.00    -0.020 C 
HETATM   22  C1  UNL     1      10.776  15.423  28.744  1.00  0.00     0.023 C 
HETATM   23  C3  UNL     1      12.078  14.571  30.535  1.00  0.00     0.052 C 
ENDBRANCH  18  21
BRANCH  19  24
HETATM   24  C5  UNL     1      11.637  17.093  32.725  1.00  0.00     0.171 A 
HETATM   25  N2  UNL     1      12.581  16.717  33.636  1.00  0.00    -0.266 N 
HETATM   26  N3  UNL     1      12.004  16.334  34.751  1.00  0.00    -0.218 N 
ATOM     27  H2  UNL     1      13.588  16.733  33.475  1.00  0.00     0.190 HD
HETATM   28  N4  UNL     1      10.682  16.442  34.617  1.00  0.00    -0.168 N 
ATOM     29  H3  UNL     1      12.489  16.006  35.586  1.00  0.00     0.210 HD
HETATM   30  C6  UNL     1      10.417  16.903  33.390  1.00  0.00     0.185 A 
BRANCH  28  31
HETATM   31  N5  UNL     1       9.711  16.131  35.585  1.00  0.00    -0.321 N 
ATOM     32  H52 UNL     1       8.795  16.573  35.653  1.00  0.00     0.179 HD
ATOM     33  H51 UNL     1       9.793  15.440  36.330  1.00  0.00     0.179 HD
ENDBRANCH  28  31
BRANCH  30  34
HETATM   34  N6  UNL     1       9.234  17.142  32.881  1.00  0.00    -0.380 N 
ATOM     35  H62 UNL     1       8.471  16.475  32.768  1.00  0.00     0.158 HD
ATOM     36  H61 UNL     1       8.919  18.045  32.525  1.00  0.00     0.158 HD
ENDBRANCH  30  34
ENDBRANCH  19  24
ENDBRANCH  17  18
ENDBRANCH  16  17
ENDBRANCH  11  16
ENDBRANCH   1  10
BRANCH   8  37
HETATM   37  N13 UNL     1       7.862  17.787  26.196  1.00  0.00    -0.284 N 
HETATM   38  C13 UNL     1       6.784  18.098  25.739  1.00  0.00     0.098 C 
HETATM   39  C14 UNL     1       6.461  19.514  25.344  1.00  0.00     0.077 C 
ATOM     40  H13 UNL     1       7.785  16.784  26.365  1.00  0.00     0.187 HD
BRANCH  38  41
HETATM   41  C15 UNL     1       5.732  17.075  25.555  1.00  0.00     0.223 C 
HETATM   42  O2  UNL     1       5.127  16.587  26.533  1.00  0.00    -0.643 OA
HETATM   43  O3  UNL     1       5.422  16.660  24.281  1.00  0.00    -0.643 OA
ENDBRANCH  38  41
ENDBRANCH   8  37
TORSDOF 10
ENDMDL
MODEL 2
REMARK VINA RESULT: -8.720393937      5.389      9.753
REMARK  10 active torsions:
REMARK  status: ('A' for Active; 'I' for Inactive)
REMARK    1  A    between atoms: C2_2  and  C4_4 
REMARK    2  A    between atoms: C4_4  and  O1_20 
REMARK    3  A    between atoms: N1_5  and  C5_7 
REMARK    4  A    between atoms: N4_12  and  N5_13 
REMARK    5  A    between atoms: C6_16  and  N6_17 
REMARK    6  A    between atoms: O1_20  and  C7_21 
REMARK    7  A    between atoms: C7_21  and  N7_22 
REMARK    8  A    between atoms: C10_27  and  N9_28 
REMARK       I    between atoms: C11_30  and  N10_31 
REMARK       I    between atoms: C11_30  and  N12_35 
REMARK    9  A    between atoms: N12_35  and  N13_37 
REMARK   10  A    between atoms: C13_39  and  C15_41 
ROOT
HETATM    1  N9  UNL     1       1.481  16.076  22.638  1.00  0.00    -0.021 N 
ATOM      2  H9  UNL     1       0.639  15.766  23.123  1.00  0.00     0.203 HD
HETATM    3  C11 UNL     1       1.756  17.326  22.701  1.00  0.00     0.720 C 
HETATM    4  N10 UNL     1       2.891  17.863  22.069  1.00  0.00    -0.124 N 
ATOM      5  H10 UNL     1       3.562  18.415  22.603  1.00  0.00     0.197 HD
HETATM    6  C12 UNL     1       3.095  17.636  20.701  1.00  0.00     0.196 C 
HETATM    7  N11 UNL     1       3.274  17.463  19.551  1.00  0.00    -0.171 NA
HETATM    8  N12 UNL     1       0.906  18.227  23.441  1.00  0.00    -0.131 N 
ATOM      9  H12 UNL     1       0.627  17.960  24.385  1.00  0.00     0.205 HD
ENDROOT
BRANCH   1  10
HETATM   10  C10 UNL     1       2.225  15.088  21.965  1.00  0.00     0.692 C 
HETATM   11  N7  UNL     1       3.514  14.665  22.459  1.00  0.00    -0.194 N 
HETATM   12  C8  UNL     1       4.074  13.851  21.431  1.00  0.00     0.163 C 
HETATM   13  C9  UNL     1       2.915  13.537  20.494  1.00  0.00     0.158 C 
HETATM   14  N8  UNL     1       1.914  14.467  20.900  1.00  0.00    -0.224 N 
ATOM     15  H8  UNL     1       1.043  14.619  20.391  1.00  0.00     0.177 HD
BRANCH  11  16
HETATM   16  C7  UNL     1       4.110  15.011  23.724  1.00  0.00     0.321 C 
BRANCH  16  17
HETATM   17  O1  UNL     1       4.860  16.175  23.699  1.00  0.00    -0.315 OA
BRANCH  17  18
HETATM   18  C4  UNL     1       5.255  16.945  24.824  1.00  0.00     0.150 C 
HETATM   19  N1  UNL     1       6.460  16.847  25.125  1.00  0.00    -0.318 N 
ATOM     20  H1  UNL     1       6.935  16.215  24.481  1.00  0.00     0.169 HD
BRANCH  18  21
HETATM   21  C2  UNL     1       4.204  17.727  25.450  1.00  0.00    -0.020 C 
HETATM   22  C1  UNL     1       3.247  17.270  26.223  1.00  0.00     0.023 C 
HETATM   23  C3  UNL     1       4.136  19.227  25.218  1.00  0.00     0.052 C 
ENDBRANCH  18  21
BRANCH  19  24
HETATM   24  C5  UNL     1       7.348  17.329  26.063  1.00  0.00     0.171 A 
HETATM   25  N2  UNL     1       7.251  18.411  26.888  1.00  0.00    -0.266 N 
HETATM   26  N3  UNL     1       8.337  18.521  27.617  1.00  0.00    -0.218 N 
ATOM     27  H2  UNL     1       6.451  19.042  26.933  1.00  0.00     0.190 HD
HETATM   28  N4  UNL     1       9.174  17.532  27.303  1.00  0.00    -0.168 N 
ATOM     29  H3  UNL     1       8.513  19.246  28.312  1.00  0.00     0.210 HD
HETATM   30  C6  UNL     1       8.605  16.780  26.355  1.00  0.00     0.185 A 
BRANCH  28  31
HETATM   31  N5  UNL     1      10.443  17.296  27.860  1.00  0.00    -0.321 N 
ATOM     32  H52 UNL     1      10.996  17.990  28.362  1.00  0.00     0.179 HD
ATOM     33  H51 UNL     1      10.966  16.421  27.836  1.00  0.00     0.179 HD
ENDBRANCH  28  31
BRANCH  30  34
HETATM   34  N6  UNL     1       9.115  15.715  25.787  1.00  0.00    -0.380 N 
ATOM     35  H62 UNL     1       8.633  14.838  25.591  1.00  0.00     0.158 HD
ATOM     36  H61 UNL     1      10.078  15.626  25.462  1.00  0.00     0.158 HD
ENDBRANCH  30  34
ENDBRANCH  19  24
ENDBRANCH  17  18
ENDBRANCH  16  17
ENDBRANCH  11  16
ENDBRANCH   1  10
BRANCH   8  37
HETATM   37  N13 UNL     1       0.469  19.378  22.964  1.00  0.00    -0.284 N 
HETATM   38  C13 UNL     1       0.334  20.578  23.047  1.00  0.00     0.098 C 
HETATM   39  C14 UNL     1       0.862  21.364  24.216  1.00  0.00     0.077 C 
ATOM     40  H13 UNL     1       0.018  19.132  22.083  1.00  0.00     0.187 HD
BRANCH  38  41
HETATM   41  C15 UNL     1      -0.369  21.322  21.978  1.00  0.00     0.223 C 
HETATM   42  O2  UNL     1       0.211  21.627  20.915  1.00  0.00    -0.643 OA
HETATM   43  O3  UNL     1      -1.683  21.679  22.169  1.00  0.00    -0.643 OA
ENDBRANCH  38  41
ENDBRANCH   8  37
TORSDOF 10
ENDMDL
MODEL 3
REMARK VINA RESULT: -8.673878237      5.443      9.790
REMARK  10 active torsions:
REMARK  status: ('A' for Active; 'I' for Inactive)
REMARK    1  A    between atoms: C2_2  and  C4_4 
REMARK    2  A    between atoms: C4_4  and  O1_20 
REMARK    3  A    between atoms: N1_5  and  C5_7 
REMARK    4  A    between atoms: N4_12  and  N5_13 
REMARK    5  A    between atoms: C6_16  and  N6_17 
REMARK    6  A    between atoms: O1_20  and  C7_21 
REMARK    7  A    between atoms: C7_21  and  N7_22 
REMARK    8  A    between atoms: C10_27  and  N9_28 
REMARK       I    between atoms: C11_30  and  N10_31 
REMARK       I    between atoms: C11_30  and  N12_35 
REMARK    9  A    between atoms: N12_35  and  N13_37 
REMARK   10  A    between atoms: C13_39  and  C15_41 
ROOT
HETATM    1  N9  UNL     1       3.372  17.659  21.512  1.00  0.00    -0.021 N 
ATOM      2  H9  UNL     1       4.076  18.210  22.002  1.00  0.00     0.203 HD
HETATM    3  C11 UNL     1       2.245  18.228  21.290  1.00  0.00     0.720 C 
HETATM    4  N10 UNL     1       1.203  17.562  20.623  1.00  0.00    -0.124 N 
ATOM      5  H10 UNL     1       0.770  17.982  19.799  1.00  0.00     0.197 HD
HETATM    6  C12 UNL     1       0.761  16.318  21.094  1.00  0.00     0.196 C 
HETATM    7  N11 UNL     1       0.371  15.279  21.486  1.00  0.00    -0.171 NA
HETATM    8  N12 UNL     1       2.016  19.588  21.712  1.00  0.00    -0.131 N 
ATOM      9  H12 UNL     1       2.724  20.288  21.491  1.00  0.00     0.205 HD
ENDROOT
BRANCH   1  10
HETATM   10  C10 UNL     1       3.734  16.349  21.145  1.00  0.00     0.692 C 
HETATM   11  N7  UNL     1       3.829  15.301  22.134  1.00  0.00    -0.194 N 
HETATM   12  C8  UNL     1       4.435  14.195  21.468  1.00  0.00     0.163 C 
HETATM   13  C9  UNL     1       4.353  14.528  19.984  1.00  0.00     0.158 C 
HETATM   14  N8  UNL     1       4.021  15.914  19.985  1.00  0.00    -0.224 N 
ATOM     15  H8  UNL     1       4.013  16.495  19.146  1.00  0.00     0.177 HD
BRANCH  11  16
HETATM   16  C7  UNL     1       3.410  15.372  23.509  1.00  0.00     0.321 C 
BRANCH  16  17
HETATM   17  O1  UNL     1       4.453  15.429  24.419  1.00  0.00    -0.315 OA
BRANCH  17  18
HETATM   18  C4  UNL     1       4.994  16.603  25.007  1.00  0.00     0.150 C 
HETATM   19  N1  UNL     1       6.203  16.530  25.297  1.00  0.00    -0.318 N 
ATOM     20  H1  UNL     1       6.573  15.615  25.043  1.00  0.00     0.169 HD
BRANCH  18  21
HETATM   21  C2  UNL     1       4.063  17.704  25.180  1.00  0.00    -0.020 C 
HETATM   22  C1  UNL     1       4.157  18.897  24.643  1.00  0.00     0.023 C 
HETATM   23  C3  UNL     1       2.844  17.531  26.070  1.00  0.00     0.052 C 
ENDBRANCH  18  21
BRANCH  19  24
HETATM   24  C5  UNL     1       7.194  17.308  25.856  1.00  0.00     0.171 A 
HETATM   25  N2  UNL     1       7.137  18.575  26.360  1.00  0.00    -0.266 N 
HETATM   26  N3  UNL     1       8.323  18.946  26.781  1.00  0.00    -0.218 N 
ATOM     27  H2  UNL     1       6.296  19.149  26.403  1.00  0.00     0.190 HD
HETATM   28  N4  UNL     1       9.189  17.954  26.574  1.00  0.00    -0.168 N 
ATOM     29  H3  UNL     1       8.547  19.849  27.200  1.00  0.00     0.210 HD
HETATM   30  C6  UNL     1       8.537  16.933  26.009  1.00  0.00     0.185 A 
BRANCH  28  31
HETATM   31  N5  UNL     1      10.559  17.956  26.889  1.00  0.00    -0.321 N 
ATOM     32  H52 UNL     1      11.226  18.666  26.586  1.00  0.00     0.179 HD
ATOM     33  H51 UNL     1      11.058  17.263  27.447  1.00  0.00     0.179 HD
ENDBRANCH  28  31
BRANCH  30  34
HETATM   34  N6  UNL     1       9.044  15.778  25.654  1.00  0.00    -0.380 N 
ATOM     35  H62 UNL     1       8.806  14.864  26.037  1.00  0.00     0.158 HD
ATOM     36  H61 UNL     1       9.756  15.645  24.936  1.00  0.00     0.158 HD
ENDBRANCH  30  34
ENDBRANCH  19  24
ENDBRANCH  17  18
ENDBRANCH  16  17
ENDBRANCH  11  16
ENDBRANCH   1  10
BRANCH   8  37
HETATM   37  N13 UNL     1       0.939  19.978  22.370  1.00  0.00    -0.284 N 
HETATM   38  C13 UNL     1       0.385  20.323  23.390  1.00  0.00     0.098 C 
HETATM   39  C14 UNL     1       1.117  20.431  24.700  1.00  0.00     0.077 C 
ATOM     40  H13 UNL     1       0.204  19.999  21.663  1.00  0.00     0.187 HD
BRANCH  38  41
HETATM   41  C15 UNL     1      -1.056  20.655  23.377  1.00  0.00     0.223 C 
HETATM   42  O2  UNL     1      -1.807  20.305  24.311  1.00  0.00    -0.643 OA
HETATM   43  O3  UNL     1      -1.568  21.361  22.314  1.00  0.00    -0.643 OA
ENDBRANCH  38  41
ENDBRANCH   8  37
TORSDOF 10
ENDMDL
MODEL 4
REMARK VINA RESULT: -8.562192267      0.829      1.299
REMARK  10 active torsions:
REMARK  status: ('A' for Active; 'I' for Inactive)
REMARK    1  A    between atoms: C2_2  and  C4_4 
REMARK    2  A    between atoms: C4_4  and  O1_20 
REMARK    3  A    between atoms: N1_5  and  C5_7 
REMARK    4  A    between atoms: N4_12  and  N5_13 
REMARK    5  A    between atoms: C6_16  and  N6_17 
REMARK    6  A    between atoms: O1_20  and  C7_21 
REMARK    7  A    between atoms: C7_21  and  N7_22 
REMARK    8  A    between atoms: C10_27  and  N9_28 
REMARK       I    between atoms: C11_30  and  N10_31 
REMARK       I    between atoms: C11_30  and  N12_35 
REMARK    9  A    between atoms: N12_35  and  N13_37 
REMARK   10  A    between atoms: C13_39  and  C15_41 
ROOT
HETATM    1  N9  UNL     1      10.218  19.879  27.679  1.00  0.00    -0.021 N 
ATOM      2  H9  UNL     1      10.664  20.018  26.772  1.00  0.00     0.203 HD
HETATM    3  C11 UNL     1       9.367  18.925  27.764  1.00  0.00     0.720 C 
HETATM    4  N10 UNL     1       8.694  18.644  28.965  1.00  0.00    -0.124 N 
ATOM      5  H10 UNL     1       8.719  17.704  29.360  1.00  0.00     0.197 HD
HETATM    6  C12 UNL     1       7.986  19.663  29.618  1.00  0.00     0.196 C 
HETATM    7  N11 UNL     1       7.377  20.505  30.170  1.00  0.00    -0.171 NA
HETATM    8  N12 UNL     1       9.082  18.093  26.620  1.00  0.00    -0.131 N 
ATOM      9  H12 UNL     1       9.867  17.713  26.093  1.00  0.00     0.205 HD
ENDROOT
BRANCH   1  10
HETATM   10  C10 UNL     1      10.600  20.754  28.713  1.00  0.00     0.692 C 
HETATM   11  N7  UNL     1      11.688  20.424  29.602  1.00  0.00    -0.194 N 
HETATM   12  C8  UNL     1      11.644  21.394  30.646  1.00  0.00     0.163 C 
HETATM   13  C9  UNL     1      10.722  22.493  30.131  1.00  0.00     0.158 C 
HETATM   14  N8  UNL     1      10.087  21.879  29.012  1.00  0.00    -0.224 N 
ATOM     15  H8  UNL     1       9.306  22.296  28.506  1.00  0.00     0.177 HD
BRANCH  11  16
HETATM   16  C7  UNL     1      12.613  19.329  29.465  1.00  0.00     0.321 C 
BRANCH  16  17
HETATM   17  O1  UNL     1      12.009  18.095  29.283  1.00  0.00    -0.315 OA
BRANCH  17  18
HETATM   18  C4  UNL     1      11.648  17.176  30.303  1.00  0.00     0.150 C 
HETATM   19  N1  UNL     1      12.052  17.478  31.442  1.00  0.00    -0.318 N 
ATOM     20  H1  UNL     1      12.575  18.353  31.412  1.00  0.00     0.169 HD
BRANCH  18  21
HETATM   21  C2  UNL     1      10.866  16.031  29.869  1.00  0.00    -0.020 C 
HETATM   22  C1  UNL     1      10.963  15.414  28.716  1.00  0.00     0.023 C 
HETATM   23  C3  UNL     1       9.805  15.448  30.787  1.00  0.00     0.052 C 
ENDBRANCH  18  21
BRANCH  19  24
HETATM   24  C5  UNL     1      12.010  16.992  32.731  1.00  0.00     0.171 A 
HETATM   25  N2  UNL     1      11.406  17.504  33.843  1.00  0.00    -0.266 N 
HETATM   26  N3  UNL     1      11.630  16.726  34.876  1.00  0.00    -0.218 N 
ATOM     27  H2  UNL     1      10.861  18.365  33.867  1.00  0.00     0.190 HD
HETATM   28  N4  UNL     1      12.375  15.691  34.489  1.00  0.00    -0.168 N 
ATOM     29  H3  UNL     1      11.288  16.887  35.823  1.00  0.00     0.210 HD
HETATM   30  C6  UNL     1      12.629  15.817  33.182  1.00  0.00     0.185 A 
BRANCH  28  31
HETATM   31  N5  UNL     1      12.829  14.634  35.296  1.00  0.00    -0.321 N 
ATOM     32  H52 UNL     1      12.227  13.938  35.737  1.00  0.00     0.179 HD
ATOM     33  H51 UNL     1      13.797  14.426  35.543  1.00  0.00     0.179 HD
ENDBRANCH  28  31
BRANCH  30  34
HETATM   34  N6  UNL     1      13.330  14.999  32.437  1.00  0.00    -0.380 N 
ATOM     35  H62 UNL     1      14.298  15.122  32.138  1.00  0.00     0.158 HD
ATOM     36  H61 UNL     1      12.991  14.117  32.052  1.00  0.00     0.158 HD
ENDBRANCH  30  34
ENDBRANCH  19  24
ENDBRANCH  17  18
ENDBRANCH  16  17
ENDBRANCH  11  16
ENDBRANCH   1  10
BRANCH   8  37
HETATM   37  N13 UNL     1       7.859  17.797  26.218  1.00  0.00    -0.284 N 
HETATM   38  C13 UNL     1       6.793  18.114  25.740  1.00  0.00     0.098 C 
HETATM   39  C14 UNL     1       6.495  19.526  25.316  1.00  0.00     0.077 C 
ATOM     40  H13 UNL     1       7.767  16.798  26.403  1.00  0.00     0.187 HD
BRANCH  38  41
HETATM   41  C15 UNL     1       5.730  17.101  25.558  1.00  0.00     0.223 C 
HETATM   42  O2  UNL     1       5.101  16.642  26.534  1.00  0.00    -0.643 OA
HETATM   43  O3  UNL     1       5.437  16.665  24.287  1.00  0.00    -0.643 OA
ENDBRANCH  38  41
ENDBRANCH   8  37
TORSDOF 10
ENDMDL
MODEL 5
REMARK VINA RESULT: -8.449000251      6.155     10.298
REMARK  10 active torsions:
REMARK  status: ('A' for Active; 'I' for Inactive)
REMARK    1  A    between atoms: C2_2  and  C4_4 
REMARK    2  A    between atoms: C4_4  and  O1_20 
REMARK    3  A    between atoms: N1_5  and  C5_7 
REMARK    4  A    between atoms: N4_12  and  N5_13 
REMARK    5  A    between atoms: C6_16  and  N6_17 
REMARK    6  A    between atoms: O1_20  and  C7_21 
REMARK    7  A    between atoms: C7_21  and  N7_22 
REMARK    8  A    between atoms: C10_27  and  N9_28 
REMARK       I    between atoms: C11_30  and  N10_31 
REMARK       I    between atoms: C11_30  and  N12_35 
REMARK    9  A    between atoms: N12_35  and  N13_37 
REMARK   10  A    between atoms: C13_39  and  C15_41 
ROOT
HETATM    1  N9  UNL     1       4.001  16.956  21.047  1.00  0.00    -0.021 N 
ATOM      2  H9  UNL     1       4.870  17.344  21.413  1.00  0.00     0.203 HD
HETATM    3  C11 UNL     1       2.979  17.729  21.047  1.00  0.00     0.720 C 
HETATM    4  N10 UNL     1       1.731  17.298  20.565  1.00  0.00    -0.124 N 
ATOM      5  H10 UNL     1       1.246  17.833  19.845  1.00  0.00     0.197 HD
HETATM    6  C12 UNL     1       1.154  16.129  21.081  1.00  0.00     0.196 C 
HETATM    7  N11 UNL     1       0.653  15.156  21.513  1.00  0.00    -0.171 NA
HETATM    8  N12 UNL     1       3.084  19.082  21.535  1.00  0.00    -0.131 N 
ATOM      9  H12 UNL     1       3.860  19.655  21.204  1.00  0.00     0.205 HD
ENDROOT
BRANCH   1  10
HETATM   10  C10 UNL     1       4.044  15.625  20.591  1.00  0.00     0.692 C 
HETATM   11  N7  UNL     1       4.241  14.530  21.512  1.00  0.00    -0.194 N 
HETATM   12  C8  UNL     1       4.466  13.379  20.702  1.00  0.00     0.163 C 
HETATM   13  C9  UNL     1       4.036  13.786  19.299  1.00  0.00     0.158 C 
HETATM   14  N8  UNL     1       3.934  15.205  19.395  1.00  0.00    -0.224 N 
ATOM     15  H8  UNL     1       3.789  15.818  18.593  1.00  0.00     0.177 HD
BRANCH  11  16
HETATM   16  C7  UNL     1       4.227  14.600  22.950  1.00  0.00     0.321 C 
BRANCH  16  17
HETATM   17  O1  UNL     1       3.306  15.496  23.467  1.00  0.00    -0.315 OA
BRANCH  17  18
HETATM   18  C4  UNL     1       3.578  16.556  24.372  1.00  0.00     0.150 C 
HETATM   19  N1  UNL     1       4.751  16.974  24.345  1.00  0.00    -0.318 N 
ATOM     20  H1  UNL     1       5.295  16.458  23.654  1.00  0.00     0.169 HD
BRANCH  18  21
HETATM   21  C2  UNL     1       2.457  16.989  25.187  1.00  0.00    -0.020 C 
HETATM   22  C1  UNL     1       2.524  17.553  26.369  1.00  0.00     0.023 C 
HETATM   23  C3  UNL     1       1.037  16.787  24.688  1.00  0.00     0.052 C 
ENDBRANCH  18  21
BRANCH  19  24
HETATM   24  C5  UNL     1       5.539  17.922  24.962  1.00  0.00     0.171 A 
HETATM   25  N2  UNL     1       5.343  19.264  25.112  1.00  0.00    -0.266 N 
HETATM   26  N3  UNL     1       6.356  19.799  25.754  1.00  0.00    -0.218 N 
ATOM     27  H2  UNL     1       4.529  19.777  24.774  1.00  0.00     0.190 HD
HETATM   28  N4  UNL     1       7.239  18.844  26.045  1.00  0.00    -0.168 N 
ATOM     29  H3  UNL     1       6.451  20.785  25.991  1.00  0.00     0.210 HD
HETATM   30  C6  UNL     1       6.776  17.681  25.577  1.00  0.00     0.185 A 
BRANCH  28  31
HETATM   31  N5  UNL     1       8.457  19.007  26.728  1.00  0.00    -0.321 N 
ATOM     32  H52 UNL     1       8.708  19.824  27.284  1.00  0.00     0.179 HD
ATOM     33  H51 UNL     1       9.233  18.345  26.758  1.00  0.00     0.179 HD
ENDBRANCH  28  31
BRANCH  30  34
HETATM   34  N6  UNL     1       7.359  16.511  25.668  1.00  0.00    -0.380 N 
ATOM     35  H62 UNL     1       7.169  15.688  25.096  1.00  0.00     0.158 HD
ATOM     36  H61 UNL     1       8.091  16.269  26.335  1.00  0.00     0.158 HD
ENDBRANCH  30  34
ENDBRANCH  19  24
ENDBRANCH  17  18
ENDBRANCH  16  17
ENDBRANCH  11  16
ENDBRANCH   1  10
BRANCH   8  37
HETATM   37  N13 UNL     1       2.230  19.621  22.386  1.00  0.00    -0.284 N 
HETATM   38  C13 UNL     1       1.189  20.189  22.629  1.00  0.00     0.098 C 
HETATM   39  C14 UNL     1       0.217  20.574  21.548  1.00  0.00     0.077 C 
ATOM     40  H13 UNL     1       2.669  19.495  23.298  1.00  0.00     0.187 HD
BRANCH  38  41
HETATM   41  C15 UNL     1       0.836  20.529  24.026  1.00  0.00     0.223 C 
HETATM   42  O2  UNL     1       1.720  20.694  24.892  1.00  0.00    -0.643 OA
HETATM   43  O3  UNL     1      -0.490  20.663  24.363  1.00  0.00    -0.643 OA
ENDBRANCH  38  41
ENDBRANCH   8  37
TORSDOF 10
ENDMDL
