MODEL 1
REMARK VINA RESULT: -9.448075650      0.000      0.000
REMARK  11 active torsions:
REMARK  status: ('A' for Active; 'I' for Inactive)
REMARK    1  A    between atoms: C2_3  and  N2_4 
REMARK    2  A    between atoms: C2_3  and  C3_7 
REMARK    3  A    between atoms: C3_7  and  C4_8 
REMARK    4  A    between atoms: C4_8  and  N4_11 
REMARK    5  A    between atoms: N4_11  and  C6_13 
REMARK    6  A    between atoms: C6_13  and  N5_14 
REMARK    7  A    between atoms: C6_13  and  C7_19 
REMARK    8  A    between atoms: N5_14  and  N6_16 
REMARK    9  A    between atoms: C9_28  and  N11_29 
REMARK   10  A    between atoms: N11_29  and  S1_31 
REMARK   11  A    between atoms: S1_31  and  C10_34 
ROOT
HETATM    1  N1  UNL     1       4.214  17.211  17.942  1.00  0.00    -0.190 NA
HETATM    2  C1  UNL     1       3.689  17.106  18.987  1.00  0.00     0.112 C 
HETATM    3  C2  UNL     1       3.026  16.998  20.249  1.00  0.00     0.087 C 
ENDROOT
BRANCH   3   4
HETATM    4  N2  UNL     1       1.719  17.150  20.188  1.00  0.00    -0.394 N 
ATOM      5  H22 UNL     1       1.138  16.509  19.647  1.00  0.00     0.156 HD
ATOM      6  H21 UNL     1       1.365  17.946  20.717  1.00  0.00     0.156 HD
ENDBRANCH   3   4
BRANCH   3   7
HETATM    7  C3  UNL     1       3.702  16.739  21.529  1.00  0.00     0.108 C 
BRANCH   7   8
HETATM    8  C4  UNL     1       3.498  15.382  22.100  1.00  0.00     0.197 C 
HETATM    9  C5  UNL     1       3.771  14.270  21.211  1.00  0.00     0.085 C 
HETATM   10  N3  UNL     1       3.998  13.372  20.524  1.00  0.00    -0.195 NA
BRANCH   8  11
HETATM   11  N4  UNL     1       4.204  15.177  23.347  1.00  0.00    -0.356 N 
ATOM     12  H4  UNL     1       4.939  14.470  23.372  1.00  0.00     0.162 HD
BRANCH  11  13
HETATM   13  C6  UNL     1       3.961  15.831  24.420  1.00  0.00     0.149 C 
BRANCH  13  14
HETATM   14  N5  UNL     1       2.710  15.707  25.047  1.00  0.00    -0.290 N 
ATOM     15  H5  UNL     1       2.683  15.402  26.020  1.00  0.00     0.188 HD
BRANCH  14  16
HETATM   16  N6  UNL     1       1.484  15.986  24.390  1.00  0.00    -0.344 N 
ATOM     17  H62 UNL     1       1.532  16.445  23.481  1.00  0.00     0.176 HD
ATOM     18  H61 UNL     1       0.574  15.749  24.785  1.00  0.00     0.176 HD
ENDBRANCH  14  16
ENDBRANCH  13  14
BRANCH  13  19
HETATM   19  C7  UNL     1       4.985  16.690  24.976  1.00  0.00     0.138 A 
HETATM   20  N7  UNL     1       6.099  16.190  25.571  1.00  0.00    -0.291 N 
HETATM   21  N8  UNL     1       7.033  16.966  26.081  1.00  0.00    -0.273 N 
ATOM     22  H7  UNL     1       6.216  15.178  25.625  1.00  0.00     0.187 HD
HETATM   23  C8  UNL     1       6.961  18.307  26.056  1.00  0.00     0.208 A 
ATOM     24  H8  UNL     1       7.846  16.529  26.514  1.00  0.00     0.189 HD
HETATM   25  N9  UNL     1       7.989  19.129  26.618  1.00  0.00    -0.062 NA
HETATM   26  N10 UNL     1       5.874  18.839  25.475  1.00  0.00    -0.313 N 
HETATM   27  C9  UNL     1       4.899  18.079  24.944  1.00  0.00     0.149 A 
ATOM     28  H10 UNL     1       5.784  19.855  25.435  1.00  0.00     0.170 HD
BRANCH  27  29
HETATM   29  N11 UNL     1       3.858  18.557  24.384  1.00  0.00    -0.264 N 
ATOM     30  H11 UNL     1       3.780  18.436  23.374  1.00  0.00     0.180 HD
BRANCH  29  31
HETATM   31  S1  UNL     1       2.572  19.383  25.167  1.00  0.00     0.264 S 
HETATM   32  O1  UNL     1       3.113  20.415  26.150  1.00  0.00    -0.200 OA
HETATM   33  O2  UNL     1       1.828  18.384  26.017  1.00  0.00    -0.200 OA
BRANCH  31  34
HETATM   34  C10 UNL     1       1.486  20.181  24.062  1.00  0.00     0.080 A 
HETATM   35  C11 UNL     1       1.329  19.664  22.798  1.00  0.00     0.027 A 
HETATM   36  C12 UNL     1       0.474  20.300  21.923  1.00  0.00     0.028 A 
HETATM   37  C13 UNL     1      -0.229  21.434  22.260  1.00  0.00     0.046 A 
HETATM   38  N12 UNL     1      -1.112  22.088  21.354  1.00  0.00    -0.102 NA
HETATM   39  C14 UNL     1      -0.065  21.944  23.527  1.00  0.00     0.028 A 
HETATM   40  C15 UNL     1       0.796  21.314  24.427  1.00  0.00     0.027 A 
ENDBRANCH  31  34
ENDBRANCH  29  31
ENDBRANCH  27  29
ENDBRANCH  13  19
ENDBRANCH  11  13
ENDBRANCH   8  11
ENDBRANCH   7   8
ENDBRANCH   3   7
TORSDOF 11
ENDMDL
MODEL 2
REMARK VINA RESULT: -9.405844282      1.695      5.552
REMARK  11 active torsions:
REMARK  status: ('A' for Active; 'I' for Inactive)
REMARK    1  A    between atoms: C2_3  and  N2_4 
REMARK    2  A    between atoms: C2_3  and  C3_7 
REMARK    3  A    between atoms: C3_7  and  C4_8 
REMARK    4  A    between atoms: C4_8  and  N4_11 
REMARK    5  A    between atoms: N4_11  and  C6_13 
REMARK    6  A    between atoms: C6_13  and  N5_14 
REMARK    7  A    between atoms: C6_13  and  C7_19 
REMARK    8  A    between atoms: N5_14  and  N6_16 
REMARK    9  A    between atoms: C9_28  and  N11_29 
REMARK   10  A    between atoms: N11_29  and  S1_31 
REMARK   11  A    between atoms: S1_31  and  C10_34 
ROOT
HETATM    1  N1  UNL     1       5.745  13.280  19.751  1.00  0.00    -0.190 NA
HETATM    2  C1  UNL     1       5.249  14.189  19.199  1.00  0.00     0.112 C 
HETATM    3  C2  UNL     1       4.658  15.287  18.498  1.00  0.00     0.087 C 
ENDROOT
BRANCH   3   4
HETATM    4  N2  UNL     1       4.433  15.055  17.221  1.00  0.00    -0.394 N 
ATOM      5  H22 UNL     1       3.504  15.180  16.818  1.00  0.00     0.156 HD
ATOM      6  H21 UNL     1       5.255  14.747  16.701  1.00  0.00     0.156 HD
ENDBRANCH   3   4
BRANCH   3   7
HETATM    7  C3  UNL     1       4.313  16.580  19.107  1.00  0.00     0.108 C 
BRANCH   7   8
HETATM    8  C4  UNL     1       3.378  16.518  20.260  1.00  0.00     0.197 C 
HETATM    9  C5  UNL     1       3.960  16.141  21.533  1.00  0.00     0.085 C 
HETATM   10  N3  UNL     1       4.407  15.858  22.558  1.00  0.00    -0.195 NA
BRANCH   8  11
HETATM   11  N4  UNL     1       2.604  17.729  20.432  1.00  0.00    -0.356 N 
ATOM     12  H4  UNL     1       2.995  18.603  20.077  1.00  0.00     0.162 HD
BRANCH  11  13
HETATM   13  C6  UNL     1       1.459  17.770  21.002  1.00  0.00     0.149 C 
BRANCH  13  14
HETATM   14  N5  UNL     1       0.575  16.686  20.874  1.00  0.00    -0.290 N 
ATOM     15  H5  UNL     1      -0.093  16.693  20.102  1.00  0.00     0.188 HD
BRANCH  14  16
HETATM   16  N6  UNL     1       0.566  15.583  21.766  1.00  0.00    -0.344 N 
ATOM     17  H62 UNL     1       0.086  15.705  22.658  1.00  0.00     0.176 HD
ATOM     18  H61 UNL     1       1.013  14.692  21.554  1.00  0.00     0.176 HD
ENDBRANCH  14  16
ENDBRANCH  13  14
BRANCH  13  19
HETATM   19  C7  UNL     1       1.092  18.936  21.777  1.00  0.00     0.138 A 
HETATM   20  N7  UNL     1       0.450  19.997  21.222  1.00  0.00    -0.291 N 
HETATM   21  N8  UNL     1       0.116  21.061  21.922  1.00  0.00    -0.273 N 
ATOM     22  H7  UNL     1       0.219  19.967  20.229  1.00  0.00     0.187 HD
HETATM   23  C8  UNL     1       0.382  21.186  23.233  1.00  0.00     0.208 A 
ATOM     24  H8  UNL     1      -0.365  21.825  21.447  1.00  0.00     0.189 HD
HETATM   25  N9  UNL     1       0.010  22.354  23.971  1.00  0.00    -0.062 NA
HETATM   26  N10 UNL     1       1.016  20.157  23.817  1.00  0.00    -0.313 N 
HETATM   27  C9  UNL     1       1.373  19.053  23.136  1.00  0.00     0.149 A 
ATOM     28  H10 UNL     1       1.234  20.214  24.812  1.00  0.00     0.170 HD
BRANCH  27  29
HETATM   29  N11 UNL     1       1.974  18.061  23.665  1.00  0.00    -0.264 N 
ATOM     30  H11 UNL     1       2.107  17.237  23.079  1.00  0.00     0.180 HD
BRANCH  29  31
HETATM   31  S1  UNL     1       2.581  17.978  25.269  1.00  0.00     0.264 S 
HETATM   32  O1  UNL     1       2.089  16.716  25.967  1.00  0.00    -0.200 OA
HETATM   33  O2  UNL     1       1.981  19.118  26.051  1.00  0.00    -0.200 OA
BRANCH  31  34
HETATM   34  C10 UNL     1       4.321  18.020  25.354  1.00  0.00     0.080 A 
HETATM   35  C11 UNL     1       4.992  16.891  25.764  1.00  0.00     0.027 A 
HETATM   36  C12 UNL     1       6.368  16.929  25.836  1.00  0.00     0.028 A 
HETATM   37  C13 UNL     1       7.102  18.048  25.515  1.00  0.00     0.046 A 
HETATM   38  N12 UNL     1       8.524  18.082  25.591  1.00  0.00    -0.102 NA
HETATM   39  C14 UNL     1       6.422  19.171  25.106  1.00  0.00     0.028 A 
HETATM   40  C15 UNL     1       5.028  19.154  25.027  1.00  0.00     0.027 A 
ENDBRANCH  31  34
ENDBRANCH  29  31
ENDBRANCH  27  29
ENDBRANCH  13  19
ENDBRANCH  11  13
ENDBRANCH   8  11
ENDBRANCH   7   8
ENDBRANCH   3   7
TORSDOF 11
ENDMDL
MODEL 3
REMARK VINA RESULT: -9.238191549      2.406      6.466
REMARK  11 active torsions:
REMARK  status: ('A' for Active; 'I' for Inactive)
REMARK    1  A    between atoms: C2_3  and  N2_4 
REMARK    2  A    between atoms: C2_3  and  C3_7 
REMARK    3  A    between atoms: C3_7  and  C4_8 
REMARK    4  A    between atoms: C4_8  and  N4_11 
REMARK    5  A    between atoms: N4_11  and  C6_13 
REMARK    6  A    between atoms: C6_13  and  N5_14 
REMARK    7  A    between atoms: C6_13  and  C7_19 
REMARK    8  A    between atoms: N5_14  and  N6_16 
REMARK    9  A    between atoms: C9_28  and  N11_29 
REMARK   10  A    between atoms: N11_29  and  S1_31 
REMARK   11  A    between atoms: S1_31  and  C10_34 
ROOT
HETATM    1  N1  UNL     1       9.253  17.165  25.291  1.00  0.00    -0.190 NA
HETATM    2  C1  UNL     1       8.169  17.593  25.435  1.00  0.00     0.112 C 
HETATM    3  C2  UNL     1       6.861  18.145  25.608  1.00  0.00     0.087 C 
ENDROOT
BRANCH   3   4
HETATM    4  N2  UNL     1       6.706  19.344  25.083  1.00  0.00    -0.394 N 
ATOM      5  H22 UNL     1       6.773  20.184  25.659  1.00  0.00     0.156 HD
ATOM      6  H21 UNL     1       6.519  19.340  24.081  1.00  0.00     0.156 HD
ENDBRANCH   3   4
BRANCH   3   7
HETATM    7  C3  UNL     1       5.754  17.471  26.303  1.00  0.00     0.108 C 
BRANCH   7   8
HETATM    8  C4  UNL     1       4.602  17.081  25.449  1.00  0.00     0.197 C 
HETATM    9  C5  UNL     1       4.438  15.661  25.211  1.00  0.00     0.085 C 
HETATM   10  N3  UNL     1       4.281  14.534  25.022  1.00  0.00    -0.195 NA
BRANCH   8  11
HETATM   11  N4  UNL     1       3.344  17.635  25.903  1.00  0.00    -0.356 N 
ATOM     12  H4  UNL     1       3.340  18.165  26.775  1.00  0.00     0.162 HD
BRANCH  11  13
HETATM   13  C6  UNL     1       2.237  17.500  25.275  1.00  0.00     0.149 C 
BRANCH  13  14
HETATM   14  N5  UNL     1       1.542  16.281  25.336  1.00  0.00    -0.290 N 
ATOM     15  H5  UNL     1       2.076  15.424  25.479  1.00  0.00     0.188 HD
BRANCH  14  16
HETATM   16  N6  UNL     1       0.132  16.186  25.209  1.00  0.00    -0.344 N 
ATOM     17  H62 UNL     1      -0.239  15.869  24.313  1.00  0.00     0.176 HD
ATOM     18  H61 UNL     1      -0.513  16.419  25.965  1.00  0.00     0.176 HD
ENDBRANCH  14  16
ENDBRANCH  13  14
BRANCH  13  19
HETATM   19  C7  UNL     1       1.714  18.612  24.510  1.00  0.00     0.138 A 
HETATM   20  N7  UNL     1       0.991  19.606  25.088  1.00  0.00    -0.291 N 
HETATM   21  N8  UNL     1       0.510  20.620  24.397  1.00  0.00    -0.273 N 
ATOM     22  H7  UNL     1       0.814  19.567  26.092  1.00  0.00     0.187 HD
HETATM   23  C8  UNL     1       0.694  20.753  23.073  1.00  0.00     0.208 A 
ATOM     24  H8  UNL     1      -0.025  21.334  24.890  1.00  0.00     0.189 HD
HETATM   25  N9  UNL     1       0.161  21.862  22.345  1.00  0.00    -0.062 NA
HETATM   26  N10 UNL     1       1.405  19.789  22.466  1.00  0.00    -0.313 N 
HETATM   27  C9  UNL     1       1.911  18.739  23.138  1.00  0.00     0.149 A 
ATOM     28  H10 UNL     1       1.567  19.855  21.461  1.00  0.00     0.170 HD
BRANCH  27  29
HETATM   29  N11 UNL     1       2.591  17.811  22.588  1.00  0.00    -0.264 N 
ATOM     30  H11 UNL     1       3.596  17.810  22.764  1.00  0.00     0.180 HD
BRANCH  29  31
HETATM   31  S1  UNL     1       1.979  16.563  21.580  1.00  0.00     0.264 S 
HETATM   32  O1  UNL     1       1.221  17.149  20.395  1.00  0.00    -0.200 OA
HETATM   33  O2  UNL     1       0.945  15.797  22.366  1.00  0.00    -0.200 OA
BRANCH  31  34
HETATM   34  C10 UNL     1       3.214  15.491  20.977  1.00  0.00     0.080 A 
HETATM   35  C11 UNL     1       3.271  14.205  21.463  1.00  0.00     0.027 A 
HETATM   36  C12 UNL     1       4.252  13.361  20.989  1.00  0.00     0.028 A 
HETATM   37  C13 UNL     1       5.180  13.749  20.049  1.00  0.00     0.046 A 
HETATM   38  N12 UNL     1       6.192  12.873  19.562  1.00  0.00    -0.102 NA
HETATM   39  C14 UNL     1       5.115  15.037  19.570  1.00  0.00     0.028 A 
HETATM   40  C15 UNL     1       4.128  15.907  20.037  1.00  0.00     0.027 A 
ENDBRANCH  31  34
ENDBRANCH  29  31
ENDBRANCH  27  29
ENDBRANCH  13  19
ENDBRANCH  11  13
ENDBRANCH   8  11
ENDBRANCH   7   8
ENDBRANCH   3   7
TORSDOF 11
ENDMDL
MODEL 4
REMARK VINA RESULT: -9.217465019      0.986      1.537
REMARK  11 active torsions:
REMARK  status: ('A' for Active; 'I' for Inactive)
REMARK    1  A    between atoms: C2_3  and  N2_4 
REMARK    2  A    between atoms: C2_3  and  C3_7 
REMARK    3  A    between atoms: C3_7  and  C4_8 
REMARK    4  A    between atoms: C4_8  and  N4_11 
REMARK    5  A    between atoms: N4_11  and  C6_13 
REMARK    6  A    between atoms: C6_13  and  N5_14 
REMARK    7  A    between atoms: C6_13  and  C7_19 
REMARK    8  A    between atoms: N5_14  and  N6_16 
REMARK    9  A    between atoms: C9_28  and  N11_29 
REMARK   10  A    between atoms: N11_29  and  S1_31 
REMARK   11  A    between atoms: S1_31  and  C10_34 
ROOT
HETATM    1  N1  UNL     1       4.451  13.437  17.681  1.00  0.00    -0.190 NA
HETATM    2  C1  UNL     1       4.575  14.118  18.629  1.00  0.00     0.112 C 
HETATM    3  C2  UNL     1       4.747  14.968  19.766  1.00  0.00     0.087 C 
ENDROOT
BRANCH   3   4
HETATM    4  N2  UNL     1       5.043  16.216  19.469  1.00  0.00    -0.394 N 
ATOM      5  H22 UNL     1       5.996  16.489  19.229  1.00  0.00     0.156 HD
ATOM      6  H21 UNL     1       4.248  16.854  19.504  1.00  0.00     0.156 HD
ENDBRANCH   3   4
BRANCH   3   7
HETATM    7  C3  UNL     1       4.613  14.531  21.164  1.00  0.00     0.108 C 
BRANCH   7   8
HETATM    8  C4  UNL     1       3.884  15.464  22.062  1.00  0.00     0.197 C 
HETATM    9  C5  UNL     1       2.584  15.908  21.600  1.00  0.00     0.085 C 
HETATM   10  N3  UNL     1       1.541  16.260  21.257  1.00  0.00    -0.195 NA
BRANCH   8  11
HETATM   11  N4  UNL     1       3.764  14.972  23.418  1.00  0.00    -0.356 N 
ATOM     12  H4  UNL     1       3.814  13.965  23.569  1.00  0.00     0.162 HD
BRANCH  11  13
HETATM   13  C6  UNL     1       3.599  15.727  24.439  1.00  0.00     0.149 C 
BRANCH  13  14
HETATM   14  N5  UNL     1       2.353  15.766  25.085  1.00  0.00    -0.290 N 
ATOM     15  H5  UNL     1       2.324  15.616  26.094  1.00  0.00     0.188 HD
BRANCH  14  16
HETATM   16  N6  UNL     1       1.132  16.003  24.402  1.00  0.00    -0.344 N 
ATOM     17  H62 UNL     1       0.996  15.534  23.506  1.00  0.00     0.176 HD
ATOM     18  H61 UNL     1       0.399  16.613  24.764  1.00  0.00     0.176 HD
ENDBRANCH  14  16
ENDBRANCH  13  14
BRANCH  13  19
HETATM   19  C7  UNL     1       4.705  16.529  24.916  1.00  0.00     0.138 A 
HETATM   20  N7  UNL     1       5.805  15.973  25.485  1.00  0.00    -0.291 N 
HETATM   21  N8  UNL     1       6.814  16.698  25.923  1.00  0.00    -0.273 N 
ATOM     22  H7  UNL     1       5.852  14.958  25.577  1.00  0.00     0.187 HD
HETATM   23  C8  UNL     1       6.837  18.039  25.844  1.00  0.00     0.208 A 
ATOM     24  H8  UNL     1       7.611  16.220  26.341  1.00  0.00     0.189 HD
HETATM   25  N9  UNL     1       7.945  18.804  26.328  1.00  0.00    -0.062 NA
HETATM   26  N10 UNL     1       5.766  18.626  25.286  1.00  0.00    -0.313 N 
HETATM   27  C9  UNL     1       4.717  17.919  24.828  1.00  0.00     0.149 A 
ATOM     28  H10 UNL     1       5.747  19.643  25.207  1.00  0.00     0.170 HD
BRANCH  27  29
HETATM   29  N11 UNL     1       3.689  18.449  24.292  1.00  0.00    -0.264 N 
ATOM     30  H11 UNL     1       3.566  18.306  23.290  1.00  0.00     0.180 HD
BRANCH  29  31
HETATM   31  S1  UNL     1       2.491  19.381  25.095  1.00  0.00     0.264 S 
HETATM   32  O1  UNL     1       3.135  20.417  26.008  1.00  0.00    -0.200 OA
HETATM   33  O2  UNL     1       1.732  18.463  26.019  1.00  0.00    -0.200 OA
BRANCH  31  34
HETATM   34  C10 UNL     1       1.403  20.197  24.006  1.00  0.00     0.080 A 
HETATM   35  C11 UNL     1       1.171  19.649  22.766  1.00  0.00     0.027 A 
HETATM   36  C12 UNL     1       0.314  20.300  21.904  1.00  0.00     0.028 A 
HETATM   37  C13 UNL     1      -0.320  21.477  22.230  1.00  0.00     0.046 A 
HETATM   38  N12 UNL     1      -1.205  22.145  21.336  1.00  0.00    -0.102 NA
HETATM   39  C14 UNL     1      -0.082  22.017  23.472  1.00  0.00     0.028 A 
HETATM   40  C15 UNL     1       0.782  21.373  24.360  1.00  0.00     0.027 A 
ENDBRANCH  31  34
ENDBRANCH  29  31
ENDBRANCH  27  29
ENDBRANCH  13  19
ENDBRANCH  11  13
ENDBRANCH   8  11
ENDBRANCH   7   8
ENDBRANCH   3   7
TORSDOF 11
ENDMDL
MODEL 5
REMARK VINA RESULT: -9.207697339      1.791      5.415
REMARK  11 active torsions:
REMARK  status: ('A' for Active; 'I' for Inactive)
REMARK    1  A    between atoms: C2_3  and  N2_4 
REMARK    2  A    between atoms: C2_3  and  C3_7 
REMARK    3  A    between atoms: C3_7  and  C4_8 
REMARK    4  A    between atoms: C4_8  and  N4_11 
REMARK    5  A    between atoms: N4_11  and  C6_13 
REMARK    6  A    between atoms: C6_13  and  N5_14 
REMARK    7  A    between atoms: C6_13  and  C7_19 
REMARK    8  A    between atoms: N5_14  and  N6_16 
REMARK    9  A    between atoms: C9_28  and  N11_29 
REMARK   10  A    between atoms: N11_29  and  S1_31 
REMARK   11  A    between atoms: S1_31  and  C10_34 
ROOT
HETATM    1  N1  UNL     1       5.279  12.562  18.577  1.00  0.00    -0.190 NA
HETATM    2  C1  UNL     1       4.959  13.691  18.576  1.00  0.00     0.112 C 
HETATM    3  C2  UNL     1       4.580  15.069  18.543  1.00  0.00     0.087 C 
ENDROOT
BRANCH   3   4
HETATM    4  N2  UNL     1       4.260  15.514  17.345  1.00  0.00    -0.394 N 
ATOM      5  H22 UNL     1       4.771  16.285  16.915  1.00  0.00     0.156 HD
ATOM      6  H21 UNL     1       3.477  15.024  16.913  1.00  0.00     0.156 HD
ENDBRANCH   3   4
BRANCH   3   7
HETATM    7  C3  UNL     1       4.536  15.953  19.718  1.00  0.00     0.108 C 
BRANCH   7   8
HETATM    8  C4  UNL     1       3.533  15.593  20.755  1.00  0.00     0.197 C 
HETATM    9  C5  UNL     1       3.957  14.617  21.739  1.00  0.00     0.085 C 
HETATM   10  N3  UNL     1       4.280  13.853  22.540  1.00  0.00    -0.195 NA
BRANCH   8  11
HETATM   11  N4  UNL     1       2.981  16.745  21.435  1.00  0.00    -0.356 N 
ATOM     12  H4  UNL     1       3.629  17.404  21.867  1.00  0.00     0.162 HD
BRANCH  11  13
HETATM   13  C6  UNL     1       1.726  16.985  21.528  1.00  0.00     0.149 C 
BRANCH  13  14
HETATM   14  N5  UNL     1       0.798  15.956  21.301  1.00  0.00    -0.290 N 
ATOM     15  H5  UNL     1       0.401  15.857  20.366  1.00  0.00     0.188 HD
BRANCH  14  16
HETATM   16  N6  UNL     1       0.387  15.046  22.309  1.00  0.00    -0.344 N 
ATOM     17  H62 UNL     1      -0.560  14.673  22.248  1.00  0.00     0.176 HD
ATOM     18  H61 UNL     1       0.991  14.757  23.079  1.00  0.00     0.176 HD
ENDBRANCH  14  16
ENDBRANCH  13  14
BRANCH  13  19
HETATM   19  C7  UNL     1       1.282  18.319  21.872  1.00  0.00     0.138 A 
HETATM   20  N7  UNL     1       0.849  19.198  20.932  1.00  0.00    -0.291 N 
HETATM   21  N8  UNL     1       0.446  20.414  21.238  1.00  0.00    -0.273 N 
ATOM     22  H7  UNL     1       0.835  18.906  19.955  1.00  0.00     0.187 HD
HETATM   23  C8  UNL     1       0.431  20.883  22.497  1.00  0.00     0.208 A 
ATOM     24  H8  UNL     1       0.132  21.027  20.486  1.00  0.00     0.189 HD
HETATM   25  N9  UNL     1      -0.011  22.208  22.804  1.00  0.00    -0.062 NA
HETATM   26  N10 UNL     1       0.852  20.042  23.455  1.00  0.00    -0.313 N 
HETATM   27  C9  UNL     1       1.272  18.793  23.181  1.00  0.00     0.149 A 
ATOM     28  H10 UNL     1       0.855  20.360  24.424  1.00  0.00     0.170 HD
BRANCH  27  29
HETATM   29  N11 UNL     1       1.675  17.972  24.071  1.00  0.00    -0.264 N 
ATOM     30  H11 UNL     1       1.516  16.981  23.890  1.00  0.00     0.180 HD
BRANCH  29  31
HETATM   31  S1  UNL     1       2.460  18.375  25.543  1.00  0.00     0.264 S 
HETATM   32  O1  UNL     1       1.934  17.518  26.688  1.00  0.00    -0.200 OA
HETATM   33  O2  UNL     1       2.076  19.788  25.903  1.00  0.00    -0.200 OA
BRANCH  31  34
HETATM   34  C10 UNL     1       4.193  18.207  25.472  1.00  0.00     0.080 A 
HETATM   35  C11 UNL     1       4.957  19.319  25.202  1.00  0.00     0.027 A 
HETATM   36  C12 UNL     1       6.327  19.182  25.140  1.00  0.00     0.028 A 
HETATM   37  C13 UNL     1       6.966  17.980  25.337  1.00  0.00     0.046 A 
HETATM   38  N12 UNL     1       8.383  17.844  25.273  1.00  0.00    -0.102 NA
HETATM   39  C14 UNL     1       6.195  16.874  25.606  1.00  0.00     0.028 A 
HETATM   40  C15 UNL     1       4.805  16.991  25.673  1.00  0.00     0.027 A 
ENDBRANCH  31  34
ENDBRANCH  29  31
ENDBRANCH  27  29
ENDBRANCH  13  19
ENDBRANCH  11  13
ENDBRANCH   8  11
ENDBRANCH   7   8
ENDBRANCH   3   7
TORSDOF 11
ENDMDL
