MODEL 1
REMARK VINA RESULT: -9.753499596      0.000      0.000
REMARK  11 active torsions:
REMARK  status: ('A' for Active; 'I' for Inactive)
REMARK    1  A    between atoms: S1_2  and  C2_3 
REMARK    2  A    between atoms: S1_2  and  C6_12 
REMARK    3  A    between atoms: C2_3  and  C3_4 
REMARK    4  A    between atoms: C3_4  and  C4_6 
REMARK    5  A    between atoms: C4_6  and  C5_8 
REMARK    6  A    between atoms: C5_8  and  N1_9 
REMARK    7  A    between atoms: C7_15  and  C8_16 
REMARK    8  A    between atoms: C9_19  and  C10_20 
REMARK    9  A    between atoms: C10_20  and  N4_21 
REMARK   10  A    between atoms: C10_20  and  N5_25 
REMARK   11  A    between atoms: C13_36  and  N8_37 
ROOT
HETATM    1  C6  UNL     1       3.071  18.783  23.362  1.00  0.00     0.081 A 
HETATM    2  N2  UNL     1       3.519  17.933  22.409  1.00  0.00    -0.334 N 
ATOM      3  H2  UNL     1       4.310  17.328  22.629  1.00  0.00     0.168 HD
HETATM    4  C7  UNL     1       2.975  17.849  21.202  1.00  0.00     0.142 A 
HETATM    5  N6  UNL     1       1.934  18.627  20.882  1.00  0.00    -0.325 N 
ATOM      6  H6  UNL     1       1.526  18.551  19.951  1.00  0.00     0.169 HD
HETATM    7  C12 UNL     1       1.405  19.517  21.765  1.00  0.00     0.141 A 
HETATM    8  N7  UNL     1       0.361  20.295  21.439  1.00  0.00    -0.176 N 
ATOM      9  H7  UNL     1      -0.047  20.218  20.508  1.00  0.00     0.186 HD
HETATM   10  C13 UNL     1      -0.158  21.172  22.312  1.00  0.00     0.680 A 
HETATM   11  N9  UNL     1       0.407  21.242  23.530  1.00  0.00    -0.155 N 
ATOM     12  H9  UNL     1       0.020  21.904  24.203  1.00  0.00     0.187 HD
HETATM   13  C14 UNL     1       1.453  20.488  23.910  1.00  0.00     0.276 A 
HETATM   14  O3  UNL     1       1.962  20.576  25.057  1.00  0.00    -0.267 OA
HETATM   15  C15 UNL     1       1.999  19.574  23.007  1.00  0.00     0.110 A 
ENDROOT
BRANCH   4  16
HETATM   16  C8  UNL     1       3.526  16.890  20.215  1.00  0.00     0.119 A 
HETATM   17  N3  UNL     1       3.640  15.580  20.311  1.00  0.00    -0.347 N 
HETATM   18  C9  UNL     1       4.151  14.899  19.339  1.00  0.00     0.074 A 
ATOM     19  H3  UNL     1       3.325  15.103  21.156  1.00  0.00     0.166 HD
HETATM   20  C11 UNL     1       4.560  15.591  18.224  1.00  0.00     0.081 A 
HETATM   21  S2  UNL     1       4.173  17.202  18.665  1.00  0.00    -0.078 SA
BRANCH  18  22
HETATM   22  C10 UNL     1       4.318  13.388  19.373  1.00  0.00     0.427 C 
BRANCH  22  23
HETATM   23  N4  UNL     1       3.573  12.778  18.286  1.00  0.00    -0.045 N 
ATOM     24  H43 UNL     1       3.491  13.402  17.484  1.00  0.00     0.277 HD
ATOM     25  H42 UNL     1       4.097  12.026  17.838  1.00  0.00     0.277 HD
ATOM     26  H41 UNL     1       2.662  12.463  18.619  1.00  0.00     0.277 HD
ENDBRANCH  22  23
BRANCH  22  27
HETATM   27  N5  UNL     1       5.723  13.047  19.258  1.00  0.00    -0.045 N 
ATOM     28  H53 UNL     1       5.947  12.641  18.350  1.00  0.00     0.277 HD
ATOM     29  H52 UNL     1       6.315  13.876  19.198  1.00  0.00     0.277 HD
ATOM     30  H51 UNL     1       5.994  12.437  20.030  1.00  0.00     0.277 HD
ENDBRANCH  22  27
ENDBRANCH  18  22
ENDBRANCH   4  16
BRANCH   1  31
HETATM   31  S1  UNL     1       3.737  18.936  24.947  1.00  0.00    -0.165 SA
HETATM   32  C1  UNL     1       5.400  19.489  24.984  1.00  0.00     0.086 C 
BRANCH  31  33
HETATM   33  C2  UNL     1       3.396  17.585  26.005  1.00  0.00     0.157 C 
BRANCH  33  34
HETATM   34  C3  UNL     1       4.264  16.417  25.807  1.00  0.00     0.209 C 
HETATM   35  O1  UNL     1       5.389  16.390  26.361  1.00  0.00    -0.288 OA
BRANCH  34  36
HETATM   36  C4  UNL     1       3.847  15.289  24.983  1.00  0.00     0.232 C 
HETATM   37  O2  UNL     1       4.455  14.193  25.113  1.00  0.00    -0.283 OA
BRANCH  36  38
HETATM   38  C5  UNL     1       2.760  15.383  24.019  1.00  0.00     0.139 C 
BRANCH  38  39
HETATM   39  N1  UNL     1       1.586  15.707  24.487  1.00  0.00    -0.405 N 
ATOM     40  H12 UNL     1       1.056  15.052  25.063  1.00  0.00     0.155 HD
ATOM     41  H11 UNL     1       1.236  16.634  24.248  1.00  0.00     0.155 HD
ENDBRANCH  38  39
ENDBRANCH  36  38
ENDBRANCH  34  36
ENDBRANCH  33  34
ENDBRANCH  31  33
ENDBRANCH   1  31
BRANCH  10  42
HETATM   42  N8  UNL     1      -1.174  21.931  22.003  1.00  0.00    -0.234 N 
ATOM     43  H82 UNL     1      -1.772  21.705  21.207  1.00  0.00     0.174 HD
ATOM     44  H81 UNL     1      -1.402  22.769  22.538  1.00  0.00     0.174 HD
ENDBRANCH  10  42
TORSDOF 11
ENDMDL
MODEL 2
REMARK VINA RESULT: -9.235166616      1.776      2.168
REMARK  11 active torsions:
REMARK  status: ('A' for Active; 'I' for Inactive)
REMARK    1  A    between atoms: S1_2  and  C2_3 
REMARK    2  A    between atoms: S1_2  and  C6_12 
REMARK    3  A    between atoms: C2_3  and  C3_4 
REMARK    4  A    between atoms: C3_4  and  C4_6 
REMARK    5  A    between atoms: C4_6  and  C5_8 
REMARK    6  A    between atoms: C5_8  and  N1_9 
REMARK    7  A    between atoms: C7_15  and  C8_16 
REMARK    8  A    between atoms: C9_19  and  C10_20 
REMARK    9  A    between atoms: C10_20  and  N4_21 
REMARK   10  A    between atoms: C10_20  and  N5_25 
REMARK   11  A    between atoms: C13_36  and  N8_37 
ROOT
HETATM    1  C6  UNL     1       2.033  18.902  23.811  1.00  0.00     0.081 A 
HETATM    2  N2  UNL     1       2.670  18.019  23.008  1.00  0.00    -0.334 N 
ATOM      3  H2  UNL     1       3.309  17.348  23.433  1.00  0.00     0.168 HD
HETATM    4  C7  UNL     1       2.500  17.986  21.692  1.00  0.00     0.142 A 
HETATM    5  N6  UNL     1       1.667  18.851  21.104  1.00  0.00    -0.325 N 
ATOM      6  H6  UNL     1       1.546  18.813  20.092  1.00  0.00     0.169 HD
HETATM    7  C12 UNL     1       0.976  19.781  21.818  1.00  0.00     0.141 A 
HETATM    8  N7  UNL     1       0.141  20.648  21.222  1.00  0.00    -0.176 N 
ATOM      9  H7  UNL     1       0.021  20.609  20.210  1.00  0.00     0.186 HD
HETATM   10  C13 UNL     1      -0.538  21.564  21.928  1.00  0.00     0.680 A 
HETATM   11  N9  UNL     1      -0.353  21.581  23.260  1.00  0.00    -0.155 N 
ATOM     12  H9  UNL     1      -0.865  22.272  23.808  1.00  0.00     0.187 HD
HETATM   13  C14 UNL     1       0.470  20.739  23.909  1.00  0.00     0.276 A 
HETATM   14  O3  UNL     1       0.624  20.780  25.157  1.00  0.00    -0.267 OA
HETATM   15  C15 UNL     1       1.181  19.783  23.180  1.00  0.00     0.110 A 
ENDROOT
BRANCH   4  16
HETATM   16  C8  UNL     1       3.237  16.985  20.884  1.00  0.00     0.119 A 
HETATM   17  N3  UNL     1       3.596  17.050  19.617  1.00  0.00    -0.347 N 
HETATM   18  C9  UNL     1       4.242  16.071  19.074  1.00  0.00     0.074 A 
ATOM     19  H3  UNL     1       3.364  17.875  19.064  1.00  0.00     0.166 HD
HETATM   20  C11 UNL     1       4.531  14.983  19.863  1.00  0.00     0.081 A 
HETATM   21  S2  UNL     1       3.838  15.458  21.358  1.00  0.00    -0.078 SA
BRANCH  18  22
HETATM   22  C10 UNL     1       4.690  16.069  17.620  1.00  0.00     0.427 C 
BRANCH  22  23
HETATM   23  N4  UNL     1       3.719  15.367  16.800  1.00  0.00    -0.045 N 
ATOM     24  H43 UNL     1       4.120  14.539  16.360  1.00  0.00     0.277 HD
ATOM     25  H42 UNL     1       3.005  14.906  17.364  1.00  0.00     0.277 HD
ATOM     26  H41 UNL     1       3.312  16.004  16.116  1.00  0.00     0.277 HD
ENDBRANCH  22  23
BRANCH  22  27
HETATM   27  N5  UNL     1       4.836  17.434  17.151  1.00  0.00    -0.045 N 
ATOM     28  H53 UNL     1       4.052  18.022  17.433  1.00  0.00     0.277 HD
ATOM     29  H52 UNL     1       5.578  17.932  17.642  1.00  0.00     0.277 HD
ATOM     30  H51 UNL     1       4.975  17.437  16.140  1.00  0.00     0.277 HD
ENDBRANCH  22  27
ENDBRANCH  18  22
ENDBRANCH   4  16
BRANCH   1  31
HETATM   31  S1  UNL     1       2.213  18.993  25.526  1.00  0.00    -0.165 SA
HETATM   32  C1  UNL     1       3.374  20.189  26.070  1.00  0.00     0.086 C 
BRANCH  31  33
HETATM   33  C2  UNL     1       2.342  17.440  26.320  1.00  0.00     0.157 C 
BRANCH  33  34
HETATM   34  C3  UNL     1       2.874  16.362  25.475  1.00  0.00     0.209 C 
HETATM   35  O1  UNL     1       2.093  15.737  24.719  1.00  0.00    -0.288 OA
BRANCH  34  36
HETATM   36  C4  UNL     1       4.287  16.004  25.496  1.00  0.00     0.232 C 
HETATM   37  O2  UNL     1       4.597  14.783  25.508  1.00  0.00    -0.283 OA
BRANCH  36  38
HETATM   38  C5  UNL     1       5.347  17.002  25.503  1.00  0.00     0.139 C 
BRANCH  38  39
HETATM   39  N1  UNL     1       6.574  16.557  25.535  1.00  0.00    -0.405 N 
ATOM     40  H12 UNL     1       6.966  16.173  26.395  1.00  0.00     0.155 HD
ATOM     41  H11 UNL     1       7.106  16.614  24.667  1.00  0.00     0.155 HD
ENDBRANCH  38  39
ENDBRANCH  36  38
ENDBRANCH  34  36
ENDBRANCH  33  34
ENDBRANCH  31  33
ENDBRANCH   1  31
BRANCH  10  42
HETATM   42  N8  UNL     1      -1.353  22.408  21.356  1.00  0.00    -0.234 N 
ATOM     43  H82 UNL     1      -1.610  22.302  20.374  1.00  0.00     0.174 HD
ATOM     44  H81 UNL     1      -1.754  23.196  21.864  1.00  0.00     0.174 HD
ENDBRANCH  10  42
TORSDOF 11
ENDMDL
MODEL 3
REMARK VINA RESULT: -9.168489803      1.146      1.466
REMARK  11 active torsions:
REMARK  status: ('A' for Active; 'I' for Inactive)
REMARK    1  A    between atoms: S1_2  and  C2_3 
REMARK    2  A    between atoms: S1_2  and  C6_12 
REMARK    3  A    between atoms: C2_3  and  C3_4 
REMARK    4  A    between atoms: C3_4  and  C4_6 
REMARK    5  A    between atoms: C4_6  and  C5_8 
REMARK    6  A    between atoms: C5_8  and  N1_9 
REMARK    7  A    between atoms: C7_15  and  C8_16 
REMARK    8  A    between atoms: C9_19  and  C10_20 
REMARK    9  A    between atoms: C10_20  and  N4_21 
REMARK   10  A    between atoms: C10_20  and  N5_25 
REMARK   11  A    between atoms: C13_36  and  N8_37 
ROOT
HETATM    1  C6  UNL     1       2.351  18.795  23.543  1.00  0.00     0.081 A 
HETATM    2  N2  UNL     1       2.920  17.961  22.641  1.00  0.00    -0.334 N 
ATOM      3  H2  UNL     1       3.611  17.287  22.970  1.00  0.00     0.168 HD
HETATM    4  C7  UNL     1       2.619  17.979  21.349  1.00  0.00     0.142 A 
HETATM    5  N6  UNL     1       1.715  18.849  20.886  1.00  0.00    -0.325 N 
ATOM      6  H6  UNL     1       1.493  18.851  19.890  1.00  0.00     0.169 HD
HETATM    7  C12 UNL     1       1.083  19.733  21.705  1.00  0.00     0.141 A 
HETATM    8  N7  UNL     1       0.177  20.604  21.235  1.00  0.00    -0.176 N 
ATOM      9  H7  UNL     1      -0.045  20.605  20.240  1.00  0.00     0.186 HD
HETATM   10  C13 UNL     1      -0.445  21.474  22.046  1.00  0.00     0.680 A 
HETATM   11  N9  UNL     1      -0.126  21.440  23.351  1.00  0.00    -0.155 N 
ATOM     12  H9  UNL     1      -0.592  22.096  23.978  1.00  0.00     0.187 HD
HETATM   13  C14 UNL     1       0.773  20.590  23.877  1.00  0.00     0.276 A 
HETATM   14  O3  UNL     1       1.052  20.582  25.104  1.00  0.00    -0.267 OA
HETATM   15  C15 UNL     1       1.424  19.682  23.039  1.00  0.00     0.110 A 
ENDROOT
BRANCH   4  16
HETATM   16  C8  UNL     1       3.288  17.030  20.428  1.00  0.00     0.119 A 
HETATM   17  N3  UNL     1       3.427  15.724  20.545  1.00  0.00    -0.347 N 
HETATM   18  C9  UNL     1       4.048  15.052  19.632  1.00  0.00     0.074 A 
ATOM     19  H3  UNL     1       3.043  15.243  21.358  1.00  0.00     0.166 HD
HETATM   20  C11 UNL     1       4.545  15.749  18.556  1.00  0.00     0.081 A 
HETATM   21  S2  UNL     1       4.074  17.351  18.946  1.00  0.00    -0.078 SA
BRANCH  18  22
HETATM   22  C10 UNL     1       4.250  13.546  19.694  1.00  0.00     0.427 C 
BRANCH  22  23
HETATM   23  N4  UNL     1       3.638  12.912  18.539  1.00  0.00    -0.045 N 
ATOM     24  H43 UNL     1       2.645  12.730  18.686  1.00  0.00     0.277 HD
ATOM     25  H42 UNL     1       3.557  13.553  17.749  1.00  0.00     0.277 HD
ATOM     26  H41 UNL     1       4.149  12.065  18.293  1.00  0.00     0.277 HD
ENDBRANCH  22  23
BRANCH  22  27
HETATM   27  N5  UNL     1       5.668  13.243  19.727  1.00  0.00    -0.045 N 
ATOM     28  H53 UNL     1       6.056  13.329  20.666  1.00  0.00     0.277 HD
ATOM     29  H52 UNL     1       5.852  12.250  19.582  1.00  0.00     0.277 HD
ATOM     30  H51 UNL     1       6.161  13.828  19.052  1.00  0.00     0.277 HD
ENDBRANCH  22  27
ENDBRANCH  18  22
ENDBRANCH   4  16
BRANCH   1  31
HETATM   31  S1  UNL     1       2.702  18.818  25.233  1.00  0.00    -0.165 SA
HETATM   32  C1  UNL     1       4.202  19.624  25.650  1.00  0.00     0.086 C 
BRANCH  31  33
HETATM   33  C2  UNL     1       2.449  17.288  26.042  1.00  0.00     0.157 C 
BRANCH  33  34
HETATM   34  C3  UNL     1       2.895  16.112  25.282  1.00  0.00     0.209 C 
HETATM   35  O1  UNL     1       2.108  15.578  24.465  1.00  0.00    -0.288 OA
BRANCH  34  36
HETATM   36  C4  UNL     1       4.230  15.552  25.457  1.00  0.00     0.232 C 
HETATM   37  O2  UNL     1       4.427  14.354  25.123  1.00  0.00    -0.283 OA
BRANCH  36  38
HETATM   38  C5  UNL     1       5.337  16.325  26.000  1.00  0.00     0.139 C 
BRANCH  38  39
HETATM   39  N1  UNL     1       6.340  16.559  25.199  1.00  0.00    -0.405 N 
ATOM     40  H12 UNL     1       7.120  15.904  25.135  1.00  0.00     0.155 HD
ATOM     41  H11 UNL     1       6.300  17.418  24.652  1.00  0.00     0.155 HD
ENDBRANCH  38  39
ENDBRANCH  36  38
ENDBRANCH  34  36
ENDBRANCH  33  34
ENDBRANCH  31  33
ENDBRANCH   1  31
BRANCH  10  42
HETATM   42  N8  UNL     1      -1.328  22.324  21.596  1.00  0.00    -0.234 N 
ATOM     43  H82 UNL     1      -1.771  22.185  20.687  1.00  0.00     0.174 HD
ATOM     44  H81 UNL     1      -1.601  23.148  22.130  1.00  0.00     0.174 HD
ENDBRANCH  10  42
TORSDOF 11
ENDMDL
MODEL 4
REMARK VINA RESULT: -8.868216797      3.912      7.567
REMARK  11 active torsions:
REMARK  status: ('A' for Active; 'I' for Inactive)
REMARK    1  A    between atoms: S1_2  and  C2_3 
REMARK    2  A    between atoms: S1_2  and  C6_12 
REMARK    3  A    between atoms: C2_3  and  C3_4 
REMARK    4  A    between atoms: C3_4  and  C4_6 
REMARK    5  A    between atoms: C4_6  and  C5_8 
REMARK    6  A    between atoms: C5_8  and  N1_9 
REMARK    7  A    between atoms: C7_15  and  C8_16 
REMARK    8  A    between atoms: C9_19  and  C10_20 
REMARK    9  A    between atoms: C10_20  and  N4_21 
REMARK   10  A    between atoms: C10_20  and  N5_25 
REMARK   11  A    between atoms: C13_36  and  N8_37 
ROOT
HETATM    1  C6  UNL     1       1.823  19.950  25.310  1.00  0.00     0.081 A 
HETATM    2  N2  UNL     1       2.089  20.750  26.369  1.00  0.00    -0.334 N 
ATOM      3  H2  UNL     1       2.628  20.366  27.145  1.00  0.00     0.168 HD
HETATM    4  C7  UNL     1       1.680  22.010  26.443  1.00  0.00     0.142 A 
HETATM    5  N6  UNL     1       0.972  22.543  25.442  1.00  0.00    -0.325 N 
ATOM      6  H6  UNL     1       0.665  23.514  25.513  1.00  0.00     0.169 HD
HETATM    7  C12 UNL     1       0.649  21.828  24.331  1.00  0.00     0.141 A 
HETATM    8  N7  UNL     1      -0.062  22.368  23.328  1.00  0.00    -0.176 N 
ATOM      9  H7  UNL     1      -0.368  23.339  23.400  1.00  0.00     0.186 HD
HETATM   10  C13 UNL     1      -0.379  21.660  22.233  1.00  0.00     0.680 A 
HETATM   11  N9  UNL     1       0.043  20.385  22.177  1.00  0.00    -0.155 N 
ATOM     12  H9  UNL     1      -0.190  19.837  21.349  1.00  0.00     0.187 HD
HETATM   13  C14 UNL     1       0.757  19.793  23.150  1.00  0.00     0.276 A 
HETATM   14  O3  UNL     1       1.139  18.597  23.069  1.00  0.00    -0.267 OA
HETATM   15  C15 UNL     1       1.091  20.524  24.292  1.00  0.00     0.110 A 
ENDROOT
BRANCH   4  16
HETATM   16  C8  UNL     1       2.014  22.818  27.640  1.00  0.00     0.119 A 
HETATM   17  N3  UNL     1       3.112  22.798  28.370  1.00  0.00    -0.347 N 
HETATM   18  C9  UNL     1       3.230  23.584  29.389  1.00  0.00     0.074 A 
ATOM     19  H3  UNL     1       3.871  22.161  28.129  1.00  0.00     0.166 HD
HETATM   20  C11 UNL     1       2.178  24.424  29.670  1.00  0.00     0.081 A 
HETATM   21  S2  UNL     1       1.076  24.012  28.422  1.00  0.00    -0.078 SA
BRANCH  18  22
HETATM   22  C10 UNL     1       4.462  23.620  30.280  1.00  0.00     0.427 C 
BRANCH  22  23
HETATM   23  N4  UNL     1       4.117  23.195  31.625  1.00  0.00    -0.045 N 
ATOM     24  H43 UNL     1       3.226  23.584  31.932  1.00  0.00     0.277 HD
ATOM     25  H42 UNL     1       3.869  22.206  31.662  1.00  0.00     0.277 HD
ATOM     26  H41 UNL     1       4.875  23.423  32.270  1.00  0.00     0.277 HD
ENDBRANCH  22  23
BRANCH  22  27
HETATM   27  N5  UNL     1       5.485  22.749  29.736  1.00  0.00    -0.045 N 
ATOM     28  H53 UNL     1       6.266  23.273  29.341  1.00  0.00     0.277 HD
ATOM     29  H52 UNL     1       5.996  22.253  30.467  1.00  0.00     0.277 HD
ATOM     30  H51 UNL     1       5.069  22.111  29.058  1.00  0.00     0.277 HD
ENDBRANCH  22  27
ENDBRANCH  18  22
ENDBRANCH   4  16
BRANCH   1  31
HETATM   31  S1  UNL     1       2.326  18.306  25.156  1.00  0.00    -0.165 SA
HETATM   32  C1  UNL     1       1.553  17.204  26.278  1.00  0.00     0.086 C 
BRANCH  31  33
HETATM   33  C2  UNL     1       4.056  18.094  25.005  1.00  0.00     0.157 C 
BRANCH  33  34
HETATM   34  C3  UNL     1       4.552  16.778  25.428  1.00  0.00     0.209 C 
HETATM   35  O1  UNL     1       5.265  16.695  26.456  1.00  0.00    -0.288 OA
BRANCH  34  36
HETATM   36  C4  UNL     1       4.235  15.567  24.680  1.00  0.00     0.232 C 
HETATM   37  O2  UNL     1       4.390  14.453  25.247  1.00  0.00    -0.283 OA
BRANCH  36  38
HETATM   38  C5  UNL     1       3.747  15.599  23.309  1.00  0.00     0.139 C 
BRANCH  38  39
HETATM   39  N1  UNL     1       4.115  14.619  22.530  1.00  0.00    -0.405 N 
ATOM     40  H12 UNL     1       4.789  14.776  21.780  1.00  0.00     0.155 HD
ATOM     41  H11 UNL     1       3.698  13.707  22.712  1.00  0.00     0.155 HD
ENDBRANCH  38  39
ENDBRANCH  36  38
ENDBRANCH  34  36
ENDBRANCH  33  34
ENDBRANCH  31  33
ENDBRANCH   1  31
BRANCH  10  42
HETATM   42  N8  UNL     1      -1.070  22.179  21.254  1.00  0.00    -0.234 N 
ATOM     43  H82 UNL     1      -1.599  23.041  21.388  1.00  0.00     0.174 HD
ATOM     44  H81 UNL     1      -1.104  21.745  20.332  1.00  0.00     0.174 HD
ENDBRANCH  10  42
TORSDOF 11
ENDMDL
MODEL 5
REMARK VINA RESULT: -8.728977907      2.687      3.269
REMARK  11 active torsions:
REMARK  status: ('A' for Active; 'I' for Inactive)
REMARK    1  A    between atoms: S1_2  and  C2_3 
REMARK    2  A    between atoms: S1_2  and  C6_12 
REMARK    3  A    between atoms: C2_3  and  C3_4 
REMARK    4  A    between atoms: C3_4  and  C4_6 
REMARK    5  A    between atoms: C4_6  and  C5_8 
REMARK    6  A    between atoms: C5_8  and  N1_9 
REMARK    7  A    between atoms: C7_15  and  C8_16 
REMARK    8  A    between atoms: C9_19  and  C10_20 
REMARK    9  A    between atoms: C10_20  and  N4_21 
REMARK   10  A    between atoms: C10_20  and  N5_25 
REMARK   11  A    between atoms: C13_36  and  N8_37 
ROOT
HETATM    1  C6  UNL     1       3.932  17.944  24.065  1.00  0.00     0.081 A 
HETATM    2  N2  UNL     1       4.214  17.032  23.105  1.00  0.00    -0.334 N 
ATOM      3  H2  UNL     1       5.124  16.573  23.124  1.00  0.00     0.168 HD
HETATM    4  C7  UNL     1       3.361  16.709  22.142  1.00  0.00     0.142 A 
HETATM    5  N6  UNL     1       2.159  17.293  22.090  1.00  0.00    -0.325 N 
ATOM      6  H6  UNL     1       1.514  17.034  21.344  1.00  0.00     0.169 HD
HETATM    7  C12 UNL     1       1.773  18.223  23.005  1.00  0.00     0.141 A 
HETATM    8  N7  UNL     1       0.564  18.806  22.948  1.00  0.00    -0.176 N 
ATOM      9  H7  UNL     1      -0.080  18.546  22.202  1.00  0.00     0.186 HD
HETATM   10  C13 UNL     1       0.186  19.723  23.852  1.00  0.00     0.680 A 
HETATM   11  N9  UNL     1       1.064  20.037  24.820  1.00  0.00    -0.155 N 
ATOM     12  H9  UNL     1       0.788  20.732  25.514  1.00  0.00     0.187 HD
HETATM   13  C14 UNL     1       2.286  19.486  24.925  1.00  0.00     0.276 A 
HETATM   14  O3  UNL     1       3.088  19.800  25.843  1.00  0.00    -0.267 OA
HETATM   15  C15 UNL     1       2.687  18.531  23.988  1.00  0.00     0.110 A 
ENDROOT
BRANCH   4  16
HETATM   16  C8  UNL     1       3.750  15.700  21.128  1.00  0.00     0.119 A 
HETATM   17  N3  UNL     1       4.127  15.887  19.879  1.00  0.00    -0.347 N 
HETATM   18  C9  UNL     1       4.432  14.875  19.134  1.00  0.00     0.074 A 
ATOM     19  H3  UNL     1       4.176  16.832  19.499  1.00  0.00     0.166 HD
HETATM   20  C11 UNL     1       4.349  13.623  19.695  1.00  0.00     0.081 A 
HETATM   21  S2  UNL     1       3.825  14.000  21.284  1.00  0.00    -0.078 SA
BRANCH  18  22
HETATM   22  C10 UNL     1       4.874  15.008  17.684  1.00  0.00     0.427 C 
BRANCH  22  23
HETATM   23  N4  UNL     1       3.931  14.329  16.812  1.00  0.00    -0.045 N 
ATOM     24  H43 UNL     1       4.004  13.315  16.888  1.00  0.00     0.277 HD
ATOM     25  H42 UNL     1       2.969  14.435  17.133  1.00  0.00     0.277 HD
ATOM     26  H41 UNL     1       4.050  14.649  15.851  1.00  0.00     0.277 HD
ENDBRANCH  22  23
BRANCH  22  27
HETATM   27  N5  UNL     1       4.956  16.410  17.323  1.00  0.00    -0.045 N 
ATOM     28  H53 UNL     1       5.880  16.800  17.507  1.00  0.00     0.277 HD
ATOM     29  H52 UNL     1       4.937  16.548  16.313  1.00  0.00     0.277 HD
ATOM     30  H51 UNL     1       4.218  16.931  17.797  1.00  0.00     0.277 HD
ENDBRANCH  22  27
ENDBRANCH  18  22
ENDBRANCH   4  16
BRANCH   1  31
HETATM   31  S1  UNL     1       4.999  18.405  25.341  1.00  0.00    -0.165 SA
HETATM   32  C1  UNL     1       6.089  19.716  24.937  1.00  0.00     0.086 C 
BRANCH  31  33
HETATM   33  C2  UNL     1       5.753  17.061  26.169  1.00  0.00     0.157 C 
BRANCH  33  34
HETATM   34  C3  UNL     1       7.221  17.048  26.106  1.00  0.00     0.209 C 
HETATM   35  O1  UNL     1       7.785  16.561  25.098  1.00  0.00    -0.288 OA
BRANCH  34  36
HETATM   36  C4  UNL     1       8.035  17.589  27.188  1.00  0.00     0.232 C 
HETATM   37  O2  UNL     1       7.593  18.572  27.839  1.00  0.00    -0.283 OA
BRANCH  36  38
HETATM   38  C5  UNL     1       9.335  17.036  27.540  1.00  0.00     0.139 C 
BRANCH  38  39
HETATM   39  N1  UNL     1       9.458  15.738  27.483  1.00  0.00    -0.405 N 
ATOM     40  H12 UNL     1       9.623  15.270  26.591  1.00  0.00     0.155 HD
ATOM     41  H11 UNL     1       9.380  15.230  28.363  1.00  0.00     0.155 HD
ENDBRANCH  38  39
ENDBRANCH  36  38
ENDBRANCH  34  36
ENDBRANCH  33  34
ENDBRANCH  31  33
ENDBRANCH   1  31
BRANCH  10  42
HETATM   42  N8  UNL     1      -0.987  20.293  23.803  1.00  0.00    -0.234 N 
ATOM     43  H82 UNL     1      -1.830  19.777  24.057  1.00  0.00     0.174 HD
ATOM     44  H81 UNL     1      -1.102  21.264  23.512  1.00  0.00     0.174 HD
ENDBRANCH  10  42
TORSDOF 11
ENDMDL
