MODEL 1
REMARK VINA RESULT: -10.659887516      0.000      0.000
REMARK  7 active torsions:
REMARK  status: ('A' for Active; 'I' for Inactive)
REMARK    1  A    between atoms: C3_3  and  S1_4 
REMARK    2  A    between atoms: S1_4  and  C4_5 
REMARK    3  A    between atoms: C4_5  and  C5_6 
REMARK    4  A    between atoms: C5_6  and  N1_7 
REMARK       I    between atoms: N1_7  and  C6_9 
REMARK       I    between atoms: C6_9  and  N4_14 
REMARK       I    between atoms: N4_14  and  C8_16 
REMARK    5  A    between atoms: C8_16  and  C9_18 
REMARK    6  A    between atoms: C12_29  and  C13_30 
REMARK    7  A    between atoms: C14_36  and  N10_37 
ROOT
HETATM    1  N1  UNL     1       7.753  16.945  26.574  1.00  0.00    -0.225 N 
ATOM      2  H1  UNL     1       7.460  16.869  27.548  1.00  0.00     0.177 HD
HETATM    3  C6  UNL     1       9.089  16.601  26.239  1.00  0.00     0.690 C 
HETATM    4  N2  UNL     1       9.328  15.597  25.459  1.00  0.00    -0.126 N 
ATOM      5  H2  UNL     1       8.555  15.049  25.082  1.00  0.00     0.197 HD
HETATM    6  C7  UNL     1      10.641  15.266  25.132  1.00  0.00     0.196 C 
HETATM    7  N3  UNL     1      11.729  14.976  24.872  1.00  0.00    -0.171 NA
HETATM    8  N4  UNL     1      10.187  17.334  26.747  1.00  0.00    -0.153 N 
ATOM      9  H4  UNL     1      11.130  17.051  26.480  1.00  0.00     0.187 HD
HETATM   10  C8  UNL     1      10.030  18.438  27.602  1.00  0.00     0.297 C 
HETATM   11  O1  UNL     1       8.876  18.808  27.944  1.00  0.00    -0.264 OA
ENDROOT
BRANCH   1  12
HETATM   12  C5  UNL     1       6.791  17.397  25.598  1.00  0.00     0.148 C 
BRANCH  12  13
HETATM   13  C4  UNL     1       5.370  17.093  25.958  1.00  0.00     0.101 C 
BRANCH  13  14
HETATM   14  S1  UNL     1       4.502  16.112  24.714  1.00  0.00    -0.109 SA
BRANCH  14  15
HETATM   15  C3  UNL     1       3.437  17.095  23.680  1.00  0.00     0.096 A 
HETATM   16  C2  UNL     1       2.457  17.889  24.247  1.00  0.00     0.066 A 
HETATM   17  C1  UNL     1       2.281  17.926  25.724  1.00  0.00     0.073 C 
HETATM   18  N12 UNL     1       1.676  18.620  23.423  1.00  0.00    -0.237 N 
HETATM   19  C11 UNL     1       1.851  18.573  22.080  1.00  0.00     0.173 A 
HETATM   20  N11 UNL     1       0.683  19.452  23.665  1.00  0.00    -0.275 N 
HETATM   21  C10 UNL     1       2.824  17.785  21.516  1.00  0.00     0.146 A 
HETATM   22  N7  UNL     1       0.915  19.415  21.552  1.00  0.00    -0.321 N 
HETATM   23  N5  UNL     1       3.608  17.050  22.343  1.00  0.00    -0.333 N 
HETATM   24  N6  UNL     1       2.957  17.766  20.246  1.00  0.00    -0.382 N 
ATOM     25  H5  UNL     1       4.338  16.455  21.948  1.00  0.00     0.168 HD
ATOM     26  H62 UNL     1       3.680  17.180  19.827  1.00  0.00     0.157 HD
ATOM     27  H61 UNL     1       2.367  18.319  19.625  1.00  0.00     0.157 HD
HETATM   28  C12 UNL     1       0.187  19.962  22.543  1.00  0.00     0.155 A 
ATOM     29  H7  UNL     1       0.787  19.601  20.558  1.00  0.00     0.169 HD
ATOM     30  H11 UNL     1       0.339  19.678  24.599  1.00  0.00     0.189 HD
BRANCH  28  31
HETATM   31  C13 UNL     1      -0.922  20.922  22.362  1.00  0.00     0.147 A 
HETATM   32  N8  UNL     1      -0.960  21.927  21.458  1.00  0.00    -0.234 N 
HETATM   33  O3  UNL     1      -2.085  22.553  21.600  1.00  0.00    -0.155 OA
ATOM     34  H8  UNL     1      -0.230  22.153  20.782  1.00  0.00     0.197 HD
HETATM   35  N9  UNL     1      -2.801  22.033  22.539  1.00  0.00    -0.224 N 
HETATM   36  C14 UNL     1      -2.101  20.992  23.051  1.00  0.00     0.154 A 
ATOM     37  H9  UNL     1      -3.724  22.346  22.840  1.00  0.00     0.198 HD
BRANCH  36  38
HETATM   38  N10 UNL     1      -2.503  20.248  23.999  1.00  0.00    -0.382 N 
ATOM     39 2H10 UNL     1      -1.891  19.751  24.646  1.00  0.00     0.157 HD
ATOM     40 1H10 UNL     1      -3.463  20.026  24.263  1.00  0.00     0.157 HD
ENDBRANCH  36  38
ENDBRANCH  28  31
ENDBRANCH  14  15
ENDBRANCH  13  14
ENDBRANCH  12  13
ENDBRANCH   1  12
BRANCH  10  41
HETATM   41  C9  UNL     1      11.215  19.138  28.085  1.00  0.00     0.333 C 
HETATM   42  O2  UNL     1      11.228  20.383  28.076  1.00  0.00    -0.296 OA
ENDBRANCH  10  41
TORSDOF 7
ENDMDL
MODEL 2
REMARK VINA RESULT: -10.582010701      1.776      2.509
REMARK  7 active torsions:
REMARK  status: ('A' for Active; 'I' for Inactive)
REMARK    1  A    between atoms: C3_3  and  S1_4 
REMARK    2  A    between atoms: S1_4  and  C4_5 
REMARK    3  A    between atoms: C4_5  and  C5_6 
REMARK    4  A    between atoms: C5_6  and  N1_7 
REMARK       I    between atoms: N1_7  and  C6_9 
REMARK       I    between atoms: C6_9  and  N4_14 
REMARK       I    between atoms: N4_14  and  C8_16 
REMARK    5  A    between atoms: C8_16  and  C9_18 
REMARK    6  A    between atoms: C12_29  and  C13_30 
REMARK    7  A    between atoms: C14_36  and  N10_37 
ROOT
HETATM    1  N1  UNL     1       7.402  18.164  25.412  1.00  0.00    -0.225 N 
ATOM      2  H1  UNL     1       7.932  18.055  24.548  1.00  0.00     0.177 HD
HETATM    3  C6  UNL     1       8.107  18.449  26.610  1.00  0.00     0.690 C 
HETATM    4  N2  UNL     1       7.918  19.571  27.226  1.00  0.00    -0.126 N 
ATOM      5  H2  UNL     1       7.261  20.255  26.851  1.00  0.00     0.197 HD
HETATM    6  C7  UNL     1       8.612  19.845  28.403  1.00  0.00     0.196 C 
HETATM    7  N3  UNL     1       9.198  20.085  29.370  1.00  0.00    -0.171 NA
HETATM    8  N4  UNL     1       9.030  17.528  27.158  1.00  0.00    -0.153 N 
ATOM      9  H4  UNL     1       9.516  17.776  28.020  1.00  0.00     0.187 HD
HETATM   10  C8  UNL     1       9.305  16.286  26.562  1.00  0.00     0.297 C 
HETATM   11  O1  UNL     1       8.717  15.957  25.498  1.00  0.00    -0.264 OA
ENDROOT
BRANCH   1  12
HETATM   12  C5  UNL     1       5.966  18.019  25.362  1.00  0.00     0.148 C 
BRANCH  12  13
HETATM   13  C4  UNL     1       5.456  16.778  26.025  1.00  0.00     0.101 C 
BRANCH  13  14
HETATM   14  S1  UNL     1       4.238  15.879  25.039  1.00  0.00    -0.109 SA
BRANCH  14  15
HETATM   15  C3  UNL     1       3.296  16.943  23.967  1.00  0.00     0.096 A 
HETATM   16  C2  UNL     1       2.253  17.696  24.477  1.00  0.00     0.066 A 
HETATM   17  C1  UNL     1       1.907  17.621  25.922  1.00  0.00     0.073 C 
HETATM   18  N12 UNL     1       1.570  18.492  23.626  1.00  0.00    -0.237 N 
HETATM   19  C11 UNL     1       1.899  18.547  22.313  1.00  0.00     0.173 A 
HETATM   20  N11 UNL     1       0.552  19.307  23.815  1.00  0.00    -0.275 N 
HETATM   21  C10 UNL     1       2.934  17.799  21.806  1.00  0.00     0.146 A 
HETATM   22  N7  UNL     1       1.027  19.431  21.746  1.00  0.00    -0.321 N 
HETATM   23  N5  UNL     1       3.621  16.999  22.659  1.00  0.00    -0.333 N 
HETATM   24  N6  UNL     1       3.214  17.877  20.563  1.00  0.00    -0.382 N 
ATOM     25  H5  UNL     1       4.393  16.434  22.308  1.00  0.00     0.168 HD
ATOM     26  H62 UNL     1       3.983  17.322  20.186  1.00  0.00     0.157 HD
ATOM     27  H61 UNL     1       2.697  18.479  19.921  1.00  0.00     0.157 HD
HETATM   28  C12 UNL     1       0.187  19.904  22.685  1.00  0.00     0.155 A 
ATOM     29  H7  UNL     1       1.014  19.693  20.761  1.00  0.00     0.169 HD
ATOM     30  H11 UNL     1       0.101  19.462  24.717  1.00  0.00     0.189 HD
BRANCH  28  31
HETATM   31  C13 UNL     1      -0.898  20.880  22.451  1.00  0.00     0.147 A 
HETATM   32  N8  UNL     1      -0.874  21.891  21.552  1.00  0.00    -0.234 N 
HETATM   33  O3  UNL     1      -1.996  22.531  21.638  1.00  0.00    -0.155 OA
ATOM     34  H8  UNL     1      -0.106  22.110  20.918  1.00  0.00     0.197 HD
HETATM   35  N9  UNL     1      -2.768  22.016  22.535  1.00  0.00    -0.224 N 
HETATM   36  C14 UNL     1      -2.111  20.963  23.077  1.00  0.00     0.154 A 
ATOM     37  H9  UNL     1      -3.701  22.340  22.788  1.00  0.00     0.198 HD
BRANCH  36  38
HETATM   38  N10 UNL     1      -2.573  20.219  23.997  1.00  0.00    -0.382 N 
ATOM     39 2H10 UNL     1      -2.006  19.618  24.596  1.00  0.00     0.157 HD
ATOM     40 1H10 UNL     1      -3.544  20.098  24.282  1.00  0.00     0.157 HD
ENDBRANCH  36  38
ENDBRANCH  28  31
ENDBRANCH  14  15
ENDBRANCH  13  14
ENDBRANCH  12  13
ENDBRANCH   1  12
BRANCH  10  41
HETATM   41  C9  UNL     1      10.275  15.395  27.189  1.00  0.00     0.333 C 
HETATM   42  O2  UNL     1      10.011  14.900  28.301  1.00  0.00    -0.296 OA
ENDBRANCH  10  41
TORSDOF 7
ENDMDL
MODEL 3
REMARK VINA RESULT: -10.494977442      4.556      7.309
REMARK  7 active torsions:
REMARK  status: ('A' for Active; 'I' for Inactive)
REMARK    1  A    between atoms: C3_3  and  S1_4 
REMARK    2  A    between atoms: S1_4  and  C4_5 
REMARK    3  A    between atoms: C4_5  and  C5_6 
REMARK    4  A    between atoms: C5_6  and  N1_7 
REMARK       I    between atoms: N1_7  and  C6_9 
REMARK       I    between atoms: C6_9  and  N4_14 
REMARK       I    between atoms: N4_14  and  C8_16 
REMARK    5  A    between atoms: C8_16  and  C9_18 
REMARK    6  A    between atoms: C12_29  and  C13_30 
REMARK    7  A    between atoms: C14_36  and  N10_37 
ROOT
HETATM    1  N1  UNL     1       3.415  18.706  25.756  1.00  0.00    -0.225 N 
ATOM      2  H1  UNL     1       3.597  19.177  26.642  1.00  0.00     0.177 HD
HETATM    3  C6  UNL     1       4.045  17.458  25.509  1.00  0.00     0.690 C 
HETATM    4  N2  UNL     1       3.335  16.385  25.373  1.00  0.00    -0.126 N 
ATOM      5  H2  UNL     1       2.318  16.433  25.445  1.00  0.00     0.197 HD
HETATM    6  C7  UNL     1       3.958  15.164  25.130  1.00  0.00     0.196 C 
HETATM    7  N3  UNL     1       4.471  14.144  24.945  1.00  0.00    -0.171 NA
HETATM    8  N4  UNL     1       5.452  17.350  25.410  1.00  0.00    -0.153 N 
ATOM      9  H4  UNL     1       5.861  16.433  25.233  1.00  0.00     0.187 HD
HETATM   10  C8  UNL     1       6.307  18.456  25.545  1.00  0.00     0.297 C 
HETATM   11  O1  UNL     1       5.825  19.600  25.761  1.00  0.00    -0.264 OA
ENDROOT
BRANCH   1  12
HETATM   12  C5  UNL     1       2.529  19.339  24.808  1.00  0.00     0.148 C 
BRANCH  12  13
HETATM   13  C4  UNL     1       3.014  19.285  23.392  1.00  0.00     0.101 C 
BRANCH  13  14
HETATM   14  S1  UNL     1       1.873  18.451  22.267  1.00  0.00    -0.109 SA
BRANCH  14  15
HETATM   15  C3  UNL     1       2.709  17.476  21.035  1.00  0.00     0.096 A 
HETATM   16  C2  UNL     1       2.614  16.095  21.059  1.00  0.00     0.066 A 
HETATM   17  C1  UNL     1       1.817  15.415  22.115  1.00  0.00     0.073 C 
HETATM   18  N12 UNL     1       3.262  15.398  20.102  1.00  0.00    -0.237 N 
HETATM   19  C11 UNL     1       3.984  16.035  19.148  1.00  0.00     0.173 A 
HETATM   20  N11 UNL     1       3.354  14.104  19.870  1.00  0.00    -0.275 N 
HETATM   21  C10 UNL     1       4.078  17.405  19.123  1.00  0.00     0.146 A 
HETATM   22  N7  UNL     1       4.499  15.053  18.351  1.00  0.00    -0.321 N 
HETATM   23  N5  UNL     1       3.428  18.107  20.085  1.00  0.00    -0.333 N 
HETATM   24  N6  UNL     1       4.768  17.970  18.209  1.00  0.00    -0.382 N 
ATOM     25  H5  UNL     1       3.483  19.126  20.089  1.00  0.00     0.168 HD
ATOM     26  H62 UNL     1       4.839  18.988  18.191  1.00  0.00     0.157 HD
ATOM     27  H61 UNL     1       5.257  17.442  17.486  1.00  0.00     0.157 HD
HETATM   28  C12 UNL     1       4.106  13.849  18.804  1.00  0.00     0.155 A 
ATOM     29  H7  UNL     1       5.093  15.210  17.537  1.00  0.00     0.169 HD
ATOM     30  H11 UNL     1       2.904  13.386  20.438  1.00  0.00     0.189 HD
BRANCH  28  31
HETATM   31  C13 UNL     1       4.466  12.548  18.203  1.00  0.00     0.147 A 
HETATM   32  N8  UNL     1       5.602  11.853  18.440  1.00  0.00    -0.234 N 
HETATM   33  O3  UNL     1       5.564  10.768  17.734  1.00  0.00    -0.155 OA
ATOM     34  H8  UNL     1       6.357  12.135  19.066  1.00  0.00     0.197 HD
HETATM   35  N9  UNL     1       4.478  10.692  17.041  1.00  0.00    -0.224 N 
HETATM   36  C14 UNL     1       3.750  11.802  17.308  1.00  0.00     0.154 A 
ATOM     37  H9  UNL     1       4.216   9.936  16.409  1.00  0.00     0.198 HD
BRANCH  36  38
HETATM   38  N10 UNL     1       2.616  12.063  16.797  1.00  0.00    -0.382 N 
ATOM     39 2H10 UNL     1       1.832  11.411  16.763  1.00  0.00     0.157 HD
ATOM     40 1H10 UNL     1       2.309  12.927  16.352  1.00  0.00     0.157 HD
ENDBRANCH  36  38
ENDBRANCH  28  31
ENDBRANCH  14  15
ENDBRANCH  13  14
ENDBRANCH  12  13
ENDBRANCH   1  12
BRANCH  10  41
HETATM   41  C9  UNL     1       7.748  18.259  25.432  1.00  0.00     0.333 C 
HETATM   42  O2  UNL     1       8.182  17.139  25.102  1.00  0.00    -0.296 OA
ENDBRANCH  10  41
TORSDOF 7
ENDMDL
MODEL 4
REMARK VINA RESULT: -10.162441650      1.455      1.511
REMARK  7 active torsions:
REMARK  status: ('A' for Active; 'I' for Inactive)
REMARK    1  A    between atoms: C3_3  and  S1_4 
REMARK    2  A    between atoms: S1_4  and  C4_5 
REMARK    3  A    between atoms: C4_5  and  C5_6 
REMARK    4  A    between atoms: C5_6  and  N1_7 
REMARK       I    between atoms: N1_7  and  C6_9 
REMARK       I    between atoms: C6_9  and  N4_14 
REMARK       I    between atoms: N4_14  and  C8_16 
REMARK    5  A    between atoms: C8_16  and  C9_18 
REMARK    6  A    between atoms: C12_29  and  C13_30 
REMARK    7  A    between atoms: C14_36  and  N10_37 
ROOT
HETATM    1  N1  UNL     1       8.385  17.861  27.064  1.00  0.00    -0.225 N 
ATOM      2  H1  UNL     1       7.878  18.535  27.637  1.00  0.00     0.177 HD
HETATM    3  C6  UNL     1       9.419  17.099  27.668  1.00  0.00     0.690 C 
HETATM    4  N2  UNL     1       9.309  15.814  27.767  1.00  0.00    -0.126 N 
ATOM      5  H2  UNL     1       8.476  15.344  27.412  1.00  0.00     0.197 HD
HETATM    6  C7  UNL     1      10.329  15.072  28.359  1.00  0.00     0.196 C 
HETATM    7  N3  UNL     1      11.164  14.452  28.864  1.00  0.00    -0.171 NA
HETATM    8  N4  UNL     1      10.586  17.715  28.176  1.00  0.00    -0.153 N 
ATOM      9  H4  UNL     1      11.303  17.129  28.602  1.00  0.00     0.187 HD
HETATM   10  C8  UNL     1      10.797  19.103  28.117  1.00  0.00     0.297 C 
HETATM   11  O1  UNL     1       9.926  19.848  27.593  1.00  0.00    -0.264 OA
ENDROOT
BRANCH   1  12
HETATM   12  C5  UNL     1       8.017  17.723  25.675  1.00  0.00     0.148 C 
BRANCH  12  13
HETATM   13  C4  UNL     1       6.669  18.285  25.344  1.00  0.00     0.101 C 
BRANCH  13  14
HETATM   14  S1  UNL     1       5.359  17.042  25.296  1.00  0.00    -0.109 SA
BRANCH  14  15
HETATM   15  C3  UNL     1       3.984  17.528  24.276  1.00  0.00     0.096 A 
HETATM   16  C2  UNL     1       3.262  18.670  24.579  1.00  0.00     0.066 A 
HETATM   17  C1  UNL     1       3.627  19.498  25.760  1.00  0.00     0.073 C 
HETATM   18  N12 UNL     1       2.231  19.001  23.774  1.00  0.00    -0.237 N 
HETATM   19  C11 UNL     1       1.913  18.234  22.703  1.00  0.00     0.173 A 
HETATM   20  N11 UNL     1       1.381  20.008  23.807  1.00  0.00    -0.275 N 
HETATM   21  C10 UNL     1       2.628  17.100  22.402  1.00  0.00     0.146 A 
HETATM   22  N7  UNL     1       0.840  18.840  22.114  1.00  0.00    -0.321 N 
HETATM   23  N5  UNL     1       3.665  16.766  23.209  1.00  0.00    -0.333 N 
HETATM   24  N6  UNL     1       2.298  16.402  21.384  1.00  0.00    -0.382 N 
ATOM     25  H5  UNL     1       4.211  15.929  23.008  1.00  0.00     0.168 HD
ATOM     26  H62 UNL     1       2.829  15.560  21.160  1.00  0.00     0.157 HD
ATOM     27  H61 UNL     1       1.518  16.654  20.777  1.00  0.00     0.157 HD
HETATM   28  C12 UNL     1       0.509  19.946  22.805  1.00  0.00     0.155 A 
ATOM     29  H7  UNL     1       0.362  18.505  21.278  1.00  0.00     0.169 HD
ATOM     30  H11 UNL     1       1.391  20.743  24.513  1.00  0.00     0.189 HD
BRANCH  28  31
HETATM   31  C13 UNL     1      -0.601  20.863  22.474  1.00  0.00     0.147 A 
HETATM   32  N8  UNL     1      -0.592  21.800  21.499  1.00  0.00    -0.234 N 
HETATM   33  O3  UNL     1      -1.736  22.406  21.513  1.00  0.00    -0.155 OA
ATOM     34  H8  UNL     1       0.182  21.995  20.863  1.00  0.00     0.197 HD
HETATM   35  N9  UNL     1      -2.510  21.936  22.433  1.00  0.00    -0.224 N 
HETATM   36  C14 UNL     1      -1.830  20.953  23.069  1.00  0.00     0.154 A 
ATOM     37  H9  UNL     1      -3.458  22.247  22.642  1.00  0.00     0.198 HD
BRANCH  36  38
HETATM   38  N10 UNL     1      -2.287  20.268  24.036  1.00  0.00    -0.382 N 
ATOM     39 2H10 UNL     1      -3.264  19.995  24.143  1.00  0.00     0.157 HD
ATOM     40 1H10 UNL     1      -1.780  19.891  24.837  1.00  0.00     0.157 HD
ENDBRANCH  36  38
ENDBRANCH  28  31
ENDBRANCH  14  15
ENDBRANCH  13  14
ENDBRANCH  12  13
ENDBRANCH   1  12
BRANCH  10  41
HETATM   41  C9  UNL     1      12.026  19.660  28.668  1.00  0.00     0.333 C 
HETATM   42  O2  UNL     1      12.758  20.355  27.937  1.00  0.00    -0.296 OA
ENDBRANCH  10  41
TORSDOF 7
ENDMDL
MODEL 5
REMARK VINA RESULT: -10.039659225      1.494      1.570
REMARK  7 active torsions:
REMARK  status: ('A' for Active; 'I' for Inactive)
REMARK    1  A    between atoms: C3_3  and  S1_4 
REMARK    2  A    between atoms: S1_4  and  C4_5 
REMARK    3  A    between atoms: C4_5  and  C5_6 
REMARK    4  A    between atoms: C5_6  and  N1_7 
REMARK       I    between atoms: N1_7  and  C6_9 
REMARK       I    between atoms: C6_9  and  N4_14 
REMARK       I    between atoms: N4_14  and  C8_16 
REMARK    5  A    between atoms: C8_16  and  C9_18 
REMARK    6  A    between atoms: C12_29  and  C13_30 
REMARK    7  A    between atoms: C14_36  and  N10_37 
ROOT
HETATM    1  N1  UNL     1       8.177  16.904  27.113  1.00  0.00    -0.225 N 
ATOM      2  H1  UNL     1       7.701  16.448  27.891  1.00  0.00     0.177 HD
HETATM    3  C6  UNL     1       9.418  16.373  26.673  1.00  0.00     0.690 C 
HETATM    4  N2  UNL     1       9.530  15.879  25.482  1.00  0.00    -0.126 N 
ATOM      5  H2  UNL     1       8.724  15.869  24.856  1.00  0.00     0.197 HD
HETATM    6  C7  UNL     1      10.750  15.361  25.055  1.00  0.00     0.196 C 
HETATM    7  N3  UNL     1      11.756  14.914  24.701  1.00  0.00    -0.171 NA
HETATM    8  N4  UNL     1      10.555  16.364  27.514  1.00  0.00    -0.153 N 
ATOM      9  H4  UNL     1      11.425  15.971  27.156  1.00  0.00     0.187 HD
HETATM   10  C8  UNL     1      10.533  16.875  28.822  1.00  0.00     0.297 C 
HETATM   11  O1  UNL     1       9.470  17.367  29.286  1.00  0.00    -0.264 OA
ENDROOT
BRANCH   1  12
HETATM   12  C5  UNL     1       7.560  18.061  26.509  1.00  0.00     0.148 C 
BRANCH  12  13
HETATM   13  C4  UNL     1       6.822  17.764  25.241  1.00  0.00     0.101 C 
BRANCH  13  14
HETATM   14  S1  UNL     1       5.332  16.773  25.485  1.00  0.00    -0.109 SA
BRANCH  14  15
HETATM   15  C3  UNL     1       3.990  17.273  24.428  1.00  0.00     0.096 A 
HETATM   16  C2  UNL     1       3.346  18.479  24.644  1.00  0.00     0.066 A 
HETATM   17  C1  UNL     1       3.767  19.365  25.763  1.00  0.00     0.073 C 
HETATM   18  N12 UNL     1       2.337  18.818  23.814  1.00  0.00    -0.237 N 
HETATM   19  C11 UNL     1       1.967  17.997  22.801  1.00  0.00     0.173 A 
HETATM   20  N11 UNL     1       1.556  19.878  23.771  1.00  0.00    -0.275 N 
HETATM   21  C10 UNL     1       2.605  16.800  22.585  1.00  0.00     0.146 A 
HETATM   22  N7  UNL     1       0.936  18.628  22.167  1.00  0.00    -0.321 N 
HETATM   23  N5  UNL     1       3.620  16.458  23.418  1.00  0.00    -0.333 N 
HETATM   24  N6  UNL     1       2.228  16.053  21.620  1.00  0.00    -0.382 N 
ATOM     25  H5  UNL     1       4.109  15.574  23.280  1.00  0.00     0.168 HD
ATOM     26  H62 UNL     1       2.702  15.164  21.460  1.00  0.00     0.157 HD
ATOM     27  H61 UNL     1       1.465  16.311  20.994  1.00  0.00     0.157 HD
HETATM   28  C12 UNL     1       0.680  19.802  22.774  1.00  0.00     0.155 A 
ATOM     29  H7  UNL     1       0.436  18.265  21.356  1.00  0.00     0.169 HD
ATOM     30  H11 UNL     1       1.616  20.661  24.422  1.00  0.00     0.189 HD
BRANCH  28  31
HETATM   31  C13 UNL     1      -0.368  20.763  22.374  1.00  0.00     0.147 A 
HETATM   32  N8  UNL     1      -0.298  21.625  21.335  1.00  0.00    -0.234 N 
HETATM   33  O3  UNL     1      -1.399  22.304  21.300  1.00  0.00    -0.155 OA
ATOM     34  H8  UNL     1       0.487  21.724  20.690  1.00  0.00     0.197 HD
HETATM   35  N9  UNL     1      -2.202  21.953  22.248  1.00  0.00    -0.224 N 
HETATM   36  C14 UNL     1      -1.587  20.976  22.956  1.00  0.00     0.154 A 
ATOM     37  H9  UNL     1      -3.128  22.340  22.431  1.00  0.00     0.198 HD
BRANCH  36  38
HETATM   38  N10 UNL     1      -2.088  20.393  23.968  1.00  0.00    -0.382 N 
ATOM     39 2H10 UNL     1      -1.545  19.941  24.704  1.00  0.00     0.157 HD
ATOM     40 1H10 UNL     1      -3.072  20.280  24.207  1.00  0.00     0.157 HD
ENDBRANCH  36  38
ENDBRANCH  28  31
ENDBRANCH  14  15
ENDBRANCH  13  14
ENDBRANCH  12  13
ENDBRANCH   1  12
BRANCH  10  41
HETATM   41  C9  UNL     1      11.748  16.824  29.627  1.00  0.00     0.333 C 
HETATM   42  O2  UNL     1      12.036  15.769  30.224  1.00  0.00    -0.296 OA
ENDBRANCH  10  41
TORSDOF 7
ENDMDL
