MODEL 1
REMARK VINA RESULT: -5.612666291      0.000      0.000
REMARK  6 active torsions:
REMARK  status: ('A' for Active; 'I' for Inactive)
REMARK    1  A    between atoms: N1_2  and  C3_4 
REMARK    2  A    between atoms: C3_4  and  C4_5 
REMARK    3  A    between atoms: C4_5  and  N2_6 
REMARK    4  A    between atoms: C6_8  and  O1_9 
REMARK    5  A    between atoms: C7_11  and  O2_12 
REMARK    6  A    between atoms: C8_14  and  O3_15 
ROOT
HETATM    1  N2  UNL     1     -11.203  25.616  41.746  1.00  0.00    -0.361 N 
HETATM    2  C5  UNL     1     -12.158  26.681  41.651  1.00  0.00     0.159 C 
HETATM    3  C6  UNL     1     -11.867  27.610  42.797  1.00  0.00     0.169 C 
HETATM    4  C7  UNL     1     -10.665  27.027  43.448  1.00  0.00     0.197 C 
HETATM    5  C8  UNL     1     -10.677  25.570  43.032  1.00  0.00     0.251 C 
ENDROOT
BRANCH   1   6
HETATM    6  C4  UNL     1     -11.503  24.487  41.008  1.00  0.00     0.090 C 
BRANCH   6   7
HETATM    7  C3  UNL     1     -12.613  24.558  40.029  1.00  0.00     0.315 C 
BRANCH   7   8
HETATM    8  N1  UNL     1     -12.316  25.268  38.829  1.00  0.00     0.084 N 
HETATM    9  C1  UNL     1     -11.754  24.504  37.770  1.00  0.00     0.309 C 
HETATM   10  C2  UNL     1     -13.500  26.031  38.412  1.00  0.00     0.309 C 
ENDBRANCH   7   8
ENDBRANCH   6   7
ENDBRANCH   1   6
BRANCH   5  11
HETATM   11  O3  UNL     1      -9.423  25.097  43.229  1.00  0.00    -0.374 OA
ATOM     12  H3  UNL     1      -8.827  25.565  43.801  1.00  0.00     0.212 HD
ENDBRANCH   5  11
BRANCH   3  13
HETATM   13  O1  UNL     1     -11.570  28.904  42.349  1.00  0.00    -0.391 OA
ATOM     14  H1  UNL     1     -10.638  29.017  42.198  1.00  0.00     0.210 HD
ENDBRANCH   3  13
BRANCH   4  15
HETATM   15  O2  UNL     1     -10.660  27.154  44.832  1.00  0.00    -0.389 OA
ATOM     16  H2  UNL     1     -10.278  27.967  45.141  1.00  0.00     0.210 HD
ENDBRANCH   4  15
TORSDOF 6
ENDMDL
MODEL 2
REMARK VINA RESULT: -5.286217976      1.344      2.454
REMARK  6 active torsions:
REMARK  status: ('A' for Active; 'I' for Inactive)
REMARK    1  A    between atoms: N1_2  and  C3_4 
REMARK    2  A    between atoms: C3_4  and  C4_5 
REMARK    3  A    between atoms: C4_5  and  N2_6 
REMARK    4  A    between atoms: C6_8  and  O1_9 
REMARK    5  A    between atoms: C7_11  and  O2_12 
REMARK    6  A    between atoms: C8_14  and  O3_15 
ROOT
HETATM    1  N2  UNL     1     -11.459  25.788  42.537  1.00  0.00    -0.361 N 
HETATM    2  C5  UNL     1     -10.150  25.316  42.880  1.00  0.00     0.159 C 
HETATM    3  C6  UNL     1      -9.809  25.948  44.202  1.00  0.00     0.169 C 
HETATM    4  C7  UNL     1     -11.032  26.706  44.575  1.00  0.00     0.197 C 
HETATM    5  C8  UNL     1     -11.750  26.939  43.260  1.00  0.00     0.251 C 
ENDROOT
BRANCH   1   6
HETATM    6  C4  UNL     1     -11.823  25.610  41.216  1.00  0.00     0.090 C 
BRANCH   6   7
HETATM    7  C3  UNL     1     -11.754  26.775  40.302  1.00  0.00     0.315 C 
BRANCH   7   8
HETATM    8  N1  UNL     1     -11.910  26.467  38.919  1.00  0.00     0.084 N 
HETATM    9  C1  UNL     1     -11.651  25.121  38.541  1.00  0.00     0.309 C 
HETATM   10  C2  UNL     1     -13.223  26.942  38.462  1.00  0.00     0.309 C 
ENDBRANCH   7   8
ENDBRANCH   6   7
ENDBRANCH   1   6
BRANCH   5  11
HETATM   11  O3  UNL     1     -13.036  27.236  43.565  1.00  0.00    -0.374 OA
ATOM     12  H3  UNL     1     -13.523  26.673  44.154  1.00  0.00     0.212 HD
ENDBRANCH   5  11
BRANCH   3  13
HETATM   13  O1  UNL     1      -9.546  24.982  45.182  1.00  0.00    -0.391 OA
ATOM     14  H1  UNL     1      -8.904  25.287  45.811  1.00  0.00     0.210 HD
ENDBRANCH   3  13
BRANCH   4  15
HETATM   15  O2  UNL     1     -10.771  27.907  45.224  1.00  0.00    -0.389 OA
ATOM     16  H2  UNL     1     -11.521  28.264  45.685  1.00  0.00     0.210 HD
ENDBRANCH   4  15
TORSDOF 6
ENDMDL
MODEL 3
REMARK VINA RESULT: -5.209310629      2.943      5.000
REMARK  6 active torsions:
REMARK  status: ('A' for Active; 'I' for Inactive)
REMARK    1  A    between atoms: N1_2  and  C3_4 
REMARK    2  A    between atoms: C3_4  and  C4_5 
REMARK    3  A    between atoms: C4_5  and  N2_6 
REMARK    4  A    between atoms: C6_8  and  O1_9 
REMARK    5  A    between atoms: C7_11  and  O2_12 
REMARK    6  A    between atoms: C8_14  and  O3_15 
ROOT
HETATM    1  N2  UNL     1     -12.264  26.793  40.233  1.00  0.00    -0.361 N 
HETATM    2  C5  UNL     1     -12.327  27.901  39.325  1.00  0.00     0.159 C 
HETATM    3  C6  UNL     1     -13.124  27.429  38.141  1.00  0.00     0.169 C 
HETATM    4  C7  UNL     1     -13.545  26.051  38.505  1.00  0.00     0.197 C 
HETATM    5  C8  UNL     1     -12.543  25.612  39.554  1.00  0.00     0.251 C 
ENDROOT
BRANCH   1   6
HETATM    6  C4  UNL     1     -11.302  26.892  41.219  1.00  0.00     0.090 C 
BRANCH   6   7
HETATM    7  C3  UNL     1     -11.744  27.087  42.620  1.00  0.00     0.315 C 
BRANCH   7   8
HETATM    8  N1  UNL     1     -11.198  26.163  43.560  1.00  0.00     0.084 N 
HETATM    9  C1  UNL     1     -10.237  25.245  43.053  1.00  0.00     0.309 C 
HETATM   10  C2  UNL     1     -10.715  26.899  44.736  1.00  0.00     0.309 C 
ENDBRANCH   7   8
ENDBRANCH   6   7
ENDBRANCH   1   6
BRANCH   5  11
HETATM   11  O3  UNL     1     -13.102  24.571  40.217  1.00  0.00    -0.374 OA
ATOM     12  H3  UNL     1     -12.572  23.815  40.439  1.00  0.00     0.212 HD
ENDBRANCH   5  11
BRANCH   3  13
HETATM   13  O1  UNL     1     -14.261  28.221  37.935  1.00  0.00    -0.391 OA
ATOM     14  H1  UNL     1     -15.049  27.694  37.874  1.00  0.00     0.210 HD
ENDBRANCH   3  13
BRANCH   4  15
HETATM   15  O2  UNL     1     -13.566  25.169  37.431  1.00  0.00    -0.389 OA
ATOM     16  H2  UNL     1     -12.920  24.474  37.492  1.00  0.00     0.210 HD
ENDBRANCH   4  15
TORSDOF 6
ENDMDL
MODEL 4
REMARK VINA RESULT: -5.144173981      3.073      5.363
REMARK  6 active torsions:
REMARK  status: ('A' for Active; 'I' for Inactive)
REMARK    1  A    between atoms: N1_2  and  C3_4 
REMARK    2  A    between atoms: C3_4  and  C4_5 
REMARK    3  A    between atoms: C4_5  and  N2_6 
REMARK    4  A    between atoms: C6_8  and  O1_9 
REMARK    5  A    between atoms: C7_11  and  O2_12 
REMARK    6  A    between atoms: C8_14  and  O3_15 
ROOT
HETATM    1  N2  UNL     1     -12.218  26.921  39.864  1.00  0.00    -0.361 N 
HETATM    2  C5  UNL     1     -11.492  25.686  39.825  1.00  0.00     0.159 C 
HETATM    3  C6  UNL     1     -11.968  24.958  38.599  1.00  0.00     0.169 C 
HETATM    4  C7  UNL     1     -12.916  25.903  37.953  1.00  0.00     0.197 C 
HETATM    5  C8  UNL     1     -13.357  26.823  39.074  1.00  0.00     0.251 C 
ENDROOT
BRANCH   1   6
HETATM    6  C4  UNL     1     -12.191  27.583  41.077  1.00  0.00     0.090 C 
BRANCH   6   7
HETATM    7  C3  UNL     1     -11.031  27.366  41.974  1.00  0.00     0.315 C 
BRANCH   7   8
HETATM    8  N1  UNL     1     -11.248  26.427  43.025  1.00  0.00     0.084 N 
HETATM    9  C1  UNL     1     -10.163  25.559  43.326  1.00  0.00     0.309 C 
HETATM   10  C2  UNL     1     -11.755  27.134  44.209  1.00  0.00     0.309 C 
ENDBRANCH   7   8
ENDBRANCH   6   7
ENDBRANCH   1   6
BRANCH   5  11
HETATM   11  O3  UNL     1     -13.868  27.934  38.489  1.00  0.00    -0.374 OA
ATOM     12  H3  UNL     1     -14.721  27.898  38.074  1.00  0.00     0.212 HD
ENDBRANCH   5  11
BRANCH   3  13
HETATM   13  O1  UNL     1     -10.913  24.686  37.718  1.00  0.00    -0.391 OA
ATOM     14  H1  UNL     1     -10.652  23.773  37.755  1.00  0.00     0.210 HD
ENDBRANCH   3  13
BRANCH   4  15
HETATM   15  O2  UNL     1     -14.006  25.283  37.354  1.00  0.00    -0.389 OA
ATOM     16  H2  UNL     1     -14.680  25.887  37.066  1.00  0.00     0.210 HD
ENDBRANCH   4  15
TORSDOF 6
ENDMDL
MODEL 5
REMARK VINA RESULT: -5.139990790      2.921      5.366
REMARK  6 active torsions:
REMARK  status: ('A' for Active; 'I' for Inactive)
REMARK    1  A    between atoms: N1_2  and  C3_4 
REMARK    2  A    between atoms: C3_4  and  C4_5 
REMARK    3  A    between atoms: C4_5  and  N2_6 
REMARK    4  A    between atoms: C6_8  and  O1_9 
REMARK    5  A    between atoms: C7_11  and  O2_12 
REMARK    6  A    between atoms: C8_14  and  O3_15 
ROOT
HETATM    1  N2  UNL     1     -11.865  26.876  40.135  1.00  0.00    -0.361 N 
HETATM    2  C5  UNL     1     -11.343  25.550  39.975  1.00  0.00     0.159 C 
HETATM    3  C6  UNL     1     -11.998  24.987  38.745  1.00  0.00     0.169 C 
HETATM    4  C7  UNL     1     -12.824  26.105  38.221  1.00  0.00     0.197 C 
HETATM    5  C8  UNL     1     -13.051  27.003  39.421  1.00  0.00     0.251 C 
ENDROOT
BRANCH   1   6
HETATM    6  C4  UNL     1     -11.664  27.443  41.379  1.00  0.00     0.090 C 
BRANCH   6   7
HETATM    7  C3  UNL     1     -11.798  26.582  42.577  1.00  0.00     0.315 C 
BRANCH   7   8
HETATM    8  N1  UNL     1     -10.672  26.586  43.453  1.00  0.00     0.084 N 
HETATM    9  C1  UNL     1     -10.923  26.974  44.797  1.00  0.00     0.309 C 
HETATM   10  C2  UNL     1      -9.978  25.295  43.354  1.00  0.00     0.309 C 
ENDBRANCH   7   8
ENDBRANCH   6   7
ENDBRANCH   1   6
BRANCH   5  11
HETATM   11  O3  UNL     1     -13.418  28.215  38.938  1.00  0.00    -0.374 OA
ATOM     12  H3  UNL     1     -12.960  28.583  38.192  1.00  0.00     0.212 HD
ENDBRANCH   5  11
BRANCH   3  13
HETATM   13  O1  UNL     1     -11.051  24.619  37.779  1.00  0.00    -0.391 OA
ATOM     14  H1  UNL     1     -10.816  25.352  37.223  1.00  0.00     0.210 HD
ENDBRANCH   3  13
BRANCH   4  15
HETATM   15  O2  UNL     1     -14.031  25.698  37.664  1.00  0.00    -0.389 OA
ATOM     16  H2  UNL     1     -14.273  24.806  37.883  1.00  0.00     0.210 HD
ENDBRANCH   4  15
TORSDOF 6
ENDMDL
