MODEL 1
REMARK VINA RESULT: -6.493990988      0.000      0.000
REMARK  4 active torsions:
REMARK  status: ('A' for Active; 'I' for Inactive)
REMARK    1  A    between atoms: N1_1  and  C1_5 
REMARK    2  A    between atoms: C1_5  and  C2_6 
REMARK    3  A    between atoms: C2_6  and  N2_7 
REMARK       I    between atoms: N3_10  and  C5_11 
REMARK    4  A    between atoms: N5_13  and  N6_15 
ROOT
HETATM    1  N2  UNL     1     -30.964  -7.344  41.492  1.00  0.00     0.093 N 
HETATM    2  C3  UNL     1     -29.930  -6.488  40.856  1.00  0.00     0.292 C 
HETATM    3  C4  UNL     1     -29.691  -5.209  41.543  1.00  0.00     0.156 C 
HETATM    4  N3  UNL     1     -30.696  -4.760  42.459  1.00  0.00    -0.351 N 
HETATM    5  C5  UNL     1     -30.637  -3.412  42.947  1.00  0.00     0.204 C 
HETATM    6  N4  UNL     1     -30.226  -2.346  42.087  1.00  0.00    -0.062 NA
HETATM    7  N5  UNL     1     -30.937  -3.089  44.146  1.00  0.00    -0.280 N 
ATOM      8  H5  UNL     1     -30.874  -2.112  44.432  1.00  0.00     0.189 HD
HETATM    9  C6  UNL     1     -31.759  -5.621  42.899  1.00  0.00     0.156 C 
HETATM   10  C7  UNL     1     -32.099  -6.515  41.685  1.00  0.00     0.292 C 
ENDROOT
BRANCH   7  11
HETATM   11  N6  UNL     1     -31.347  -4.046  45.066  1.00  0.00    -0.343 N 
ATOM     12  H62 UNL     1     -30.974  -4.991  44.983  1.00  0.00     0.176 HD
ATOM     13  H61 UNL     1     -32.005  -3.813  45.810  1.00  0.00     0.176 HD
ENDBRANCH   7  11
BRANCH   1  14
HETATM   14  C2  UNL     1     -31.138  -8.415  40.564  1.00  0.00     0.299 C 
BRANCH  14  15
HETATM   15  C1  UNL     1     -32.429  -9.128  40.532  1.00  0.00     0.259 C 
BRANCH  15  16
HETATM   16  N1  UNL     1     -33.270  -8.975  39.404  1.00  0.00    -0.078 N 
ATOM     17  H13 UNL     1     -34.076  -8.408  39.669  1.00  0.00     0.274 HD
ATOM     18  H12 UNL     1     -32.809  -8.363  38.731  1.00  0.00     0.274 HD
ATOM     19  H11 UNL     1     -33.601  -9.809  38.917  1.00  0.00     0.274 HD
ENDBRANCH  15  16
ENDBRANCH  14  15
ENDBRANCH   1  14
TORSDOF 4
ENDMDL
MODEL 2
REMARK VINA RESULT: -6.458427682      1.435      5.669
REMARK  4 active torsions:
REMARK  status: ('A' for Active; 'I' for Inactive)
REMARK    1  A    between atoms: N1_1  and  C1_5 
REMARK    2  A    between atoms: C1_5  and  C2_6 
REMARK    3  A    between atoms: C2_6  and  N2_7 
REMARK       I    between atoms: N3_10  and  C5_11 
REMARK    4  A    between atoms: N5_13  and  N6_15 
ROOT
HETATM    1  N2  UNL     1     -31.081  -5.637  42.561  1.00  0.00     0.093 N 
HETATM    2  C3  UNL     1     -32.274  -6.468  42.862  1.00  0.00     0.292 C 
HETATM    3  C4  UNL     1     -32.338  -7.736  42.117  1.00  0.00     0.156 C 
HETATM    4  N3  UNL     1     -31.515  -7.851  40.950  1.00  0.00    -0.351 N 
HETATM    5  C5  UNL     1     -31.735  -8.948  40.052  1.00  0.00     0.204 C 
HETATM    6  N4  UNL     1     -33.061  -9.409  39.781  1.00  0.00    -0.062 NA
HETATM    7  N5  UNL     1     -30.788  -9.565  39.457  1.00  0.00    -0.280 N 
ATOM      8  H5  UNL     1     -31.010 -10.338  38.830  1.00  0.00     0.189 HD
HETATM    9  C6  UNL     1     -30.479  -6.899  40.657  1.00  0.00     0.156 C 
HETATM   10  C7  UNL     1     -31.017  -5.536  41.147  1.00  0.00     0.292 C 
ENDROOT
BRANCH   7  11
HETATM   11  N6  UNL     1     -29.461  -9.201  39.650  1.00  0.00    -0.343 N 
ATOM     12  H62 UNL     1     -29.153  -8.971  40.594  1.00  0.00     0.176 HD
ATOM     13  H61 UNL     1     -28.807  -9.163  38.868  1.00  0.00     0.176 HD
ENDBRANCH   7  11
BRANCH   1  14
HETATM   14  C2  UNL     1     -31.335  -4.413  43.252  1.00  0.00     0.299 C 
BRANCH  14  15
HETATM   15  C1  UNL     1     -30.661  -3.184  42.795  1.00  0.00     0.259 C 
BRANCH  15  16
HETATM   16  N1  UNL     1     -30.292  -2.207  43.751  1.00  0.00    -0.078 N 
ATOM     17  H13 UNL     1     -29.988  -2.679  44.602  1.00  0.00     0.274 HD
ATOM     18  H12 UNL     1     -29.425  -1.763  43.448  1.00  0.00     0.274 HD
ATOM     19  H11 UNL     1     -30.964  -1.480  44.000  1.00  0.00     0.274 HD
ENDBRANCH  15  16
ENDBRANCH  14  15
ENDBRANCH   1  14
TORSDOF 4
ENDMDL
MODEL 3
REMARK VINA RESULT: -5.743782485      1.212      5.414
REMARK  4 active torsions:
REMARK  status: ('A' for Active; 'I' for Inactive)
REMARK    1  A    between atoms: N1_1  and  C1_5 
REMARK    2  A    between atoms: C1_5  and  C2_6 
REMARK    3  A    between atoms: C2_6  and  N2_7 
REMARK       I    between atoms: N3_10  and  C5_11 
REMARK    4  A    between atoms: N5_13  and  N6_15 
ROOT
HETATM    1  N2  UNL     1     -31.749  -5.359  42.580  1.00  0.00     0.093 N 
HETATM    2  C3  UNL     1     -30.402  -5.390  41.956  1.00  0.00     0.292 C 
HETATM    3  C4  UNL     1     -30.220  -6.451  40.952  1.00  0.00     0.156 C 
HETATM    4  N3  UNL     1     -31.156  -7.535  40.967  1.00  0.00    -0.351 N 
HETATM    5  C5  UNL     1     -30.870  -8.709  40.195  1.00  0.00     0.204 C 
HETATM    6  N4  UNL     1     -29.531  -9.200  40.089  1.00  0.00    -0.062 NA
HETATM    7  N5  UNL     1     -31.766  -9.369  39.568  1.00  0.00    -0.280 N 
ATOM      8  H5  UNL     1     -31.498 -10.196  39.035  1.00  0.00     0.189 HD
HETATM    9  C6  UNL     1     -32.369  -7.476  41.736  1.00  0.00     0.156 C 
HETATM   10  C7  UNL     1     -32.014  -6.684  43.014  1.00  0.00     0.292 C 
ENDROOT
BRANCH   7  11
HETATM   11  N6  UNL     1     -33.099  -8.978  39.600  1.00  0.00    -0.343 N 
ATOM     12  H62 UNL     1     -33.361  -8.192  40.195  1.00  0.00     0.176 HD
ATOM     13  H61 UNL     1     -33.803  -9.463  39.044  1.00  0.00     0.176 HD
ENDBRANCH   7  11
BRANCH   1  14
HETATM   14  C2  UNL     1     -31.621  -4.388  43.619  1.00  0.00     0.299 C 
BRANCH  14  15
HETATM   15  C1  UNL     1     -30.744  -3.222  43.400  1.00  0.00     0.259 C 
BRANCH  15  16
HETATM   16  N1  UNL     1     -30.927  -2.066  44.197  1.00  0.00    -0.078 N 
ATOM     17  H13 UNL     1     -31.832  -2.130  44.665  1.00  0.00     0.274 HD
ATOM     18  H12 UNL     1     -30.289  -2.111  44.991  1.00  0.00     0.274 HD
ATOM     19  H11 UNL     1     -30.847  -1.147  43.761  1.00  0.00     0.274 HD
ENDBRANCH  15  16
ENDBRANCH  14  15
ENDBRANCH   1  14
TORSDOF 4
ENDMDL
MODEL 4
REMARK VINA RESULT: -5.619558746      1.035      1.089
REMARK  4 active torsions:
REMARK  status: ('A' for Active; 'I' for Inactive)
REMARK    1  A    between atoms: N1_1  and  C1_5 
REMARK    2  A    between atoms: C1_5  and  C2_6 
REMARK    3  A    between atoms: C2_6  and  N2_7 
REMARK       I    between atoms: N3_10  and  C5_11 
REMARK    4  A    between atoms: N5_13  and  N6_15 
ROOT
HETATM    1  N2  UNL     1     -31.913  -7.726  42.208  1.00  0.00     0.093 N 
HETATM    2  C3  UNL     1     -30.748  -7.287  41.399  1.00  0.00     0.292 C 
HETATM    3  C4  UNL     1     -30.185  -5.987  41.795  1.00  0.00     0.156 C 
HETATM    4  N3  UNL     1     -31.009  -5.134  42.599  1.00  0.00    -0.351 N 
HETATM    5  C5  UNL     1     -30.617  -3.767  42.787  1.00  0.00     0.204 C 
HETATM    6  N4  UNL     1     -30.021  -3.030  41.716  1.00  0.00    -0.062 NA
HETATM    7  N5  UNL     1     -30.768  -3.142  43.890  1.00  0.00    -0.280 N 
ATOM      8  H5  UNL     1     -30.469  -2.170  43.960  1.00  0.00     0.189 HD
HETATM    9  C6  UNL     1     -32.215  -5.612  43.218  1.00  0.00     0.156 C 
HETATM   10  C7  UNL     1     -32.816  -6.632  42.225  1.00  0.00     0.292 C 
ENDROOT
BRANCH   7  11
HETATM   11  N6  UNL     1     -31.335  -3.764  44.996  1.00  0.00    -0.343 N 
ATOM     12  H62 UNL     1     -31.883  -4.612  44.849  1.00  0.00     0.176 HD
ATOM     13  H61 UNL     1     -31.208  -3.386  45.935  1.00  0.00     0.176 HD
ENDBRANCH   7  11
BRANCH   1  14
HETATM   14  C2  UNL     1     -32.378  -8.894  41.531  1.00  0.00     0.299 C 
BRANCH  14  15
HETATM   15  C1  UNL     1     -32.140  -9.020  40.081  1.00  0.00     0.259 C 
BRANCH  15  16
HETATM   16  N1  UNL     1     -30.903  -9.543  39.631  1.00  0.00    -0.078 N 
ATOM     17  H13 UNL     1     -30.334  -9.783  40.442  1.00  0.00     0.274 HD
ATOM     18  H12 UNL     1     -31.066 -10.463  39.223  1.00  0.00     0.274 HD
ATOM     19  H11 UNL     1     -30.339  -8.991  38.984  1.00  0.00     0.274 HD
ENDBRANCH  15  16
ENDBRANCH  14  15
ENDBRANCH   1  14
TORSDOF 4
ENDMDL
MODEL 5
REMARK VINA RESULT: -4.976328384      1.158      2.334
REMARK  4 active torsions:
REMARK  status: ('A' for Active; 'I' for Inactive)
REMARK    1  A    between atoms: N1_1  and  C1_5 
REMARK    2  A    between atoms: C1_5  and  C2_6 
REMARK    3  A    between atoms: C2_6  and  N2_7 
REMARK       I    between atoms: N3_10  and  C5_11 
REMARK    4  A    between atoms: N5_13  and  N6_15 
ROOT
HETATM    1  N2  UNL     1     -31.437  -7.239  41.327  1.00  0.00     0.093 N 
HETATM    2  C3  UNL     1     -32.383  -7.063  42.458  1.00  0.00     0.292 C 
HETATM    3  C4  UNL     1     -32.349  -5.730  43.080  1.00  0.00     0.156 C 
HETATM    4  N3  UNL     1     -31.199  -4.916  42.822  1.00  0.00    -0.351 N 
HETATM    5  C5  UNL     1     -30.997  -3.733  43.607  1.00  0.00     0.204 C 
HETATM    6  N4  UNL     1     -31.322  -3.721  44.999  1.00  0.00    -0.062 NA
HETATM    7  N5  UNL     1     -30.532  -2.645  43.125  1.00  0.00    -0.280 N 
ATOM      8  H5  UNL     1     -30.412  -1.837  43.735  1.00  0.00     0.189 HD
HETATM    9  C6  UNL     1     -30.245  -5.255  41.802  1.00  0.00     0.156 C 
HETATM   10  C7  UNL     1     -30.172  -6.799  41.797  1.00  0.00     0.292 C 
ENDROOT
BRANCH   7  11
HETATM   11  N6  UNL     1     -30.186  -2.545  41.783  1.00  0.00    -0.343 N 
ATOM     12  H62 UNL     1     -30.806  -2.962  41.089  1.00  0.00     0.176 HD
ATOM     13  H61 UNL     1     -29.332  -2.067  41.493  1.00  0.00     0.176 HD
ENDBRANCH   7  11
BRANCH   1  14
HETATM   14  C2  UNL     1     -31.527  -8.630  41.020  1.00  0.00     0.299 C 
BRANCH  14  15
HETATM   15  C1  UNL     1     -31.053  -9.101  39.704  1.00  0.00     0.259 C 
BRANCH  15  16
HETATM   16  N1  UNL     1     -29.661  -9.224  39.479  1.00  0.00    -0.078 N 
ATOM     17  H13 UNL     1     -29.203  -8.361  39.776  1.00  0.00     0.274 HD
ATOM     18  H12 UNL     1     -29.278  -9.892  40.147  1.00  0.00     0.274 HD
ATOM     19  H11 UNL     1     -29.330  -9.466  38.545  1.00  0.00     0.274 HD
ENDBRANCH  15  16
ENDBRANCH  14  15
ENDBRANCH   1  14
TORSDOF 4
ENDMDL
