MODEL 1
REMARK VINA RESULT: -5.909899984      0.000      0.000
REMARK  6 active torsions:
REMARK  status: ('A' for Active; 'I' for Inactive)
REMARK    1  A    between atoms: S1_2  and  C2_3 
REMARK    2  A    between atoms: S1_2  and  C3_8 
REMARK    3  A    between atoms: C2_3  and  N1_4 
REMARK    4  A    between atoms: C3_8  and  C4_9 
REMARK    5  A    between atoms: C6_12  and  O2_13 
REMARK    6  A    between atoms: C7_15  and  O3_16 
ROOT
HETATM    1  C4  UNL     1     -31.023  -5.843  42.422  1.00  0.00     0.161 C 
HETATM    2  O1  UNL     1     -30.566  -5.724  41.096  1.00  0.00    -0.380 OA
HETATM    3  C5  UNL     1     -29.823  -4.542  41.091  1.00  0.00     0.202 C 
HETATM    4  C6  UNL     1     -30.722  -3.585  41.826  1.00  0.00     0.173 C 
HETATM    5  C7  UNL     1     -31.290  -4.472  42.910  1.00  0.00     0.178 C 
ENDROOT
BRANCH   1   6
HETATM    6  C3  UNL     1     -32.166  -6.797  42.383  1.00  0.00     0.099 C 
BRANCH   6   7
HETATM    7  S1  UNL     1     -31.809  -8.469  42.078  1.00  0.00    -0.196 SA
HETATM    8  C1  UNL     1     -32.980  -9.593  42.758  1.00  0.00     0.080 C 
BRANCH   7   9
HETATM    9  C2  UNL     1     -31.631  -8.740  40.333  1.00  0.00     0.293 C 
BRANCH   9  10
HETATM   10  N1  UNL     1     -32.949  -9.070  39.810  1.00  0.00    -0.072 N 
ATOM     11  H13 UNL     1     -33.004 -10.016  39.433  1.00  0.00     0.275 HD
ATOM     12  H12 UNL     1     -33.653  -9.178  40.540  1.00  0.00     0.275 HD
ATOM     13  H11 UNL     1     -33.192  -8.354  39.126  1.00  0.00     0.275 HD
ENDBRANCH   9  10
ENDBRANCH   7   9
ENDBRANCH   6   7
ENDBRANCH   1   6
BRANCH   5  14
HETATM   14  O3  UNL     1     -30.505  -4.229  44.046  1.00  0.00    -0.390 OA
ATOM     15  H3  UNL     1     -31.075  -4.082  44.792  1.00  0.00     0.210 HD
ENDBRANCH   5  14
BRANCH   4  16
HETATM   16  O2  UNL     1     -29.982  -2.529  42.347  1.00  0.00    -0.391 OA
ATOM     17  H2  UNL     1     -30.556  -1.897  42.765  1.00  0.00     0.210 HD
ENDBRANCH   4  16
TORSDOF 6
ENDMDL
MODEL 2
REMARK VINA RESULT: -5.850976231      3.636      5.092
REMARK  6 active torsions:
REMARK  status: ('A' for Active; 'I' for Inactive)
REMARK    1  A    between atoms: S1_2  and  C2_3 
REMARK    2  A    between atoms: S1_2  and  C3_8 
REMARK    3  A    between atoms: C2_3  and  N1_4 
REMARK    4  A    between atoms: C3_8  and  C4_9 
REMARK    5  A    between atoms: C6_12  and  O2_13 
REMARK    6  A    between atoms: C7_15  and  O3_16 
ROOT
HETATM    1  C4  UNL     1     -31.921  -7.700  41.901  1.00  0.00     0.161 C 
HETATM    2  O1  UNL     1     -32.978  -8.004  41.023  1.00  0.00    -0.380 OA
HETATM    3  C5  UNL     1     -32.466  -9.007  40.198  1.00  0.00     0.202 C 
HETATM    4  C6  UNL     1     -31.111  -8.469  39.828  1.00  0.00     0.173 C 
HETATM    5  C7  UNL     1     -30.666  -7.840  41.128  1.00  0.00     0.178 C 
ENDROOT
BRANCH   1   6
HETATM    6  C3  UNL     1     -32.231  -6.363  42.478  1.00  0.00     0.099 C 
BRANCH   6   7
HETATM    7  S1  UNL     1     -30.963  -5.177  42.491  1.00  0.00    -0.196 SA
HETATM    8  C1  UNL     1     -30.677  -4.407  40.934  1.00  0.00     0.080 C 
BRANCH   7   9
HETATM    9  C2  UNL     1     -31.290  -3.955  43.735  1.00  0.00     0.293 C 
BRANCH   9  10
HETATM   10  N1  UNL     1     -30.336  -2.872  43.539  1.00  0.00    -0.072 N 
ATOM     11  H13 UNL     1     -29.668  -3.060  42.792  1.00  0.00     0.275 HD
ATOM     12  H12 UNL     1     -30.759  -2.037  43.131  1.00  0.00     0.275 HD
ATOM     13  H11 UNL     1     -29.890  -2.694  44.438  1.00  0.00     0.275 HD
ENDBRANCH   9  10
ENDBRANCH   7   9
ENDBRANCH   6   7
ENDBRANCH   1   6
BRANCH   5  14
HETATM   14  O3  UNL     1     -29.850  -8.795  41.748  1.00  0.00    -0.390 OA
ATOM     15  H3  UNL     1     -29.564  -9.429  41.101  1.00  0.00     0.210 HD
ENDBRANCH   5  14
BRANCH   4  16
HETATM   16  O2  UNL     1     -30.271  -9.503  39.432  1.00  0.00    -0.391 OA
ATOM     17  H2  UNL     1     -30.126 -10.106  40.152  1.00  0.00     0.210 HD
ENDBRANCH   4  16
TORSDOF 6
ENDMDL
MODEL 3
REMARK VINA RESULT: -5.232780206      3.410      5.211
REMARK  6 active torsions:
REMARK  status: ('A' for Active; 'I' for Inactive)
REMARK    1  A    between atoms: S1_2  and  C2_3 
REMARK    2  A    between atoms: S1_2  and  C3_8 
REMARK    3  A    between atoms: C2_3  and  N1_4 
REMARK    4  A    between atoms: C3_8  and  C4_9 
REMARK    5  A    between atoms: C6_12  and  O2_13 
REMARK    6  A    between atoms: C7_15  and  O3_16 
ROOT
HETATM    1  C4  UNL     1     -31.628  -7.372  42.283  1.00  0.00     0.161 C 
HETATM    2  O1  UNL     1     -32.797  -8.114  42.538  1.00  0.00    -0.380 OA
HETATM    3  C5  UNL     1     -32.645  -9.272  41.774  1.00  0.00     0.202 C 
HETATM    4  C6  UNL     1     -32.188  -8.734  40.445  1.00  0.00     0.173 C 
HETATM    5  C7  UNL     1     -31.260  -7.620  40.870  1.00  0.00     0.178 C 
ENDROOT
BRANCH   1   6
HETATM    6  C3  UNL     1     -31.930  -5.970  42.682  1.00  0.00     0.099 C 
BRANCH   6   7
HETATM    7  S1  UNL     1     -30.712  -4.768  42.388  1.00  0.00    -0.196 SA
HETATM    8  C1  UNL     1     -30.639  -4.206  40.722  1.00  0.00     0.080 C 
BRANCH   7   9
HETATM    9  C2  UNL     1     -30.934  -3.399  43.495  1.00  0.00     0.293 C 
BRANCH   9  10
HETATM   10  N1  UNL     1     -31.211  -3.950  44.815  1.00  0.00    -0.072 N 
ATOM     11  H13 UNL     1     -32.188  -4.213  44.940  1.00  0.00     0.275 HD
ATOM     12  H12 UNL     1     -30.806  -4.876  44.954  1.00  0.00     0.275 HD
ATOM     13  H11 UNL     1     -30.890  -3.268  45.501  1.00  0.00     0.275 HD
ENDBRANCH   9  10
ENDBRANCH   7   9
ENDBRANCH   6   7
ENDBRANCH   1   6
BRANCH   5  14
HETATM   14  O3  UNL     1     -29.970  -8.163  40.821  1.00  0.00    -0.390 OA
ATOM     15  H3  UNL     1     -29.991  -8.972  40.322  1.00  0.00     0.210 HD
ENDBRANCH   5  14
BRANCH   4  16
HETATM   16  O2  UNL     1     -31.525  -9.722  39.726  1.00  0.00    -0.391 OA
ATOM     17  H2  UNL     1     -31.509 -10.535  40.216  1.00  0.00     0.210 HD
ENDBRANCH   4  16
TORSDOF 6
ENDMDL
MODEL 4
REMARK VINA RESULT: -5.028487381      3.405      5.243
REMARK  6 active torsions:
REMARK  status: ('A' for Active; 'I' for Inactive)
REMARK    1  A    between atoms: S1_2  and  C2_3 
REMARK    2  A    between atoms: S1_2  and  C3_8 
REMARK    3  A    between atoms: C2_3  and  N1_4 
REMARK    4  A    between atoms: C3_8  and  C4_9 
REMARK    5  A    between atoms: C6_12  and  O2_13 
REMARK    6  A    between atoms: C7_15  and  O3_16 
ROOT
HETATM    1  C4  UNL     1     -32.008  -6.419  42.292  1.00  0.00     0.161 C 
HETATM    2  O1  UNL     1     -30.839  -7.171  42.064  1.00  0.00    -0.380 OA
HETATM    3  C5  UNL     1     -31.306  -8.444  41.733  1.00  0.00     0.202 C 
HETATM    4  C6  UNL     1     -32.351  -8.696  42.785  1.00  0.00     0.173 C 
HETATM    5  C7  UNL     1     -32.994  -7.334  42.909  1.00  0.00     0.178 C 
ENDROOT
BRANCH   1   6
HETATM    6  C3  UNL     1     -31.587  -5.225  43.076  1.00  0.00     0.099 C 
BRANCH   6   7
HETATM    7  S1  UNL     1     -30.475  -4.122  42.329  1.00  0.00    -0.196 SA
HETATM    8  C1  UNL     1     -30.734  -3.891  40.604  1.00  0.00     0.080 C 
BRANCH   7   9
HETATM    9  C2  UNL     1     -30.510  -2.562  43.175  1.00  0.00     0.293 C 
BRANCH   9  10
HETATM   10  N1  UNL     1     -31.116  -2.792  44.479  1.00  0.00    -0.072 N 
ATOM     11  H13 UNL     1     -30.810  -3.662  44.913  1.00  0.00     0.275 HD
ATOM     12  H12 UNL     1     -30.769  -2.157  45.198  1.00  0.00     0.275 HD
ATOM     13  H11 UNL     1     -32.127  -2.741  44.357  1.00  0.00     0.275 HD
ENDBRANCH   9  10
ENDBRANCH   7   9
ENDBRANCH   6   7
ENDBRANCH   1   6
BRANCH   5  14
HETATM   14  O3  UNL     1     -34.140  -7.383  42.104  1.00  0.00    -0.390 OA
ATOM     15  H3  UNL     1     -34.255  -8.269  41.779  1.00  0.00     0.210 HD
ENDBRANCH   5  14
BRANCH   4  16
HETATM   16  O2  UNL     1     -33.251  -9.663  42.352  1.00  0.00    -0.391 OA
ATOM     17  H2  UNL     1     -34.066  -9.598  42.837  1.00  0.00     0.210 HD
ENDBRANCH   4  16
TORSDOF 6
ENDMDL
MODEL 5
REMARK VINA RESULT: -4.917026694      3.264      5.246
REMARK  6 active torsions:
REMARK  status: ('A' for Active; 'I' for Inactive)
REMARK    1  A    between atoms: S1_2  and  C2_3 
REMARK    2  A    between atoms: S1_2  and  C3_8 
REMARK    3  A    between atoms: C2_3  and  N1_4 
REMARK    4  A    between atoms: C3_8  and  C4_9 
REMARK    5  A    between atoms: C6_12  and  O2_13 
REMARK    6  A    between atoms: C7_15  and  O3_16 
ROOT
HETATM    1  C4  UNL     1     -31.445  -7.117  40.862  1.00  0.00     0.161 C 
HETATM    2  O1  UNL     1     -30.128  -6.805  40.477  1.00  0.00    -0.380 OA
HETATM    3  C5  UNL     1     -29.837  -7.720  39.464  1.00  0.00     0.202 C 
HETATM    4  C6  UNL     1     -30.326  -9.020  40.042  1.00  0.00     0.173 C 
HETATM    5  C7  UNL     1     -31.592  -8.585  40.742  1.00  0.00     0.178 C 
ENDROOT
BRANCH   1   6
HETATM    6  C3  UNL     1     -31.640  -6.510  42.207  1.00  0.00     0.099 C 
BRANCH   6   7
HETATM    7  S1  UNL     1     -30.813  -5.022  42.547  1.00  0.00    -0.196 SA
HETATM    8  C1  UNL     1     -30.735  -3.911  41.184  1.00  0.00     0.080 C 
BRANCH   7   9
HETATM    9  C2  UNL     1     -31.550  -4.228  43.953  1.00  0.00     0.293 C 
BRANCH   9  10
HETATM   10  N1  UNL     1     -30.916  -2.924  44.094  1.00  0.00    -0.072 N 
ATOM     11  H13 UNL     1     -29.948  -2.984  44.409  1.00  0.00     0.275 HD
ATOM     12  H12 UNL     1     -30.736  -2.468  43.200  1.00  0.00     0.275 HD
ATOM     13  H11 UNL     1     -31.504  -2.367  44.715  1.00  0.00     0.275 HD
ENDBRANCH   9  10
ENDBRANCH   7   9
ENDBRANCH   6   7
ENDBRANCH   1   6
BRANCH   5  14
HETATM   14  O3  UNL     1     -32.634  -8.870  39.849  1.00  0.00    -0.390 OA
ATOM     15  H3  UNL     1     -33.064  -9.673  40.119  1.00  0.00     0.210 HD
ENDBRANCH   5  14
BRANCH   4  16
HETATM   16  O2  UNL     1     -30.576  -9.937  39.028  1.00  0.00    -0.391 OA
ATOM     17  H2  UNL     1     -31.425 -10.345  39.153  1.00  0.00     0.210 HD
ENDBRANCH   4  16
TORSDOF 6
ENDMDL
