MODEL 1
REMARK VINA RESULT: -5.348073994      0.000      0.000
REMARK  4 active torsions:
REMARK  status: ('A' for Active; 'I' for Inactive)
REMARK    1  A    between atoms: N1_1  and  N2_4 
REMARK       I    between atoms: N2_4  and  C1_6 
REMARK    2  A    between atoms: N4_8  and  C2_10 
REMARK    3  A    between atoms: C2_10  and  C3_11 
REMARK    4  A    between atoms: C3_11  and  N5_12 
ROOT
HETATM    1  N2  UNL     1     -31.932  -9.471  39.904  1.00  0.00    -0.280 N 
ATOM      2  H2  UNL     1     -32.653  -9.974  39.387  1.00  0.00     0.189 HD
HETATM    3  C1  UNL     1     -32.316  -8.740  41.049  1.00  0.00     0.202 C 
HETATM    4  N3  UNL     1     -32.751  -9.437  42.197  1.00  0.00    -0.062 NA
HETATM    5  N4  UNL     1     -32.281  -7.461  41.078  1.00  0.00    -0.362 N 
ATOM      6  H4  UNL     1     -31.966  -6.960  40.248  1.00  0.00     0.162 HD
ENDROOT
BRANCH   5   7
HETATM    7  C2  UNL     1     -32.666  -6.711  42.229  1.00  0.00     0.152 C 
BRANCH   7   8
HETATM    8  C3  UNL     1     -31.561  -5.996  42.947  1.00  0.00     0.292 C 
BRANCH   8   9
HETATM    9  N5  UNL     1     -31.586  -4.576  42.873  1.00  0.00     0.094 N 
HETATM   10  C4  UNL     1     -30.905  -4.186  41.665  1.00  0.00     0.298 C 
HETATM   11  C5  UNL     1     -30.330  -2.824  41.637  1.00  0.00     0.198 C 
HETATM   12  O1  UNL     1     -29.804  -2.417  42.871  1.00  0.00    -0.388 OA
HETATM   13  C6  UNL     1     -30.890  -2.415  43.744  1.00  0.00     0.198 C 
HETATM   14  C7  UNL     1     -31.226  -3.865  44.044  1.00  0.00     0.298 C 
ENDBRANCH   8   9
ENDBRANCH   7   8
ENDBRANCH   5   7
BRANCH   1  15
HETATM   15  N1  UNL     1     -30.604  -9.540  39.438  1.00  0.00    -0.343 N 
ATOM     16  H12 UNL     1     -29.897  -9.021  39.959  1.00  0.00     0.176 HD
ATOM     17  H11 UNL     1     -30.325 -10.077  38.617  1.00  0.00     0.176 HD
ENDBRANCH   1  15
TORSDOF 4
ENDMDL
MODEL 2
REMARK VINA RESULT: -5.324658363      2.745      5.730
REMARK  4 active torsions:
REMARK  status: ('A' for Active; 'I' for Inactive)
REMARK    1  A    between atoms: N1_1  and  N2_4 
REMARK       I    between atoms: N2_4  and  C1_6 
REMARK    2  A    between atoms: N4_8  and  C2_10 
REMARK    3  A    between atoms: C2_10  and  C3_11 
REMARK    4  A    between atoms: C3_11  and  N5_12 
ROOT
HETATM    1  N2  UNL     1     -31.319  -3.107  44.186  1.00  0.00    -0.280 N 
ATOM      2  H2  UNL     1     -31.937  -2.307  44.320  1.00  0.00     0.189 HD
HETATM    3  C1  UNL     1     -30.778  -3.327  42.901  1.00  0.00     0.202 C 
HETATM    4  N3  UNL     1     -29.827  -2.417  42.389  1.00  0.00    -0.062 NA
HETATM    5  N4  UNL     1     -31.123  -4.330  42.184  1.00  0.00    -0.362 N 
ATOM      6  H4  UNL     1     -31.809  -4.985  42.555  1.00  0.00     0.162 HD
ENDROOT
BRANCH   5   7
HETATM    7  C2  UNL     1     -30.584  -4.563  40.884  1.00  0.00     0.152 C 
BRANCH   7   8
HETATM    8  C3  UNL     1     -29.870  -5.867  40.694  1.00  0.00     0.292 C 
BRANCH   8   9
HETATM    9  N5  UNL     1     -30.552  -7.025  41.158  1.00  0.00     0.094 N 
HETATM   10  C4  UNL     1     -30.428  -8.044  40.147  1.00  0.00     0.298 C 
HETATM   11  C5  UNL     1     -31.465  -9.098  40.136  1.00  0.00     0.198 C 
HETATM   12  O1  UNL     1     -32.743  -8.624  40.465  1.00  0.00    -0.388 OA
HETATM   13  C6  UNL     1     -32.624  -8.141  41.766  1.00  0.00     0.198 C 
HETATM   14  C7  UNL     1     -31.849  -6.838  41.692  1.00  0.00     0.298 C 
ENDBRANCH   8   9
ENDBRANCH   7   8
ENDBRANCH   5   7
BRANCH   1  15
HETATM   15  N1  UNL     1     -31.050  -3.936  45.293  1.00  0.00    -0.343 N 
ATOM     16  H12 UNL     1     -30.125  -4.364  45.343  1.00  0.00     0.176 HD
ATOM     17  H11 UNL     1     -31.727  -4.122  46.032  1.00  0.00     0.176 HD
ENDBRANCH   1  15
TORSDOF 4
ENDMDL
MODEL 3
REMARK VINA RESULT: -5.164727377      1.374      2.195
REMARK  4 active torsions:
REMARK  status: ('A' for Active; 'I' for Inactive)
REMARK    1  A    between atoms: N1_1  and  N2_4 
REMARK       I    between atoms: N2_4  and  C1_6 
REMARK    2  A    between atoms: N4_8  and  C2_10 
REMARK    3  A    between atoms: C2_10  and  C3_11 
REMARK    4  A    between atoms: C3_11  and  N5_12 
ROOT
HETATM    1  N2  UNL     1     -31.980  -9.343  40.177  1.00  0.00    -0.280 N 
ATOM      2  H2  UNL     1     -31.866 -10.242  40.644  1.00  0.00     0.189 HD
HETATM    3  C1  UNL     1     -30.906  -8.427  40.214  1.00  0.00     0.202 C 
HETATM    4  N3  UNL     1     -29.723  -8.725  39.505  1.00  0.00    -0.062 NA
HETATM    5  N4  UNL     1     -30.974  -7.332  40.874  1.00  0.00    -0.362 N 
ATOM      6  H4  UNL     1     -31.830  -7.119  41.385  1.00  0.00     0.162 HD
ENDROOT
BRANCH   5   7
HETATM    7  C2  UNL     1     -29.896  -6.399  40.920  1.00  0.00     0.152 C 
BRANCH   7   8
HETATM    8  C3  UNL     1     -30.258  -4.965  40.671  1.00  0.00     0.292 C 
BRANCH   8   9
HETATM    9  N5  UNL     1     -30.982  -4.316  41.708  1.00  0.00     0.094 N 
HETATM   10  C4  UNL     1     -30.369  -3.032  41.936  1.00  0.00     0.298 C 
HETATM   11  C5  UNL     1     -30.571  -2.426  43.270  1.00  0.00     0.198 C 
HETATM   12  O1  UNL     1     -30.579  -3.366  44.310  1.00  0.00    -0.388 OA
HETATM   13  C6  UNL     1     -31.664  -4.197  44.038  1.00  0.00     0.198 C 
HETATM   14  C7  UNL     1     -31.272  -5.077  42.866  1.00  0.00     0.298 C 
ENDBRANCH   8   9
ENDBRANCH   7   8
ENDBRANCH   5   7
BRANCH   1  15
HETATM   15  N1  UNL     1     -33.203  -9.078  39.527  1.00  0.00    -0.343 N 
ATOM     16  H12 UNL     1     -34.034  -8.991  40.113  1.00  0.00     0.176 HD
ATOM     17  H11 UNL     1     -33.290  -8.972  38.517  1.00  0.00     0.176 HD
ENDBRANCH   1  15
TORSDOF 4
ENDMDL
MODEL 4
REMARK VINA RESULT: -5.130653886      2.843      5.727
REMARK  4 active torsions:
REMARK  status: ('A' for Active; 'I' for Inactive)
REMARK    1  A    between atoms: N1_1  and  N2_4 
REMARK       I    between atoms: N2_4  and  C1_6 
REMARK    2  A    between atoms: N4_8  and  C2_10 
REMARK    3  A    between atoms: C2_10  and  C3_11 
REMARK    4  A    between atoms: C3_11  and  N5_12 
ROOT
HETATM    1  N2  UNL     1     -30.954  -3.327  44.408  1.00  0.00    -0.280 N 
ATOM      2  H2  UNL     1     -30.596  -3.619  45.317  1.00  0.00     0.189 HD
HETATM    3  C1  UNL     1     -31.311  -4.326  43.476  1.00  0.00     0.202 C 
HETATM    4  N3  UNL     1     -32.434  -5.141  43.736  1.00  0.00    -0.062 NA
HETATM    5  N4  UNL     1     -30.645  -4.516  42.400  1.00  0.00    -0.362 N 
ATOM      6  H4  UNL     1     -29.834  -3.926  42.214  1.00  0.00     0.162 HD
ENDROOT
BRANCH   5   7
HETATM    7  C2  UNL     1     -30.994  -5.521  41.451  1.00  0.00     0.152 C 
BRANCH   7   8
HETATM    8  C3  UNL     1     -30.089  -6.714  41.395  1.00  0.00     0.292 C 
BRANCH   8   9
HETATM    9  N5  UNL     1     -30.706  -7.977  41.612  1.00  0.00     0.094 N 
HETATM   10  C4  UNL     1     -31.024  -8.539  40.325  1.00  0.00     0.298 C 
HETATM   11  C5  UNL     1     -32.117  -9.535  40.286  1.00  0.00     0.198 C 
HETATM   12  O1  UNL     1     -33.162  -9.246  41.175  1.00  0.00    -0.388 OA
HETATM   13  C6  UNL     1     -32.581  -9.284  42.440  1.00  0.00     0.198 C 
HETATM   14  C7  UNL     1     -31.735  -8.031  42.583  1.00  0.00     0.298 C 
ENDBRANCH   8   9
ENDBRANCH   7   8
ENDBRANCH   5   7
BRANCH   1  15
HETATM   15  N1  UNL     1     -31.068  -1.947  44.146  1.00  0.00    -0.343 N 
ATOM     16  H12 UNL     1     -31.965  -1.505  44.346  1.00  0.00     0.176 HD
ATOM     17  H11 UNL     1     -30.305  -1.382  43.773  1.00  0.00     0.176 HD
ENDBRANCH   1  15
TORSDOF 4
ENDMDL
MODEL 5
REMARK VINA RESULT: -5.004598702      2.629      5.830
REMARK  4 active torsions:
REMARK  status: ('A' for Active; 'I' for Inactive)
REMARK    1  A    between atoms: N1_1  and  N2_4 
REMARK       I    between atoms: N2_4  and  C1_6 
REMARK    2  A    between atoms: N4_8  and  C2_10 
REMARK    3  A    between atoms: C2_10  and  C3_11 
REMARK    4  A    between atoms: C3_11  and  N5_12 
ROOT
HETATM    1  N2  UNL     1     -31.359  -3.133  44.172  1.00  0.00    -0.280 N 
ATOM      2  H2  UNL     1     -32.017  -2.357  44.240  1.00  0.00     0.189 HD
HETATM    3  C1  UNL     1     -30.743  -3.380  42.926  1.00  0.00     0.202 C 
HETATM    4  N3  UNL     1     -29.808  -2.449  42.423  1.00  0.00    -0.062 NA
HETATM    5  N4  UNL     1     -31.006  -4.426  42.236  1.00  0.00    -0.362 N 
ATOM      6  H4  UNL     1     -31.682  -5.097  42.602  1.00  0.00     0.162 HD
ENDROOT
BRANCH   5   7
HETATM    7  C2  UNL     1     -30.391  -4.688  40.977  1.00  0.00     0.152 C 
BRANCH   7   8
HETATM    8  C3  UNL     1     -30.137  -6.130  40.657  1.00  0.00     0.292 C 
BRANCH   8   9
HETATM    9  N5  UNL     1     -31.227  -7.018  40.869  1.00  0.00     0.094 N 
HETATM   10  C4  UNL     1     -31.598  -6.935  42.259  1.00  0.00     0.298 C 
HETATM   11  C5  UNL     1     -32.296  -8.107  42.831  1.00  0.00     0.198 C 
HETATM   12  O1  UNL     1     -31.833  -9.330  42.326  1.00  0.00    -0.388 OA
HETATM   13  C6  UNL     1     -32.104  -9.283  40.960  1.00  0.00     0.198 C 
HETATM   14  C7  UNL     1     -31.105  -8.324  40.337  1.00  0.00     0.298 C 
ENDBRANCH   8   9
ENDBRANCH   7   8
ENDBRANCH   5   7
BRANCH   1  15
HETATM   15  N1  UNL     1     -31.111  -3.902  45.326  1.00  0.00    -0.343 N 
ATOM     16  H12 UNL     1     -31.872  -4.488  45.670  1.00  0.00     0.176 HD
ATOM     17  H11 UNL     1     -30.220  -3.899  45.822  1.00  0.00     0.176 HD
ENDBRANCH   1  15
TORSDOF 4
ENDMDL
