MODEL 1
REMARK VINA RESULT: -6.110590067      0.000      0.000
REMARK  6 active torsions:
REMARK  status: ('A' for Active; 'I' for Inactive)
REMARK    1  A    between atoms: N1_1  and  C1_5 
REMARK    2  A    between atoms: C1_5  and  C2_6 
REMARK    3  A    between atoms: C2_6  and  C3_7 
REMARK    4  A    between atoms: C3_7  and  C4_8 
REMARK    5  A    between atoms: C6_12  and  O2_13 
REMARK    6  A    between atoms: C7_15  and  O3_16 
ROOT
HETATM    1  C4  UNL     1     -31.656  -5.849  41.428  1.00  0.00     0.030 C 
HETATM    2  C5  UNL     1     -30.481  -6.365  40.713  1.00  0.00     0.118 C 
HETATM    3  S1  UNL     1     -30.728  -8.121  40.616  1.00  0.00     0.047 S 
HETATM    4  O1  UNL     1     -29.945  -8.852  41.935  1.00  0.00    -0.255 OA
HETATM    5  C6  UNL     1     -32.468  -8.106  40.991  1.00  0.00     0.240 C 
HETATM    6  C7  UNL     1     -32.520  -6.939  41.940  1.00  0.00     0.164 C 
ENDROOT
BRANCH   1   7
HETATM    7  C3  UNL     1     -31.190  -5.032  42.610  1.00  0.00     0.010 C 
BRANCH   7   8
HETATM    8  C2  UNL     1     -30.665  -3.673  42.256  1.00  0.00     0.028 C 
BRANCH   8   9
HETATM    9  C1  UNL     1     -30.663  -2.861  43.551  1.00  0.00     0.229 C 
BRANCH   9  10
HETATM   10  N1  UNL     1     -31.160  -3.704  44.645  1.00  0.00    -0.079 N 
ATOM     11  H13 UNL     1     -31.536  -3.154  45.418  1.00  0.00     0.274 HD
ATOM     12  H12 UNL     1     -32.013  -4.202  44.395  1.00  0.00     0.274 HD
ATOM     13  H11 UNL     1     -30.416  -4.334  44.944  1.00  0.00     0.274 HD
ENDBRANCH   9  10
ENDBRANCH   8   9
ENDBRANCH   7   8
ENDBRANCH   1   7
BRANCH   6  14
HETATM   14  O3  UNL     1     -32.123  -7.386  43.196  1.00  0.00    -0.392 OA
ATOM     15  H3  UNL     1     -32.582  -8.173  43.463  1.00  0.00     0.210 HD
ENDBRANCH   6  14
BRANCH   5  16
HETATM   16  O2  UNL     1     -32.870  -9.267  41.614  1.00  0.00    -0.380 OA
ATOM     17  H2  UNL     1     -33.679  -9.604  41.248  1.00  0.00     0.211 HD
ENDBRANCH   5  16
TORSDOF 6
ENDMDL
MODEL 2
REMARK VINA RESULT: -5.343557031      1.262      1.310
REMARK  6 active torsions:
REMARK  status: ('A' for Active; 'I' for Inactive)
REMARK    1  A    between atoms: N1_1  and  C1_5 
REMARK    2  A    between atoms: C1_5  and  C2_6 
REMARK    3  A    between atoms: C2_6  and  C3_7 
REMARK    4  A    between atoms: C3_7  and  C4_8 
REMARK    5  A    between atoms: C6_12  and  O2_13 
REMARK    6  A    between atoms: C7_15  and  O3_16 
ROOT
HETATM    1  C4  UNL     1     -31.299  -6.113  41.242  1.00  0.00     0.030 C 
HETATM    2  C5  UNL     1     -30.743  -7.453  41.014  1.00  0.00     0.118 C 
HETATM    3  S1  UNL     1     -31.987  -8.580  41.595  1.00  0.00     0.047 S 
HETATM    4  O1  UNL     1     -31.646  -8.976  43.212  1.00  0.00    -0.255 OA
HETATM    5  C6  UNL     1     -33.328  -7.410  41.622  1.00  0.00     0.240 C 
HETATM    6  C7  UNL     1     -32.577  -6.159  41.992  1.00  0.00     0.164 C 
ENDROOT
BRANCH   1   7
HETATM    7  C3  UNL     1     -30.313  -5.305  42.054  1.00  0.00     0.010 C 
BRANCH   7   8
HETATM    8  C2  UNL     1     -30.286  -3.843  41.721  1.00  0.00     0.028 C 
BRANCH   8   9
HETATM    9  C1  UNL     1     -30.723  -3.105  42.986  1.00  0.00     0.229 C 
BRANCH   9  10
HETATM   10  N1  UNL     1     -30.649  -4.025  44.127  1.00  0.00    -0.079 N 
ATOM     11  H13 UNL     1     -30.647  -5.004  43.838  1.00  0.00     0.274 HD
ATOM     12  H12 UNL     1     -29.737  -4.008  44.581  1.00  0.00     0.274 HD
ATOM     13  H11 UNL     1     -31.408  -3.814  44.775  1.00  0.00     0.274 HD
ENDBRANCH   9  10
ENDBRANCH   8   9
ENDBRANCH   7   8
ENDBRANCH   1   7
BRANCH   6  14
HETATM   14  O3  UNL     1     -32.383  -6.164  43.370  1.00  0.00    -0.392 OA
ATOM     15  H3  UNL     1     -31.587  -6.615  43.623  1.00  0.00     0.210 HD
ENDBRANCH   6  14
BRANCH   5  16
HETATM   16  O2  UNL     1     -34.266  -7.723  42.581  1.00  0.00    -0.380 OA
ATOM     17  H2  UNL     1     -35.142  -7.472  42.316  1.00  0.00     0.211 HD
ENDBRANCH   5  16
TORSDOF 6
ENDMDL
MODEL 3
REMARK VINA RESULT: -5.225006004      1.578      2.265
REMARK  6 active torsions:
REMARK  status: ('A' for Active; 'I' for Inactive)
REMARK    1  A    between atoms: N1_1  and  C1_5 
REMARK    2  A    between atoms: C1_5  and  C2_6 
REMARK    3  A    between atoms: C2_6  and  C3_7 
REMARK    4  A    between atoms: C3_7  and  C4_8 
REMARK    5  A    between atoms: C6_12  and  O2_13 
REMARK    6  A    between atoms: C7_15  and  O3_16 
ROOT
HETATM    1  C4  UNL     1     -31.324  -6.780  42.423  1.00  0.00     0.030 C 
HETATM    2  C5  UNL     1     -32.553  -7.585  42.431  1.00  0.00     0.118 C 
HETATM    3  S1  UNL     1     -32.242  -8.922  41.304  1.00  0.00     0.047 S 
HETATM    4  O1  UNL     1     -32.827  -8.483  39.769  1.00  0.00    -0.255 OA
HETATM    5  C6  UNL     1     -30.472  -8.741  41.253  1.00  0.00     0.240 C 
HETATM    6  C7  UNL     1     -30.358  -7.248  41.403  1.00  0.00     0.164 C 
ENDROOT
BRANCH   1   7
HETATM    7  C3  UNL     1     -31.680  -5.347  42.103  1.00  0.00     0.010 C 
BRANCH   7   8
HETATM    8  C2  UNL     1     -30.543  -4.380  42.239  1.00  0.00     0.028 C 
BRANCH   8   9
HETATM    9  C1  UNL     1     -30.961  -3.369  43.306  1.00  0.00     0.229 C 
BRANCH   9  10
HETATM   10  N1  UNL     1     -31.218  -4.081  44.564  1.00  0.00    -0.079 N 
ATOM     11  H13 UNL     1     -31.032  -5.081  44.490  1.00  0.00     0.274 HD
ATOM     12  H12 UNL     1     -30.529  -3.861  45.283  1.00  0.00     0.274 HD
ATOM     13  H11 UNL     1     -32.171  -3.885  44.869  1.00  0.00     0.274 HD
ENDBRANCH   9  10
ENDBRANCH   8   9
ENDBRANCH   7   8
ENDBRANCH   1   7
BRANCH   6  14
HETATM   14  O3  UNL     1     -30.580  -6.671  40.157  1.00  0.00    -0.392 OA
ATOM     15  H3  UNL     1     -31.217  -7.153  39.642  1.00  0.00     0.210 HD
ENDBRANCH   6  14
BRANCH   5  16
HETATM   16  O2  UNL     1     -29.946  -9.158  40.050  1.00  0.00    -0.380 OA
ATOM     17  H2  UNL     1     -30.131  -8.543  39.350  1.00  0.00     0.211 HD
ENDBRANCH   5  16
TORSDOF 6
ENDMDL
MODEL 4
REMARK VINA RESULT: -5.051767890      1.826      2.506
REMARK  6 active torsions:
REMARK  status: ('A' for Active; 'I' for Inactive)
REMARK    1  A    between atoms: N1_1  and  C1_5 
REMARK    2  A    between atoms: C1_5  and  C2_6 
REMARK    3  A    between atoms: C2_6  and  C3_7 
REMARK    4  A    between atoms: C3_7  and  C4_8 
REMARK    5  A    between atoms: C6_12  and  O2_13 
REMARK    6  A    between atoms: C7_15  and  O3_16 
ROOT
HETATM    1  C4  UNL     1     -31.501  -7.049  42.558  1.00  0.00     0.030 C 
HETATM    2  C5  UNL     1     -32.684  -7.912  42.440  1.00  0.00     0.118 C 
HETATM    3  S1  UNL     1     -32.276  -9.093  41.178  1.00  0.00     0.047 S 
HETATM    4  O1  UNL     1     -32.848  -8.513  39.686  1.00  0.00    -0.255 OA
HETATM    5  C6  UNL     1     -30.518  -8.818  41.199  1.00  0.00     0.240 C 
HETATM    6  C7  UNL     1     -30.487  -7.348  41.519  1.00  0.00     0.164 C 
ENDROOT
BRANCH   1   7
HETATM    7  C3  UNL     1     -31.926  -5.609  42.391  1.00  0.00     0.010 C 
BRANCH   7   8
HETATM    8  C2  UNL     1     -31.742  -4.762  43.614  1.00  0.00     0.028 C 
BRANCH   8   9
HETATM    9  C1  UNL     1     -30.902  -3.560  43.184  1.00  0.00     0.229 C 
BRANCH   9  10
HETATM   10  N1  UNL     1     -30.397  -3.790  41.825  1.00  0.00    -0.079 N 
ATOM     11  H13 UNL     1     -30.643  -3.034  41.186  1.00  0.00     0.274 HD
ATOM     12  H12 UNL     1     -29.383  -3.702  41.768  1.00  0.00     0.274 HD
ATOM     13  H11 UNL     1     -30.727  -4.698  41.497  1.00  0.00     0.274 HD
ENDBRANCH   9  10
ENDBRANCH   8   9
ENDBRANCH   7   8
ENDBRANCH   1   7
BRANCH   6  14
HETATM   14  O3  UNL     1     -30.712  -6.645  40.341  1.00  0.00    -0.392 OA
ATOM     15  H3  UNL     1     -30.870  -7.219  39.600  1.00  0.00     0.210 HD
ENDBRANCH   6  14
BRANCH   5  16
HETATM   16  O2  UNL     1     -29.942  -9.068  39.973  1.00  0.00    -0.380 OA
ATOM     17  H2  UNL     1     -29.935  -8.295  39.421  1.00  0.00     0.211 HD
ENDBRANCH   5  16
TORSDOF 6
ENDMDL
MODEL 5
REMARK VINA RESULT: -4.970964476      3.561      4.948
REMARK  6 active torsions:
REMARK  status: ('A' for Active; 'I' for Inactive)
REMARK    1  A    between atoms: N1_1  and  C1_5 
REMARK    2  A    between atoms: C1_5  and  C2_6 
REMARK    3  A    between atoms: C2_6  and  C3_7 
REMARK    4  A    between atoms: C3_7  and  C4_8 
REMARK    5  A    between atoms: C6_12  and  O2_13 
REMARK    6  A    between atoms: C7_15  and  O3_16 
ROOT
HETATM    1  C4  UNL     1     -31.250  -6.087  41.489  1.00  0.00     0.030 C 
HETATM    2  C5  UNL     1     -31.905  -5.855  42.783  1.00  0.00     0.118 C 
HETATM    3  S1  UNL     1     -31.466  -4.195  43.237  1.00  0.00     0.047 S 
HETATM    4  O1  UNL     1     -30.081  -4.250  44.220  1.00  0.00    -0.255 OA
HETATM    5  C6  UNL     1     -30.932  -3.673  41.621  1.00  0.00     0.240 C 
HETATM    6  C7  UNL     1     -30.359  -4.966  41.106  1.00  0.00     0.164 C 
ENDROOT
BRANCH   1   7
HETATM    7  C3  UNL     1     -30.408  -7.338  41.583  1.00  0.00     0.010 C 
BRANCH   7   8
HETATM    8  C2  UNL     1     -31.192  -8.616  41.566  1.00  0.00     0.028 C 
BRANCH   8   9
HETATM    9  C1  UNL     1     -31.415  -8.964  40.095  1.00  0.00     0.229 C 
BRANCH   9  10
HETATM   10  N1  UNL     1     -32.850  -9.170  39.864  1.00  0.00    -0.079 N 
ATOM     11  H13 UNL     1     -33.199 -10.015  40.317  1.00  0.00     0.274 HD
ATOM     12  H12 UNL     1     -33.425  -8.492  40.363  1.00  0.00     0.274 HD
ATOM     13  H11 UNL     1     -33.030  -9.166  38.860  1.00  0.00     0.274 HD
ENDBRANCH   9  10
ENDBRANCH   8   9
ENDBRANCH   7   8
ENDBRANCH   1   7
BRANCH   6  14
HETATM   14  O3  UNL     1     -29.076  -5.107  41.625  1.00  0.00    -0.392 OA
ATOM     15  H3  UNL     1     -28.507  -4.385  41.387  1.00  0.00     0.210 HD
ENDBRANCH   6  14
BRANCH   5  16
HETATM   16  O2  UNL     1     -29.963  -2.697  41.689  1.00  0.00    -0.380 OA
ATOM     17  H2  UNL     1     -30.327  -1.827  41.581  1.00  0.00     0.211 HD
ENDBRANCH   5  16
TORSDOF 6
ENDMDL
