MODEL 1
REMARK VINA RESULT: -6.799064810      0.000      0.000
REMARK  4 active torsions:
REMARK  status: ('A' for Active; 'I' for Inactive)
REMARK    1  A    between atoms: N1_1  and  C1_5 
REMARK    2  A    between atoms: C3_7  and  N2_8 
REMARK    3  A    between atoms: C4_12  and  N3_13 
REMARK    4  A    between atoms: N3_13  and  S1_15 
ROOT
HETATM    1  C1  UNL     1     -31.503  -4.257  43.058  1.00  0.00     0.187 C 
HETATM    2  C2  UNL     1     -30.621  -3.955  41.882  1.00  0.00     0.067 C 
HETATM    3  C3  UNL     1     -30.138  -5.311  41.389  1.00  0.00     0.208 C 
HETATM    4  C4  UNL     1     -31.379  -6.158  41.639  1.00  0.00     0.128 C 
HETATM    5  C5  UNL     1     -31.765  -5.757  43.036  1.00  0.00     0.060 C 
ENDROOT
BRANCH   4   6
HETATM    6  N3  UNL     1     -31.143  -7.557  41.476  1.00  0.00    -0.294 N 
ATOM      7  H3  UNL     1     -30.239  -8.025  41.530  1.00  0.00     0.175 HD
BRANCH   6   8
HETATM    8  S1  UNL     1     -32.669  -8.319  41.169  1.00  0.00     0.204 S 
HETATM    9  O1  UNL     1     -32.628  -9.075  39.893  1.00  0.00    -0.578 OA
HETATM   10  O2  UNL     1     -33.719  -7.226  41.035  1.00  0.00    -0.578 OA
HETATM   11  O3  UNL     1     -33.121  -9.257  42.475  1.00  0.00    -0.578 OA
ENDBRANCH   6   8
ENDBRANCH   4   6
BRANCH   3  12
HETATM   12  N2  UNL     1     -29.004  -5.791  42.144  1.00  0.00    -0.073 N 
ATOM     13  H23 UNL     1     -28.361  -6.317  41.552  1.00  0.00     0.274 HD
ATOM     14  H22 UNL     1     -28.386  -5.025  42.412  1.00  0.00     0.274 HD
ATOM     15  H21 UNL     1     -29.287  -6.337  42.958  1.00  0.00     0.274 HD
ENDBRANCH   3  12
BRANCH   1  16
HETATM   16  N1  UNL     1     -30.820  -3.911  44.278  1.00  0.00    -0.075 N 
ATOM     17  H13 UNL     1     -30.032  -4.530  44.466  1.00  0.00     0.274 HD
ATOM     18  H12 UNL     1     -30.302  -3.036  44.194  1.00  0.00     0.274 HD
ATOM     19  H11 UNL     1     -31.486  -3.891  45.050  1.00  0.00     0.274 HD
ENDBRANCH   1  16
TORSDOF 4
ENDMDL
MODEL 2
REMARK VINA RESULT: -6.672347900      0.089      1.262
REMARK  4 active torsions:
REMARK  status: ('A' for Active; 'I' for Inactive)
REMARK    1  A    between atoms: N1_1  and  C1_5 
REMARK    2  A    between atoms: C3_7  and  N2_8 
REMARK    3  A    between atoms: C4_12  and  N3_13 
REMARK    4  A    between atoms: N3_13  and  S1_15 
ROOT
HETATM    1  C1  UNL     1     -31.470  -4.247  43.029  1.00  0.00     0.187 C 
HETATM    2  C2  UNL     1     -30.557  -3.964  41.872  1.00  0.00     0.067 C 
HETATM    3  C3  UNL     1     -30.086  -5.330  41.395  1.00  0.00     0.208 C 
HETATM    4  C4  UNL     1     -31.346  -6.155  41.619  1.00  0.00     0.128 C 
HETATM    5  C5  UNL     1     -31.757  -5.743  43.006  1.00  0.00     0.060 C 
ENDROOT
BRANCH   4   6
HETATM    6  N3  UNL     1     -31.131  -7.559  41.466  1.00  0.00    -0.294 N 
ATOM      7  H3  UNL     1     -30.230  -8.036  41.500  1.00  0.00     0.175 HD
BRANCH   6   8
HETATM    8  S1  UNL     1     -32.672  -8.308  41.211  1.00  0.00     0.204 S 
HETATM    9  O1  UNL     1     -32.974  -9.267  42.302  1.00  0.00    -0.578 OA
HETATM   10  O2  UNL     1     -32.604  -9.086  39.905  1.00  0.00    -0.578 OA
HETATM   11  O3  UNL     1     -33.855  -7.145  41.012  1.00  0.00    -0.578 OA
ENDBRANCH   6   8
ENDBRANCH   4   6
BRANCH   3  12
HETATM   12  N2  UNL     1     -28.977  -5.827  42.177  1.00  0.00    -0.073 N 
ATOM     13  H23 UNL     1     -29.063  -5.553  43.155  1.00  0.00     0.274 HD
ATOM     14  H22 UNL     1     -29.027  -6.840  42.287  1.00  0.00     0.274 HD
ATOM     15  H21 UNL     1     -28.077  -5.541  41.791  1.00  0.00     0.274 HD
ENDBRANCH   3  12
BRANCH   1  16
HETATM   16  N1  UNL     1     -30.809  -3.909  44.263  1.00  0.00    -0.075 N 
ATOM     17  H13 UNL     1     -29.949  -4.440  44.396  1.00  0.00     0.274 HD
ATOM     18  H12 UNL     1     -30.401  -2.974  44.236  1.00  0.00     0.274 HD
ATOM     19  H11 UNL     1     -31.456  -4.023  45.042  1.00  0.00     0.274 HD
ENDBRANCH   1  16
TORSDOF 4
ENDMDL
MODEL 3
REMARK VINA RESULT: -6.482541745      0.310      1.295
REMARK  4 active torsions:
REMARK  status: ('A' for Active; 'I' for Inactive)
REMARK    1  A    between atoms: N1_1  and  C1_5 
REMARK    2  A    between atoms: C3_7  and  N2_8 
REMARK    3  A    between atoms: C4_12  and  N3_13 
REMARK    4  A    between atoms: N3_13  and  S1_15 
ROOT
HETATM    1  C1  UNL     1     -31.345  -4.035  42.936  1.00  0.00     0.187 C 
HETATM    2  C2  UNL     1     -30.548  -3.988  41.665  1.00  0.00     0.067 C 
HETATM    3  C3  UNL     1     -30.147  -5.430  41.395  1.00  0.00     0.208 C 
HETATM    4  C4  UNL     1     -31.389  -6.163  41.883  1.00  0.00     0.128 C 
HETATM    5  C5  UNL     1     -31.653  -5.501  43.207  1.00  0.00     0.060 C 
ENDROOT
BRANCH   4   6
HETATM    6  N3  UNL     1     -31.210  -7.578  41.961  1.00  0.00    -0.294 N 
ATOM      7  H3  UNL     1     -30.403  -8.060  42.357  1.00  0.00     0.175 HD
BRANCH   6   8
HETATM    8  S1  UNL     1     -32.606  -8.329  41.263  1.00  0.00     0.204 S 
HETATM    9  O1  UNL     1     -33.668  -7.325  41.011  1.00  0.00    -0.578 OA
HETATM   10  O2  UNL     1     -33.143  -9.341  42.265  1.00  0.00    -0.578 OA
HETATM   11  O3  UNL     1     -32.179  -9.191  39.897  1.00  0.00    -0.578 OA
ENDBRANCH   6   8
ENDBRANCH   4   6
BRANCH   3  12
HETATM   12  N2  UNL     1     -28.972  -5.816  42.142  1.00  0.00    -0.073 N 
ATOM     13  H23 UNL     1     -28.517  -6.626  41.722  1.00  0.00     0.274 HD
ATOM     14  H22 UNL     1     -28.221  -5.134  42.030  1.00  0.00     0.274 HD
ATOM     15  H21 UNL     1     -29.179  -5.978  43.127  1.00  0.00     0.274 HD
ENDBRANCH   3  12
BRANCH   1  16
HETATM   16  N1  UNL     1     -30.558  -3.506  44.021  1.00  0.00    -0.075 N 
ATOM     17  H13 UNL     1     -29.838  -4.159  44.327  1.00  0.00     0.274 HD
ATOM     18  H12 UNL     1     -29.948  -2.746  43.718  1.00  0.00     0.274 HD
ATOM     19  H11 UNL     1     -31.172  -3.224  44.785  1.00  0.00     0.274 HD
ENDBRANCH   1  16
TORSDOF 4
ENDMDL
MODEL 4
REMARK VINA RESULT: -5.988276205      1.199      1.278
REMARK  4 active torsions:
REMARK  status: ('A' for Active; 'I' for Inactive)
REMARK    1  A    between atoms: N1_1  and  C1_5 
REMARK    2  A    between atoms: C3_7  and  N2_8 
REMARK    3  A    between atoms: C4_12  and  N3_13 
REMARK    4  A    between atoms: N3_13  and  S1_15 
ROOT
HETATM    1  C1  UNL     1     -31.109  -3.481  42.629  1.00  0.00     0.187 C 
HETATM    2  C2  UNL     1     -30.646  -4.139  41.361  1.00  0.00     0.067 C 
HETATM    3  C3  UNL     1     -30.605  -5.627  41.678  1.00  0.00     0.208 C 
HETATM    4  C4  UNL     1     -31.812  -5.750  42.599  1.00  0.00     0.128 C 
HETATM    5  C5  UNL     1     -31.619  -4.591  43.538  1.00  0.00     0.060 C 
ENDROOT
BRANCH   4   6
HETATM    6  N3  UNL     1     -31.894  -7.021  43.247  1.00  0.00    -0.294 N 
ATOM      7  H3  UNL     1     -31.842  -7.187  44.252  1.00  0.00     0.175 HD
BRANCH   6   8
HETATM    8  S1  UNL     1     -32.096  -8.229  42.022  1.00  0.00     0.204 S 
HETATM    9  O1  UNL     1     -30.787  -8.597  41.430  1.00  0.00    -0.578 OA
HETATM   10  O2  UNL     1     -32.961  -7.635  40.919  1.00  0.00    -0.578 OA
HETATM   11  O3  UNL     1     -32.934  -9.538  42.632  1.00  0.00    -0.578 OA
ENDBRANCH   6   8
ENDBRANCH   4   6
BRANCH   3  12
HETATM   12  N2  UNL     1     -29.383  -6.006  42.347  1.00  0.00    -0.073 N 
ATOM     13  H23 UNL     1     -29.273  -7.020  42.370  1.00  0.00     0.274 HD
ATOM     14  H22 UNL     1     -28.564  -5.769  41.786  1.00  0.00     0.274 HD
ATOM     15  H21 UNL     1     -29.316  -5.606  43.283  1.00  0.00     0.274 HD
ENDBRANCH   3  12
BRANCH   1  16
HETATM   16  N1  UNL     1     -29.999  -2.818  43.263  1.00  0.00    -0.075 N 
ATOM     17  H13 UNL     1     -30.277  -1.941  43.703  1.00  0.00     0.274 HD
ATOM     18  H12 UNL     1     -29.685  -3.309  44.101  1.00  0.00     0.274 HD
ATOM     19  H11 UNL     1     -29.245  -2.688  42.589  1.00  0.00     0.274 HD
ENDBRANCH   1  16
TORSDOF 4
ENDMDL
MODEL 5
REMARK VINA RESULT: -5.954236606      3.508      4.694
REMARK  4 active torsions:
REMARK  status: ('A' for Active; 'I' for Inactive)
REMARK    1  A    between atoms: N1_1  and  C1_5 
REMARK    2  A    between atoms: C3_7  and  N2_8 
REMARK    3  A    between atoms: C4_12  and  N3_13 
REMARK    4  A    between atoms: N3_13  and  S1_15 
ROOT
HETATM    1  C1  UNL     1     -32.197  -9.248  41.968  1.00  0.00     0.187 C 
HETATM    2  C2  UNL     1     -32.419  -8.548  40.659  1.00  0.00     0.067 C 
HETATM    3  C3  UNL     1     -32.633  -7.086  41.022  1.00  0.00     0.208 C 
HETATM    4  C4  UNL     1     -31.667  -6.944  42.191  1.00  0.00     0.128 C 
HETATM    5  C5  UNL     1     -31.977  -8.163  43.014  1.00  0.00     0.060 C 
ENDROOT
BRANCH   4   6
HETATM    6  N3  UNL     1     -31.818  -5.709  42.894  1.00  0.00    -0.294 N 
ATOM      7  H3  UNL     1     -32.567  -5.476  43.545  1.00  0.00     0.175 HD
BRANCH   6   8
HETATM    8  S1  UNL     1     -30.501  -4.677  42.443  1.00  0.00     0.204 S 
HETATM    9  O1  UNL     1     -30.235  -3.676  43.505  1.00  0.00    -0.578 OA
HETATM   10  O2  UNL     1     -30.905  -3.929  41.180  1.00  0.00    -0.578 OA
HETATM   11  O3  UNL     1     -29.159  -5.590  42.048  1.00  0.00    -0.578 OA
ENDBRANCH   6   8
ENDBRANCH   4   6
BRANCH   3  12
HETATM   12  N2  UNL     1     -33.995  -6.819  41.421  1.00  0.00    -0.073 N 
ATOM     13  H23 UNL     1     -34.431  -7.646  41.827  1.00  0.00     0.274 HD
ATOM     14  H22 UNL     1     -34.029  -6.203  42.234  1.00  0.00     0.274 HD
ATOM     15  H21 UNL     1     -34.554  -6.446  40.653  1.00  0.00     0.274 HD
ENDBRANCH   3  12
BRANCH   1  16
HETATM   16  N1  UNL     1     -33.368 -10.012  42.314  1.00  0.00    -0.075 N 
ATOM     17  H13 UNL     1     -33.193 -11.016  42.290  1.00  0.00     0.274 HD
ATOM     18  H12 UNL     1     -33.604  -9.927  43.303  1.00  0.00     0.274 HD
ATOM     19  H11 UNL     1     -34.144  -9.743  41.709  1.00  0.00     0.274 HD
ENDBRANCH   1  16
TORSDOF 4
ENDMDL
