MODEL 1
REMARK VINA RESULT: -6.332510866      0.000      0.000
REMARK  5 active torsions:
REMARK  status: ('A' for Active; 'I' for Inactive)
REMARK    1  A    between atoms: N1_2  and  C2_5 
REMARK    2  A    between atoms: C3_7  and  C4_8 
REMARK    3  A    between atoms: C4_8  and  S1_9 
REMARK    4  A    between atoms: S1_9  and  N2_10 
REMARK    5  A    between atoms: C6_15  and  N3_16 
ROOT
HETATM    1  C2  UNL     1     -31.577  -8.267  41.763  1.00  0.00     0.351 C 
HETATM    2  O1  UNL     1     -30.751  -7.209  41.426  1.00  0.00    -0.351 OA
HETATM    3  C3  UNL     1     -31.268  -6.036  41.891  1.00  0.00     0.139 C 
HETATM    4  C5  UNL     1     -32.219  -6.441  43.004  1.00  0.00     0.070 C 
HETATM    5  C6  UNL     1     -32.874  -7.634  42.287  1.00  0.00     0.242 C 
ENDROOT
BRANCH   3   6
HETATM    6  C4  UNL     1     -30.256  -5.020  42.305  1.00  0.00     0.163 C 
BRANCH   6   7
HETATM    7  S1  UNL     1     -30.939  -3.569  43.027  1.00  0.00     0.110 S 
HETATM    8  O2  UNL     1     -29.891  -2.286  42.642  1.00  0.00    -0.236 OA
BRANCH   7   9
HETATM    9  N2  UNL     1     -31.054  -3.730  44.746  1.00  0.00    -0.350 NA
ATOM     10  H22 UNL     1     -32.014  -3.955  45.006  1.00  0.00     0.166 HD
ATOM     11  H21 UNL     1     -30.820  -2.852  45.211  1.00  0.00     0.166 HD
ENDBRANCH   7   9
ENDBRANCH   6   7
ENDBRANCH   3   6
BRANCH   1  12
HETATM   12  N1  UNL     1     -31.907  -9.093  40.646  1.00  0.00    -0.051 N 
HETATM   13  C1  UNL     1     -30.825  -9.174  39.707  1.00  0.00     0.270 C 
ATOM     14  H12 UNL     1     -32.768  -8.783  40.196  1.00  0.00     0.279 HD
ATOM     15  H11 UNL     1     -32.210 -10.020  40.947  1.00  0.00     0.279 HD
ENDBRANCH   1  12
BRANCH   5  16
HETATM   16  N3  UNL     1     -33.604  -7.215  41.127  1.00  0.00    -0.071 N 
ATOM     17  H33 UNL     1     -34.033  -7.986  40.615  1.00  0.00     0.274 HD
ATOM     18  H32 UNL     1     -34.468  -6.719  41.345  1.00  0.00     0.274 HD
ATOM     19  H31 UNL     1     -32.950  -6.669  40.567  1.00  0.00     0.274 HD
ENDBRANCH   5  16
TORSDOF 5
ENDMDL
MODEL 2
REMARK VINA RESULT: -5.675670699      1.473      2.169
REMARK  5 active torsions:
REMARK  status: ('A' for Active; 'I' for Inactive)
REMARK    1  A    between atoms: N1_2  and  C2_5 
REMARK    2  A    between atoms: C3_7  and  C4_8 
REMARK    3  A    between atoms: C4_8  and  S1_9 
REMARK    4  A    between atoms: S1_9  and  N2_10 
REMARK    5  A    between atoms: C6_15  and  N3_16 
ROOT
HETATM    1  C2  UNL     1     -32.073  -7.454  41.914  1.00  0.00     0.351 C 
HETATM    2  O1  UNL     1     -31.677  -6.208  42.368  1.00  0.00    -0.351 OA
HETATM    3  C3  UNL     1     -30.528  -5.819  41.746  1.00  0.00     0.139 C 
HETATM    4  C5  UNL     1     -30.470  -6.649  40.475  1.00  0.00     0.070 C 
HETATM    5  C6  UNL     1     -30.894  -7.993  41.092  1.00  0.00     0.242 C 
ENDROOT
BRANCH   3   6
HETATM    6  C4  UNL     1     -30.404  -4.349  41.511  1.00  0.00     0.163 C 
BRANCH   6   7
HETATM    7  S1  UNL     1     -30.892  -3.353  42.875  1.00  0.00     0.110 S 
HETATM    8  O2  UNL     1     -29.696  -2.160  43.068  1.00  0.00    -0.236 OA
BRANCH   7   9
HETATM    9  N2  UNL     1     -31.010  -4.298  44.320  1.00  0.00    -0.350 NA
ATOM     10  H22 UNL     1     -30.358  -5.081  44.272  1.00  0.00     0.166 HD
ATOM     11  H21 UNL     1     -31.944  -4.697  44.419  1.00  0.00     0.166 HD
ENDBRANCH   7   9
ENDBRANCH   6   7
ENDBRANCH   3   6
BRANCH   1  12
HETATM   12  N1  UNL     1     -32.334  -8.376  42.972  1.00  0.00    -0.051 N 
HETATM   13  C1  UNL     1     -33.119  -9.491  42.523  1.00  0.00     0.270 C 
ATOM     14  H12 UNL     1     -32.768  -7.913  43.770  1.00  0.00     0.279 HD
ATOM     15  H11 UNL     1     -31.470  -8.686  43.418  1.00  0.00     0.279 HD
ENDBRANCH   1  12
BRANCH   5  16
HETATM   16  N3  UNL     1     -29.932  -8.462  42.046  1.00  0.00    -0.071 N 
ATOM     17  H33 UNL     1     -29.502  -7.715  42.591  1.00  0.00     0.274 HD
ATOM     18  H32 UNL     1     -30.348  -8.963  42.831  1.00  0.00     0.274 HD
ATOM     19  H31 UNL     1     -29.261  -9.018  41.516  1.00  0.00     0.274 HD
ENDBRANCH   5  16
TORSDOF 5
ENDMDL
MODEL 3
REMARK VINA RESULT: -5.523348668      1.692      1.876
REMARK  5 active torsions:
REMARK  status: ('A' for Active; 'I' for Inactive)
REMARK    1  A    between atoms: N1_2  and  C2_5 
REMARK    2  A    between atoms: C3_7  and  C4_8 
REMARK    3  A    between atoms: C4_8  and  S1_9 
REMARK    4  A    between atoms: S1_9  and  N2_10 
REMARK    5  A    between atoms: C6_15  and  N3_16 
ROOT
HETATM    1  C2  UNL     1     -30.965  -8.907  40.883  1.00  0.00     0.351 C 
HETATM    2  O1  UNL     1     -30.729  -7.546  40.966  1.00  0.00    -0.351 OA
HETATM    3  C3  UNL     1     -31.833  -6.901  41.440  1.00  0.00     0.139 C 
HETATM    4  C5  UNL     1     -32.636  -7.973  42.157  1.00  0.00     0.070 C 
HETATM    5  C6  UNL     1     -32.474  -9.085  41.106  1.00  0.00     0.242 C 
ENDROOT
BRANCH   3   6
HETATM    6  C4  UNL     1     -31.551  -5.699  42.279  1.00  0.00     0.163 C 
BRANCH   6   7
HETATM    7  S1  UNL     1     -30.470  -4.531  41.532  1.00  0.00     0.110 S 
HETATM    8  O2  UNL     1     -28.946  -5.275  41.412  1.00  0.00    -0.236 OA
BRANCH   7   9
HETATM    9  N2  UNL     1     -30.345  -3.099  42.496  1.00  0.00    -0.350 NA
ATOM     10  H22 UNL     1     -29.755  -3.282  43.307  1.00  0.00     0.166 HD
ATOM     11  H21 UNL     1     -31.259  -2.817  42.851  1.00  0.00     0.166 HD
ENDBRANCH   7   9
ENDBRANCH   6   7
ENDBRANCH   3   6
BRANCH   1  12
HETATM   12  N1  UNL     1     -30.639  -9.452  39.605  1.00  0.00    -0.051 N 
HETATM   13  C1  UNL     1     -29.472  -8.832  39.045  1.00  0.00     0.270 C 
ATOM     14  H12 UNL     1     -31.431  -9.400  38.966  1.00  0.00     0.279 HD
ATOM     15  H11 UNL     1     -30.536 -10.467  39.649  1.00  0.00     0.279 HD
ENDBRANCH   1  12
BRANCH   5  16
HETATM   16  N3  UNL     1     -33.098  -8.732  39.865  1.00  0.00    -0.071 N 
ATOM     17  H33 UNL     1     -33.769  -9.425  39.535  1.00  0.00     0.274 HD
ATOM     18  H32 UNL     1     -33.755  -7.955  39.945  1.00  0.00     0.274 HD
ATOM     19  H31 UNL     1     -32.337  -8.556  39.209  1.00  0.00     0.274 HD
ENDBRANCH   5  16
TORSDOF 5
ENDMDL
MODEL 4
REMARK VINA RESULT: -5.350872495      2.682      5.060
REMARK  5 active torsions:
REMARK  status: ('A' for Active; 'I' for Inactive)
REMARK    1  A    between atoms: N1_2  and  C2_5 
REMARK    2  A    between atoms: C3_7  and  C4_8 
REMARK    3  A    between atoms: C4_8  and  S1_9 
REMARK    4  A    between atoms: S1_9  and  N2_10 
REMARK    5  A    between atoms: C6_15  and  N3_16 
ROOT
HETATM    1  C2  UNL     1     -30.645  -5.076  42.180  1.00  0.00     0.351 C 
HETATM    2  O1  UNL     1     -30.060  -6.328  42.234  1.00  0.00    -0.351 OA
HETATM    3  C3  UNL     1     -31.017  -7.299  42.247  1.00  0.00     0.139 C 
HETATM    4  C5  UNL     1     -32.257  -6.634  41.674  1.00  0.00     0.070 C 
HETATM    5  C6  UNL     1     -32.142  -5.301  42.434  1.00  0.00     0.242 C 
ENDROOT
BRANCH   3   6
HETATM    6  C4  UNL     1     -30.641  -8.568  41.556  1.00  0.00     0.163 C 
BRANCH   6   7
HETATM    7  S1  UNL     1     -31.366  -8.770  39.967  1.00  0.00     0.110 S 
HETATM    8  O2  UNL     1     -32.805  -9.649  40.190  1.00  0.00    -0.236 OA
BRANCH   7   9
HETATM    9  N2  UNL     1     -30.309  -9.642  38.911  1.00  0.00    -0.350 NA
ATOM     10  H22 UNL     1     -29.562  -9.028  38.588  1.00  0.00     0.166 HD
ATOM     11  H21 UNL     1     -30.807  -9.965  38.081  1.00  0.00     0.166 HD
ENDBRANCH   7   9
ENDBRANCH   6   7
ENDBRANCH   3   6
BRANCH   1  12
HETATM   12  N1  UNL     1     -30.154  -4.188  43.185  1.00  0.00    -0.051 N 
HETATM   13  C1  UNL     1     -30.444  -2.818  42.870  1.00  0.00     0.270 C 
ATOM     14  H12 UNL     1     -29.158  -4.328  43.351  1.00  0.00     0.279 HD
ATOM     15  H11 UNL     1     -30.507  -4.440  44.108  1.00  0.00     0.279 HD
ENDBRANCH   1  12
BRANCH   5  16
HETATM   16  N3  UNL     1     -32.277  -5.487  43.848  1.00  0.00    -0.071 N 
ATOM     17  H33 UNL     1     -32.128  -6.450  44.149  1.00  0.00     0.274 HD
ATOM     18  H32 UNL     1     -31.518  -5.071  44.388  1.00  0.00     0.274 HD
ATOM     19  H31 UNL     1     -33.198  -5.122  44.091  1.00  0.00     0.274 HD
ENDBRANCH   5  16
TORSDOF 5
ENDMDL
MODEL 5
REMARK VINA RESULT: -5.328508017      2.748      5.081
REMARK  5 active torsions:
REMARK  status: ('A' for Active; 'I' for Inactive)
REMARK    1  A    between atoms: N1_2  and  C2_5 
REMARK    2  A    between atoms: C3_7  and  C4_8 
REMARK    3  A    between atoms: C4_8  and  S1_9 
REMARK    4  A    between atoms: S1_9  and  N2_10 
REMARK    5  A    between atoms: C6_15  and  N3_16 
ROOT
HETATM    1  C2  UNL     1     -30.414  -4.640  42.603  1.00  0.00     0.351 C 
HETATM    2  O1  UNL     1     -31.685  -5.157  42.785  1.00  0.00    -0.351 OA
HETATM    3  C3  UNL     1     -31.963  -6.080  41.820  1.00  0.00     0.139 C 
HETATM    4  C5  UNL     1     -30.607  -6.521  41.297  1.00  0.00     0.070 C 
HETATM    5  C6  UNL     1     -29.955  -5.130  41.223  1.00  0.00     0.242 C 
ENDROOT
BRANCH   3   6
HETATM    6  C4  UNL     1     -32.836  -7.209  42.259  1.00  0.00     0.163 C 
BRANCH   6   7
HETATM    7  S1  UNL     1     -32.159  -8.805  41.963  1.00  0.00     0.110 S 
HETATM    8  O2  UNL     1     -32.972  -9.443  40.612  1.00  0.00    -0.236 OA
BRANCH   7   9
HETATM    9  N2  UNL     1     -32.398  -9.841  43.329  1.00  0.00    -0.350 NA
ATOM     10  H22 UNL     1     -33.289 -10.327  43.239  1.00  0.00     0.166 HD
ATOM     11  H21 UNL     1     -32.441  -9.301  44.193  1.00  0.00     0.166 HD
ENDBRANCH   7   9
ENDBRANCH   6   7
ENDBRANCH   3   6
BRANCH   1  12
HETATM   12  N1  UNL     1     -30.390  -3.212  42.597  1.00  0.00    -0.051 N 
HETATM   13  C1  UNL     1     -30.874  -2.667  43.833  1.00  0.00     0.270 C 
ATOM     14  H12 UNL     1     -30.900  -2.836  41.799  1.00  0.00     0.279 HD
ATOM     15  H11 UNL     1     -29.459  -2.857  42.373  1.00  0.00     0.279 HD
ENDBRANCH   1  12
BRANCH   5  16
HETATM   16  N3  UNL     1     -30.615  -4.289  40.268  1.00  0.00    -0.071 N 
ATOM     17  H33 UNL     1     -31.350  -3.710  40.674  1.00  0.00     0.274 HD
ATOM     18  H32 UNL     1     -30.032  -3.525  39.926  1.00  0.00     0.274 HD
ATOM     19  H31 UNL     1     -30.947  -4.911  39.530  1.00  0.00     0.274 HD
ENDBRANCH   5  16
TORSDOF 5
ENDMDL
