MODEL 1
REMARK VINA RESULT: -6.769398342      0.000      0.000
REMARK  6 active torsions:
REMARK  status: ('A' for Active; 'I' for Inactive)
REMARK    1  A    between atoms: N1_1  and  S1_4 
REMARK    2  A    between atoms: S1_4  and  C1_6 
REMARK    3  A    between atoms: C1_6  and  C2_7 
REMARK    4  A    between atoms: C2_7  and  C3_8 
REMARK    5  A    between atoms: C6_11  and  O2_12 
REMARK    6  A    between atoms: C7_14  and  O3_15 
ROOT
HETATM    1  C3  UNL     1     -30.958  -7.251  42.023  1.00  0.00     0.040 C 
HETATM    2  C4  UNL     1     -32.364  -7.188  42.498  1.00  0.00    -0.021 C 
HETATM    3  C5  UNL     1     -33.173  -7.818  41.668  1.00  0.00     0.003 C 
HETATM    4  C6  UNL     1     -32.369  -8.361  40.554  1.00  0.00     0.170 C 
HETATM    5  C7  UNL     1     -31.004  -8.531  41.172  1.00  0.00     0.158 C 
ENDROOT
BRANCH   1   6
HETATM    6  C2  UNL     1     -30.610  -6.042  41.181  1.00  0.00     0.025 C 
BRANCH   6   7
HETATM    7  C1  UNL     1     -29.792  -5.120  42.059  1.00  0.00     0.132 C 
BRANCH   7   8
HETATM    8  S1  UNL     1     -30.746  -3.757  42.661  1.00  0.00     0.107 S 
HETATM    9  O1  UNL     1     -29.902  -2.309  42.535  1.00  0.00    -0.236 OA
BRANCH   8  10
HETATM   10  N1  UNL     1     -31.131  -4.097  44.322  1.00  0.00    -0.350 NA
ATOM     11  H12 UNL     1     -32.142  -4.228  44.375  1.00  0.00     0.166 HD
ATOM     12  H11 UNL     1     -30.629  -4.925  44.644  1.00  0.00     0.166 HD
ENDBRANCH   8  10
ENDBRANCH   7   8
ENDBRANCH   6   7
ENDBRANCH   1   6
BRANCH   5  13
HETATM   13  O3  UNL     1     -29.983  -8.544  40.232  1.00  0.00    -0.392 OA
ATOM     14  H3  UNL     1     -30.200  -8.003  39.482  1.00  0.00     0.210 HD
ENDBRANCH   5  13
BRANCH   4  15
HETATM   15  O2  UNL     1     -32.883  -9.568  40.083  1.00  0.00    -0.389 OA
ATOM     16  H2  UNL     1     -32.281 -10.288  40.224  1.00  0.00     0.210 HD
ENDBRANCH   4  15
TORSDOF 6
ENDMDL
MODEL 2
REMARK VINA RESULT: -6.661809950      3.068      5.034
REMARK  6 active torsions:
REMARK  status: ('A' for Active; 'I' for Inactive)
REMARK    1  A    between atoms: N1_1  and  S1_4 
REMARK    2  A    between atoms: S1_4  and  C1_6 
REMARK    3  A    between atoms: C1_6  and  C2_7 
REMARK    4  A    between atoms: C2_7  and  C3_8 
REMARK    5  A    between atoms: C6_11  and  O2_12 
REMARK    6  A    between atoms: C7_14  and  O3_15 
ROOT
HETATM    1  C3  UNL     1     -31.408  -6.010  41.625  1.00  0.00     0.040 C 
HETATM    2  C4  UNL     1     -31.990  -5.507  42.895  1.00  0.00    -0.021 C 
HETATM    3  C5  UNL     1     -31.369  -4.417  43.302  1.00  0.00     0.003 C 
HETATM    4  C6  UNL     1     -30.305  -4.094  42.329  1.00  0.00     0.170 C 
HETATM    5  C7  UNL     1     -30.815  -4.712  41.051  1.00  0.00     0.158 C 
ENDROOT
BRANCH   1   6
HETATM    6  C2  UNL     1     -30.328  -7.038  41.886  1.00  0.00     0.025 C 
BRANCH   6   7
HETATM    7  C1  UNL     1     -30.980  -8.398  41.754  1.00  0.00     0.132 C 
BRANCH   7   8
HETATM    8  S1  UNL     1     -31.587  -8.687  40.118  1.00  0.00     0.107 S 
HETATM    9  O1  UNL     1     -33.007  -9.586  40.136  1.00  0.00    -0.236 OA
BRANCH   8  10
HETATM   10  N1  UNL     1     -30.339  -9.533  39.252  1.00  0.00    -0.350 NA
ATOM     11  H12 UNL     1     -30.205  -9.045  38.365  1.00  0.00     0.166 HD
ATOM     12  H11 UNL     1     -29.477  -9.559  39.799  1.00  0.00     0.166 HD
ENDBRANCH   8  10
ENDBRANCH   7   8
ENDBRANCH   6   7
ENDBRANCH   1   6
BRANCH   5  13
HETATM   13  O3  UNL     1     -29.803  -4.982  40.140  1.00  0.00    -0.392 OA
ATOM     14  H3  UNL     1     -30.075  -4.774  39.254  1.00  0.00     0.210 HD
ENDBRANCH   5  13
BRANCH   4  15
HETATM   15  O2  UNL     1     -30.114  -2.719  42.205  1.00  0.00    -0.389 OA
ATOM     16  H2  UNL     1     -30.035  -2.296  43.051  1.00  0.00     0.210 HD
ENDBRANCH   4  15
TORSDOF 6
ENDMDL
MODEL 3
REMARK VINA RESULT: -6.499609977      1.546      1.654
REMARK  6 active torsions:
REMARK  status: ('A' for Active; 'I' for Inactive)
REMARK    1  A    between atoms: N1_1  and  S1_4 
REMARK    2  A    between atoms: S1_4  and  C1_6 
REMARK    3  A    between atoms: C1_6  and  C2_7 
REMARK    4  A    between atoms: C2_7  and  C3_8 
REMARK    5  A    between atoms: C6_11  and  O2_12 
REMARK    6  A    between atoms: C7_14  and  O3_15 
ROOT
HETATM    1  C3  UNL     1     -31.518  -7.813  42.249  1.00  0.00     0.040 C 
HETATM    2  C4  UNL     1     -32.459  -8.960  42.211  1.00  0.00    -0.021 C 
HETATM    3  C5  UNL     1     -32.467  -9.527  41.020  1.00  0.00     0.003 C 
HETATM    4  C6  UNL     1     -31.522  -8.798  40.149  1.00  0.00     0.170 C 
HETATM    5  C7  UNL     1     -30.540  -8.211  41.131  1.00  0.00     0.158 C 
ENDROOT
BRANCH   1   6
HETATM    6  C2  UNL     1     -32.225  -6.514  41.924  1.00  0.00     0.025 C 
BRANCH   6   7
HETATM    7  C1  UNL     1     -31.970  -5.576  43.084  1.00  0.00     0.132 C 
BRANCH   7   8
HETATM    8  S1  UNL     1     -30.978  -4.190  42.612  1.00  0.00     0.107 S 
HETATM    9  O1  UNL     1     -29.559  -4.676  41.852  1.00  0.00    -0.236 OA
BRANCH   8  10
HETATM   10  N1  UNL     1     -30.619  -3.301  44.063  1.00  0.00    -0.350 NA
ATOM     11  H12 UNL     1     -30.467  -2.330  43.789  1.00  0.00     0.166 HD
ATOM     12  H11 UNL     1     -31.384  -3.386  44.734  1.00  0.00     0.166 HD
ENDBRANCH   8  10
ENDBRANCH   7   8
ENDBRANCH   6   7
ENDBRANCH   1   6
BRANCH   5  13
HETATM   13  O3  UNL     1     -29.873  -7.102  40.630  1.00  0.00    -0.392 OA
ATOM     14  H3  UNL     1     -29.838  -6.403  41.272  1.00  0.00     0.210 HD
ENDBRANCH   5  13
BRANCH   4  15
HETATM   15  O2  UNL     1     -30.902  -9.645  39.232  1.00  0.00    -0.389 OA
ATOM     16  H2  UNL     1     -30.347 -10.285  39.661  1.00  0.00     0.210 HD
ENDBRANCH   4  15
TORSDOF 6
ENDMDL
MODEL 4
REMARK VINA RESULT: -6.420346372      1.808      2.245
REMARK  6 active torsions:
REMARK  status: ('A' for Active; 'I' for Inactive)
REMARK    1  A    between atoms: N1_1  and  S1_4 
REMARK    2  A    between atoms: S1_4  and  C1_6 
REMARK    3  A    between atoms: C1_6  and  C2_7 
REMARK    4  A    between atoms: C2_7  and  C3_8 
REMARK    5  A    between atoms: C6_11  and  O2_12 
REMARK    6  A    between atoms: C7_14  and  O3_15 
ROOT
HETATM    1  C3  UNL     1     -31.447  -6.338  41.411  1.00  0.00     0.040 C 
HETATM    2  C4  UNL     1     -30.839  -7.484  40.689  1.00  0.00    -0.021 C 
HETATM    3  C5  UNL     1     -30.955  -8.598  41.385  1.00  0.00     0.003 C 
HETATM    4  C6  UNL     1     -31.658  -8.290  42.648  1.00  0.00     0.170 C 
HETATM    5  C7  UNL     1     -32.473  -7.071  42.293  1.00  0.00     0.158 C 
ENDROOT
BRANCH   1   6
HETATM    6  C2  UNL     1     -30.419  -5.612  42.251  1.00  0.00     0.025 C 
BRANCH   6   7
HETATM    7  C1  UNL     1     -30.507  -4.148  41.880  1.00  0.00     0.132 C 
BRANCH   7   8
HETATM    8  S1  UNL     1     -30.931  -3.135  43.266  1.00  0.00     0.107 S 
HETATM    9  O1  UNL     1     -29.687  -2.075  43.661  1.00  0.00    -0.236 OA
BRANCH   8  10
HETATM   10  N1  UNL     1     -31.269  -4.204  44.595  1.00  0.00    -0.350 NA
ATOM     11  H12 UNL     1     -30.715  -3.881  45.389  1.00  0.00     0.166 HD
ATOM     12  H11 UNL     1     -32.266  -4.205  44.810  1.00  0.00     0.166 HD
ENDBRANCH   8  10
ENDBRANCH   7   8
ENDBRANCH   6   7
ENDBRANCH   1   6
BRANCH   5  13
HETATM   13  O3  UNL     1     -32.816  -6.309  43.401  1.00  0.00    -0.392 OA
ATOM     14  H3  UNL     1     -33.735  -6.410  43.616  1.00  0.00     0.210 HD
ENDBRANCH   5  13
BRANCH   4  15
HETATM   15  O2  UNL     1     -32.459  -9.350  43.068  1.00  0.00    -0.389 OA
ATOM     16  H2  UNL     1     -33.267  -9.402  42.571  1.00  0.00     0.210 HD
ENDBRANCH   4  15
TORSDOF 6
ENDMDL
MODEL 5
REMARK VINA RESULT: -6.332942381      3.101      4.990
REMARK  6 active torsions:
REMARK  status: ('A' for Active; 'I' for Inactive)
REMARK    1  A    between atoms: N1_1  and  S1_4 
REMARK    2  A    between atoms: S1_4  and  C1_6 
REMARK    3  A    between atoms: C1_6  and  C2_7 
REMARK    4  A    between atoms: C2_7  and  C3_8 
REMARK    5  A    between atoms: C6_11  and  O2_12 
REMARK    6  A    between atoms: C7_14  and  O3_15 
ROOT
HETATM    1  C3  UNL     1     -31.454  -5.626  41.863  1.00  0.00     0.040 C 
HETATM    2  C4  UNL     1     -31.898  -5.130  43.190  1.00  0.00    -0.021 C 
HETATM    3  C5  UNL     1     -31.214  -4.061  43.549  1.00  0.00     0.003 C 
HETATM    4  C6  UNL     1     -30.242  -3.747  42.481  1.00  0.00     0.170 C 
HETATM    5  C7  UNL     1     -30.889  -4.333  41.251  1.00  0.00     0.158 C 
ENDROOT
BRANCH   1   6
HETATM    6  C2  UNL     1     -30.379  -6.682  42.005  1.00  0.00     0.025 C 
BRANCH   6   7
HETATM    7  C1  UNL     1     -30.775  -7.833  41.105  1.00  0.00     0.132 C 
BRANCH   7   8
HETATM    8  S1  UNL     1     -32.351  -8.506  41.542  1.00  0.00     0.107 S 
HETATM    9  O1  UNL     1     -32.272  -9.380  42.977  1.00  0.00    -0.236 OA
BRANCH   8  10
HETATM   10  N1  UNL     1     -32.851  -9.531  40.230  1.00  0.00    -0.350 NA
ATOM     11  H12 UNL     1     -32.234 -10.344  40.232  1.00  0.00     0.166 HD
ATOM     12  H11 UNL     1     -33.829  -9.802  40.339  1.00  0.00     0.166 HD
ENDBRANCH   8  10
ENDBRANCH   7   8
ENDBRANCH   6   7
ENDBRANCH   1   6
BRANCH   5  13
HETATM   13  O3  UNL     1     -29.977  -4.613  40.243  1.00  0.00    -0.392 OA
ATOM     14  H3  UNL     1     -29.645  -3.814  39.849  1.00  0.00     0.210 HD
ENDBRANCH   5  13
BRANCH   4  15
HETATM   15  O2  UNL     1     -30.032  -2.375  42.358  1.00  0.00    -0.389 OA
ATOM     16  H2  UNL     1     -30.304  -2.050  41.508  1.00  0.00     0.210 HD
ENDBRANCH   4  15
TORSDOF 6
ENDMDL
