MODEL 1
REMARK VINA RESULT: -8.242081549      0.000      0.000
REMARK  20 active torsions:
REMARK  status: ('A' for Active; 'I' for Inactive)
REMARK    1  A    between atoms: C2_2  and  N1_3 
REMARK       I    between atoms: N1_3  and  C3_5 
REMARK    2  A    between atoms: C3_5  and  C4_7 
REMARK    3  A    between atoms: C4_7  and  C5_8 
REMARK    4  A    between atoms: C5_8  and  C6_9 
REMARK    5  A    between atoms: C6_9  and  C7_10 
REMARK    6  A    between atoms: C8_11  and  C9_12 
REMARK    7  A    between atoms: C9_12  and  C10_13 
REMARK    8  A    between atoms: C11_14  and  C12_15 
REMARK    9  A    between atoms: C12_15  and  C13_16 
REMARK   10  A    between atoms: C13_16  and  C14_17 
REMARK   11  A    between atoms: C14_17  and  C15_18 
REMARK   12  A    between atoms: C15_18  and  O2_19 
REMARK   13  A    between atoms: C15_18  and  N2_21 
REMARK   14  A    between atoms: C16_22  and  C17_23 
REMARK   15  A    between atoms: C17_23  and  C18_24 
REMARK   16  A    between atoms: C18_24  and  C19_25 
REMARK   17  A    between atoms: C19_25  and  N3_26 
REMARK   18  A    between atoms: C27_36  and  C28_37 
REMARK   19  A    between atoms: C28_37  and  O5_38 
REMARK   20  A    between atoms: C29_40  and  O6_41 
ROOT
HETATM    1  C10 UNL     1      10.702 -21.287 -18.024  1.00  0.00     0.050 C 
HETATM    2  C11 UNL     1      11.797 -20.548 -18.705  1.00  0.00     0.132 C 
HETATM    3  O4  UNL     1      11.233 -19.994 -19.832  1.00  0.00    -0.375 OA
HETATM    4  C27 UNL     1       9.868 -20.019 -19.780  1.00  0.00     0.174 C 
HETATM    5  C29 UNL     1       9.436 -20.984 -18.703  1.00  0.00     0.156 C 
ENDROOT
BRANCH   2   6
HETATM    6  C12 UNL     1      12.898 -21.531 -19.111  1.00  0.00     0.059 C 
BRANCH   6   7
HETATM    7  C13 UNL     1      14.206 -20.934 -18.734  1.00  0.00    -0.020 C 
BRANCH   7   8
HETATM    8  C14 UNL     1      14.350 -20.055 -17.775  1.00  0.00     0.052 C 
BRANCH   8   9
HETATM    9  C15 UNL     1      15.003 -20.178 -16.504  1.00  0.00     0.138 C 
BRANCH   9  10
HETATM   10  O2  UNL     1      15.708 -19.145 -16.137  1.00  0.00    -0.346 OA
ATOM     11  H2  UNL     1      16.159 -18.690 -16.838  1.00  0.00     0.219 HD
ENDBRANCH   9  10
BRANCH   9  12
HETATM   12  N2  UNL     1      14.977 -21.272 -15.607  1.00  0.00    -0.345 N 
HETATM   13  C16 UNL     1      16.142 -22.159 -15.486  1.00  0.00     0.088 C 
HETATM   14  C23 UNL     1      15.994 -22.825 -14.172  1.00  0.00     0.040 C 
HETATM   15  C24 UNL     1      14.525 -22.823 -13.907  1.00  0.00     0.090 A 
HETATM   16  C25 UNL     1      13.975 -21.598 -13.303  1.00  0.00     0.157 A 
HETATM   17  C26 UNL     1      13.931 -21.724 -14.747  1.00  0.00     0.168 A 
HETATM   18  O3  UNL     1      13.774 -21.028 -12.241  1.00  0.00    -0.295 OA
BRANCH  13  19
HETATM   19  C17 UNL     1      16.310 -23.068 -16.651  1.00  0.00     0.027 C 
BRANCH  19  20
HETATM   20  C18 UNL     1      17.754 -23.332 -17.029  1.00  0.00     0.032 C 
BRANCH  20  21
HETATM   21  C19 UNL     1      17.801 -24.358 -18.172  1.00  0.00     0.272 C 
BRANCH  21  22
HETATM   22  N3  UNL     1      16.602 -24.242 -18.988  1.00  0.00     0.088 N 
HETATM   23  C20 UNL     1      15.947 -25.538 -19.089  1.00  0.00     0.274 C 
HETATM   24  C21 UNL     1      15.574 -25.148 -20.508  1.00  0.00     0.060 C 
HETATM   25  C22 UNL     1      16.869 -24.331 -20.419  1.00  0.00     0.274 C 
ENDBRANCH  21  22
ENDBRANCH  20  21
ENDBRANCH  19  20
ENDBRANCH  13  19
ENDBRANCH   9  12
ENDBRANCH   8   9
ENDBRANCH   7   8
ENDBRANCH   6   7
ENDBRANCH   2   6
BRANCH   1  26
HETATM   26  C9  UNL     1      10.730 -21.126 -16.525  1.00  0.00     0.036 C 
BRANCH  26  27
HETATM   27  C8  UNL     1      11.169 -19.828 -16.026  1.00  0.00    -0.030 C 
HETATM   28  C7  UNL     1      10.390 -18.911 -15.495  1.00  0.00    -0.031 C 
BRANCH  28  29
HETATM   29  C6  UNL     1      10.954 -17.599 -15.009  1.00  0.00     0.027 C 
BRANCH  29  30
HETATM   30  C5  UNL     1      10.228 -17.121 -13.800  1.00  0.00     0.013 C 
BRANCH  30  31
HETATM   31  C4  UNL     1       9.934 -15.659 -13.746  1.00  0.00     0.103 C 
BRANCH  31  32
HETATM   32  C3  UNL     1       8.735 -15.227 -14.488  1.00  0.00     0.217 C 
HETATM   33  N1  UNL     1       7.579 -16.057 -14.405  1.00  0.00    -0.361 N 
ATOM     34  H1  UNL     1       7.618 -16.908 -13.844  1.00  0.00     0.162 HD
HETATM   35  O1  UNL     1       8.671 -14.197 -15.173  1.00  0.00    -0.274 OA
BRANCH  33  36
HETATM   36  C2  UNL     1       6.350 -15.722 -15.097  1.00  0.00     0.118 C 
HETATM   37  C1  UNL     1       5.904 -16.818 -16.050  1.00  0.00     0.026 C 
ENDBRANCH  33  36
ENDBRANCH  31  32
ENDBRANCH  30  31
ENDBRANCH  29  30
ENDBRANCH  28  29
ENDBRANCH  26  27
ENDBRANCH   1  26
BRANCH   5  38
HETATM   38  O6  UNL     1       8.425 -20.419 -17.966  1.00  0.00    -0.392 OA
ATOM     39  H6  UNL     1       8.100 -19.565 -18.229  1.00  0.00     0.210 HD
ENDBRANCH   5  38
BRANCH   4  40
HETATM   40  C28 UNL     1       9.361 -18.613 -19.518  1.00  0.00     0.198 C 
BRANCH  40  41
HETATM   41  O5  UNL     1      10.056 -17.672 -20.256  1.00  0.00    -0.398 OA
ATOM     42  H5  UNL     1       9.541 -16.888 -20.400  1.00  0.00     0.209 HD
ENDBRANCH  40  41
ENDBRANCH   4  40
TORSDOF 20
ENDMDL
MODEL 2
REMARK VINA RESULT: -8.190496577      2.280      9.053
REMARK  20 active torsions:
REMARK  status: ('A' for Active; 'I' for Inactive)
REMARK    1  A    between atoms: C2_2  and  N1_3 
REMARK       I    between atoms: N1_3  and  C3_5 
REMARK    2  A    between atoms: C3_5  and  C4_7 
REMARK    3  A    between atoms: C4_7  and  C5_8 
REMARK    4  A    between atoms: C5_8  and  C6_9 
REMARK    5  A    between atoms: C6_9  and  C7_10 
REMARK    6  A    between atoms: C8_11  and  C9_12 
REMARK    7  A    between atoms: C9_12  and  C10_13 
REMARK    8  A    between atoms: C11_14  and  C12_15 
REMARK    9  A    between atoms: C12_15  and  C13_16 
REMARK   10  A    between atoms: C13_16  and  C14_17 
REMARK   11  A    between atoms: C14_17  and  C15_18 
REMARK   12  A    between atoms: C15_18  and  O2_19 
REMARK   13  A    between atoms: C15_18  and  N2_21 
REMARK   14  A    between atoms: C16_22  and  C17_23 
REMARK   15  A    between atoms: C17_23  and  C18_24 
REMARK   16  A    between atoms: C18_24  and  C19_25 
REMARK   17  A    between atoms: C19_25  and  N3_26 
REMARK   18  A    between atoms: C27_36  and  C28_37 
REMARK   19  A    between atoms: C28_37  and  O5_38 
REMARK   20  A    between atoms: C29_40  and  O6_41 
ROOT
HETATM    1  C10 UNL     1      12.276 -21.380 -16.223  1.00  0.00     0.050 C 
HETATM    2  C11 UNL     1      12.681 -20.084 -16.827  1.00  0.00     0.132 C 
HETATM    3  O4  UNL     1      13.715 -19.612 -16.049  1.00  0.00    -0.375 OA
HETATM    4  C27 UNL     1      14.222 -20.587 -15.236  1.00  0.00     0.174 C 
HETATM    5  C29 UNL     1      13.241 -21.733 -15.175  1.00  0.00     0.156 C 
ENDROOT
BRANCH   2   6
HETATM    6  C12 UNL     1      11.505 -19.105 -16.767  1.00  0.00     0.059 C 
BRANCH   6   7
HETATM    7  C13 UNL     1      10.611 -19.532 -15.658  1.00  0.00    -0.020 C 
BRANCH   7   8
HETATM    8  C14 UNL     1       9.306 -19.457 -15.712  1.00  0.00     0.052 C 
BRANCH   8   9
HETATM    9  C15 UNL     1       8.417 -18.470 -15.171  1.00  0.00     0.138 C 
BRANCH   9  10
HETATM   10  O2  UNL     1       7.402 -18.940 -14.503  1.00  0.00    -0.346 OA
ATOM     11  H2  UNL     1       7.529 -19.008 -13.564  1.00  0.00     0.219 HD
ENDBRANCH   9  10
BRANCH   9  12
HETATM   12  N2  UNL     1       8.505 -17.062 -15.272  1.00  0.00    -0.345 N 
HETATM   13  C16 UNL     1       7.800 -16.349 -16.347  1.00  0.00     0.088 C 
HETATM   14  C23 UNL     1       7.676 -14.951 -15.876  1.00  0.00     0.040 C 
HETATM   15  C24 UNL     1       8.821 -14.762 -14.937  1.00  0.00     0.090 A 
HETATM   16  C25 UNL     1       8.605 -15.205 -13.550  1.00  0.00     0.157 A 
HETATM   17  C26 UNL     1       9.235 -16.132 -14.471  1.00  0.00     0.168 A 
HETATM   18  O3  UNL     1       8.163 -14.863 -12.464  1.00  0.00    -0.295 OA
BRANCH  13  19
HETATM   19  C17 UNL     1       8.434 -16.523 -17.680  1.00  0.00     0.027 C 
BRANCH  19  20
HETATM   20  C18 UNL     1       7.477 -16.958 -18.772  1.00  0.00     0.032 C 
BRANCH  20  21
HETATM   21  C19 UNL     1       8.247 -17.751 -19.839  1.00  0.00     0.272 C 
BRANCH  21  22
HETATM   22  N3  UNL     1       8.858 -18.924 -19.234  1.00  0.00     0.088 N 
HETATM   23  C20 UNL     1       9.613 -19.660 -20.239  1.00  0.00     0.274 C 
HETATM   24  C21 UNL     1       9.175 -20.925 -19.523  1.00  0.00     0.060 C 
HETATM   25  C22 UNL     1       7.957 -20.068 -19.159  1.00  0.00     0.274 C 
ENDBRANCH  21  22
ENDBRANCH  20  21
ENDBRANCH  19  20
ENDBRANCH  13  19
ENDBRANCH   9  12
ENDBRANCH   8   9
ENDBRANCH   7   8
ENDBRANCH   6   7
ENDBRANCH   2   6
BRANCH   1  26
HETATM   26  C9  UNL     1      11.970 -22.436 -17.255  1.00  0.00     0.036 C 
BRANCH  26  27
HETATM   27  C8  UNL     1      12.498 -22.199 -18.594  1.00  0.00    -0.030 C 
HETATM   28  C7  UNL     1      13.388 -22.949 -19.208  1.00  0.00    -0.031 C 
BRANCH  28  29
HETATM   29  C6  UNL     1      13.863 -22.610 -20.598  1.00  0.00     0.027 C 
BRANCH  29  30
HETATM   30  C5  UNL     1      14.726 -23.693 -21.146  1.00  0.00     0.013 C 
BRANCH  30  31
HETATM   31  C4  UNL     1      15.321 -24.628 -20.146  1.00  0.00     0.103 C 
BRANCH  31  32
HETATM   32  C3  UNL     1      16.684 -24.288 -19.697  1.00  0.00     0.217 C 
HETATM   33  N1  UNL     1      16.844 -23.879 -18.340  1.00  0.00    -0.361 N 
ATOM     34  H1  UNL     1      16.024 -23.836 -17.735  1.00  0.00     0.162 HD
HETATM   35  O1  UNL     1      17.689 -24.335 -20.419  1.00  0.00    -0.274 OA
BRANCH  33  36
HETATM   36  C2  UNL     1      18.142 -23.523 -17.800  1.00  0.00     0.118 C 
HETATM   37  C1  UNL     1      18.729 -24.622 -16.932  1.00  0.00     0.026 C 
ENDBRANCH  33  36
ENDBRANCH  31  32
ENDBRANCH  30  31
ENDBRANCH  29  30
ENDBRANCH  28  29
ENDBRANCH  26  27
ENDBRANCH   1  26
BRANCH   5  38
HETATM   38  O6  UNL     1      13.921 -22.919 -15.294  1.00  0.00    -0.392 OA
ATOM     39  H6  UNL     1      13.887 -23.531 -14.567  1.00  0.00     0.210 HD
ENDBRANCH   5  38
BRANCH   4  40
HETATM   40  C28 UNL     1      15.571 -21.023 -15.776  1.00  0.00     0.198 C 
BRANCH  40  41
HETATM   41  O5  UNL     1      15.544 -21.192 -17.148  1.00  0.00    -0.398 OA
ATOM     42  H5  UNL     1      15.613 -22.108 -17.390  1.00  0.00     0.209 HD
ENDBRANCH  40  41
ENDBRANCH   4  40
TORSDOF 20
ENDMDL
MODEL 3
REMARK VINA RESULT: -8.129938640      2.148      7.892
REMARK  20 active torsions:
REMARK  status: ('A' for Active; 'I' for Inactive)
REMARK    1  A    between atoms: C2_2  and  N1_3 
REMARK       I    between atoms: N1_3  and  C3_5 
REMARK    2  A    between atoms: C3_5  and  C4_7 
REMARK    3  A    between atoms: C4_7  and  C5_8 
REMARK    4  A    between atoms: C5_8  and  C6_9 
REMARK    5  A    between atoms: C6_9  and  C7_10 
REMARK    6  A    between atoms: C8_11  and  C9_12 
REMARK    7  A    between atoms: C9_12  and  C10_13 
REMARK    8  A    between atoms: C11_14  and  C12_15 
REMARK    9  A    between atoms: C12_15  and  C13_16 
REMARK   10  A    between atoms: C13_16  and  C14_17 
REMARK   11  A    between atoms: C14_17  and  C15_18 
REMARK   12  A    between atoms: C15_18  and  O2_19 
REMARK   13  A    between atoms: C15_18  and  N2_21 
REMARK   14  A    between atoms: C16_22  and  C17_23 
REMARK   15  A    between atoms: C17_23  and  C18_24 
REMARK   16  A    between atoms: C18_24  and  C19_25 
REMARK   17  A    between atoms: C19_25  and  N3_26 
REMARK   18  A    between atoms: C27_36  and  C28_37 
REMARK   19  A    between atoms: C28_37  and  O5_38 
REMARK   20  A    between atoms: C29_40  and  O6_41 
ROOT
HETATM    1  C10 UNL     1       8.165 -19.515 -19.856  1.00  0.00     0.050 C 
HETATM    2  C11 UNL     1       9.114 -18.418 -19.530  1.00  0.00     0.132 C 
HETATM    3  O4  UNL     1       8.380 -17.255 -19.593  1.00  0.00    -0.375 OA
HETATM    4  C27 UNL     1       7.036 -17.504 -19.597  1.00  0.00     0.174 C 
HETATM    5  C29 UNL     1       6.809 -18.960 -19.925  1.00  0.00     0.156 C 
ENDROOT
BRANCH   2   6
HETATM    6  C12 UNL     1      10.227 -18.380 -20.582  1.00  0.00     0.059 C 
BRANCH   6   7
HETATM    7  C13 UNL     1      11.523 -18.224 -19.870  1.00  0.00    -0.020 C 
BRANCH   7   8
HETATM    8  C14 UNL     1      11.686 -18.490 -18.599  1.00  0.00     0.052 C 
BRANCH   8   9
HETATM    9  C15 UNL     1      12.879 -18.803 -17.869  1.00  0.00     0.138 C 
BRANCH   9  10
HETATM   10  O2  UNL     1      13.988 -18.363 -18.396  1.00  0.00    -0.346 OA
ATOM     11  H2  UNL     1      14.749 -18.915 -18.262  1.00  0.00     0.219 HD
ENDBRANCH   9  10
BRANCH   9  12
HETATM   12  N2  UNL     1      13.003 -19.524 -16.659  1.00  0.00    -0.345 N 
HETATM   13  C16 UNL     1      11.812 -19.843 -15.859  1.00  0.00     0.088 C 
HETATM   14  C23 UNL     1      12.209 -20.982 -15.001  1.00  0.00     0.040 C 
HETATM   15  C24 UNL     1      13.687 -20.848 -14.847  1.00  0.00     0.090 A 
HETATM   16  C25 UNL     1      14.509 -21.426 -15.923  1.00  0.00     0.157 A 
HETATM   17  C26 UNL     1      14.173 -20.017 -16.005  1.00  0.00     0.168 A 
HETATM   18  O3  UNL     1      15.034 -22.457 -16.316  1.00  0.00    -0.295 OA
BRANCH  13  19
HETATM   19  C17 UNL     1      11.253 -18.665 -15.145  1.00  0.00     0.027 C 
BRANCH  19  20
HETATM   20  C18 UNL     1       9.773 -18.440 -15.381  1.00  0.00     0.032 C 
BRANCH  20  21
HETATM   21  C19 UNL     1       9.181 -17.663 -14.196  1.00  0.00     0.272 C 
BRANCH  21  22
HETATM   22  N3  UNL     1       8.834 -16.314 -14.616  1.00  0.00     0.088 N 
HETATM   23  C20 UNL     1       8.945 -15.402 -13.486  1.00  0.00     0.274 C 
HETATM   24  C21 UNL     1       7.751 -14.667 -14.066  1.00  0.00     0.060 C 
HETATM   25  C22 UNL     1       7.398 -16.059 -14.604  1.00  0.00     0.274 C 
ENDBRANCH  21  22
ENDBRANCH  20  21
ENDBRANCH  19  20
ENDBRANCH  13  19
ENDBRANCH   9  12
ENDBRANCH   8   9
ENDBRANCH   7   8
ENDBRANCH   6   7
ENDBRANCH   2   6
BRANCH   1  26
HETATM   26  C9  UNL     1       8.362 -20.735 -18.992  1.00  0.00     0.036 C 
BRANCH  26  27
HETATM   27  C8  UNL     1       9.651 -21.409 -19.114  1.00  0.00    -0.030 C 
HETATM   28  C7  UNL     1      10.361 -21.885 -18.114  1.00  0.00    -0.031 C 
BRANCH  28  29
HETATM   29  C6  UNL     1      11.684 -22.567 -18.357  1.00  0.00     0.027 C 
BRANCH  29  30
HETATM   30  C5  UNL     1      12.379 -21.977 -19.535  1.00  0.00     0.013 C 
BRANCH  30  31
HETATM   31  C4  UNL     1      13.865 -22.120 -19.559  1.00  0.00     0.103 C 
BRANCH  31  32
HETATM   32  C3  UNL     1      14.380 -23.210 -20.409  1.00  0.00     0.217 C 
HETATM   33  N1  UNL     1      15.140 -24.234 -19.771  1.00  0.00    -0.361 N 
ATOM     34  H1  UNL     1      15.300 -24.180 -18.765  1.00  0.00     0.162 HD
HETATM   35  O1  UNL     1      14.195 -23.290 -21.630  1.00  0.00    -0.274 OA
BRANCH  33  36
HETATM   36  C2  UNL     1      15.691 -25.349 -20.516  1.00  0.00     0.118 C 
HETATM   37  C1  UNL     1      17.148 -25.135 -20.887  1.00  0.00     0.026 C 
ENDBRANCH  33  36
ENDBRANCH  31  32
ENDBRANCH  30  31
ENDBRANCH  29  30
ENDBRANCH  28  29
ENDBRANCH  26  27
ENDBRANCH   1  26
BRANCH   5  38
HETATM   38  O6  UNL     1       5.856 -19.471 -19.080  1.00  0.00    -0.392 OA
ATOM     39  H6  UNL     1       4.949 -19.227 -19.225  1.00  0.00     0.210 HD
ENDBRANCH   5  38
BRANCH   4  40
HETATM   40  C28 UNL     1       6.464 -17.131 -18.242  1.00  0.00     0.198 C 
BRANCH  40  41
HETATM   41  O5  UNL     1       5.256 -16.469 -18.361  1.00  0.00    -0.398 OA
ATOM     42  H5  UNL     1       4.552 -16.944 -17.937  1.00  0.00     0.209 HD
ENDBRANCH  40  41
ENDBRANCH   4  40
TORSDOF 20
ENDMDL
MODEL 4
REMARK VINA RESULT: -8.100743962      2.286      8.772
REMARK  20 active torsions:
REMARK  status: ('A' for Active; 'I' for Inactive)
REMARK    1  A    between atoms: C2_2  and  N1_3 
REMARK       I    between atoms: N1_3  and  C3_5 
REMARK    2  A    between atoms: C3_5  and  C4_7 
REMARK    3  A    between atoms: C4_7  and  C5_8 
REMARK    4  A    between atoms: C5_8  and  C6_9 
REMARK    5  A    between atoms: C6_9  and  C7_10 
REMARK    6  A    between atoms: C8_11  and  C9_12 
REMARK    7  A    between atoms: C9_12  and  C10_13 
REMARK    8  A    between atoms: C11_14  and  C12_15 
REMARK    9  A    between atoms: C12_15  and  C13_16 
REMARK   10  A    between atoms: C13_16  and  C14_17 
REMARK   11  A    between atoms: C14_17  and  C15_18 
REMARK   12  A    between atoms: C15_18  and  O2_19 
REMARK   13  A    between atoms: C15_18  and  N2_21 
REMARK   14  A    between atoms: C16_22  and  C17_23 
REMARK   15  A    between atoms: C17_23  and  C18_24 
REMARK   16  A    between atoms: C18_24  and  C19_25 
REMARK   17  A    between atoms: C19_25  and  N3_26 
REMARK   18  A    between atoms: C27_36  and  C28_37 
REMARK   19  A    between atoms: C28_37  and  O5_38 
REMARK   20  A    between atoms: C29_40  and  O6_41 
ROOT
HETATM    1  C10 UNL     1      13.140 -21.447 -15.650  1.00  0.00     0.050 C 
HETATM    2  C11 UNL     1      13.715 -20.183 -16.181  1.00  0.00     0.132 C 
HETATM    3  O4  UNL     1      14.864 -19.958 -15.457  1.00  0.00    -0.375 OA
HETATM    4  C27 UNL     1      15.256 -21.073 -14.770  1.00  0.00     0.174 C 
HETATM    5  C29 UNL     1      14.103 -22.046 -14.718  1.00  0.00     0.156 C 
ENDROOT
BRANCH   2   6
HETATM    6  C12 UNL     1      12.726 -19.037 -15.944  1.00  0.00     0.059 C 
BRANCH   6   7
HETATM    7  C13 UNL     1      12.305 -18.515 -17.270  1.00  0.00    -0.020 C 
BRANCH   7   8
HETATM    8  C14 UNL     1      11.610 -17.417 -17.427  1.00  0.00     0.052 C 
BRANCH   8   9
HETATM    9  C15 UNL     1      10.192 -17.232 -17.535  1.00  0.00     0.138 C 
BRANCH   9  10
HETATM   10  O2  UNL     1       9.722 -17.214 -18.751  1.00  0.00    -0.346 OA
ATOM     11  H2  UNL     1      10.223 -17.709 -19.388  1.00  0.00     0.219 HD
ENDBRANCH   9  10
BRANCH   9  12
HETATM   12  N2  UNL     1       9.248 -17.067 -16.494  1.00  0.00    -0.345 N 
HETATM   13  C16 UNL     1       9.195 -18.025 -15.382  1.00  0.00     0.088 C 
HETATM   14  C23 UNL     1       8.510 -17.312 -14.281  1.00  0.00     0.040 C 
HETATM   15  C24 UNL     1       7.650 -16.298 -14.960  1.00  0.00     0.090 A 
HETATM   16  C25 UNL     1       8.302 -15.029 -15.322  1.00  0.00     0.157 A 
HETATM   17  C26 UNL     1       8.237 -16.072 -16.328  1.00  0.00     0.168 A 
HETATM   18  O3  UNL     1       8.604 -13.922 -14.903  1.00  0.00    -0.295 OA
BRANCH  13  19
HETATM   19  C17 UNL     1       8.603 -19.335 -15.764  1.00  0.00     0.027 C 
BRANCH  19  20
HETATM   20  C18 UNL     1       9.616 -20.367 -16.215  1.00  0.00     0.032 C 
BRANCH  20  21
HETATM   21  C19 UNL     1       9.036 -21.172 -17.388  1.00  0.00     0.272 C 
BRANCH  21  22
HETATM   22  N3  UNL     1       9.434 -20.564 -18.647  1.00  0.00     0.088 N 
HETATM   23  C20 UNL     1       8.253 -20.135 -19.384  1.00  0.00     0.274 C 
HETATM   24  C21 UNL     1       8.997 -20.527 -20.646  1.00  0.00     0.060 C 
HETATM   25  C22 UNL     1       9.668 -21.537 -19.708  1.00  0.00     0.274 C 
ENDBRANCH  21  22
ENDBRANCH  20  21
ENDBRANCH  19  20
ENDBRANCH  13  19
ENDBRANCH   9  12
ENDBRANCH   8   9
ENDBRANCH   7   8
ENDBRANCH   6   7
ENDBRANCH   2   6
BRANCH   1  26
HETATM   26  C9  UNL     1      12.590 -22.340 -16.733  1.00  0.00     0.036 C 
BRANCH  26  27
HETATM   27  C8  UNL     1      12.998 -22.023 -18.097  1.00  0.00    -0.030 C 
HETATM   28  C7  UNL     1      13.390 -22.897 -18.999  1.00  0.00    -0.031 C 
BRANCH  28  29
HETATM   29  C6  UNL     1      13.790 -22.456 -20.385  1.00  0.00     0.027 C 
BRANCH  29  30
HETATM   30  C5  UNL     1      14.653 -23.476 -21.041  1.00  0.00     0.013 C 
BRANCH  30  31
HETATM   31  C4  UNL     1      15.177 -24.560 -20.158  1.00  0.00     0.103 C 
BRANCH  31  32
HETATM   32  C3  UNL     1      16.608 -24.459 -19.817  1.00  0.00     0.217 C 
HETATM   33  N1  UNL     1      16.958 -24.518 -18.436  1.00  0.00    -0.361 N 
ATOM     34  H1  UNL     1      16.220 -24.625 -17.740  1.00  0.00     0.162 HD
HETATM   35  O1  UNL     1      17.517 -24.330 -20.648  1.00  0.00    -0.274 OA
BRANCH  33  36
HETATM   36  C2  UNL     1      18.337 -24.429 -17.995  1.00  0.00     0.118 C 
HETATM   37  C1  UNL     1      18.848 -25.738 -17.420  1.00  0.00     0.026 C 
ENDBRANCH  33  36
ENDBRANCH  31  32
ENDBRANCH  30  31
ENDBRANCH  29  30
ENDBRANCH  28  29
ENDBRANCH  26  27
ENDBRANCH   1  26
BRANCH   5  38
HETATM   38  O6  UNL     1      14.564 -23.310 -14.987  1.00  0.00    -0.392 OA
ATOM     39  H6  UNL     1      13.968 -23.929 -15.393  1.00  0.00     0.210 HD
ENDBRANCH   5  38
BRANCH   4  40
HETATM   40  C28 UNL     1      16.471 -21.669 -15.454  1.00  0.00     0.198 C 
BRANCH  40  41
HETATM   41  O5  UNL     1      16.245 -21.889 -16.801  1.00  0.00    -0.398 OA
ATOM     42  H5  UNL     1      15.736 -21.189 -17.190  1.00  0.00     0.209 HD
ENDBRANCH  40  41
ENDBRANCH   4  40
TORSDOF 20
ENDMDL
MODEL 5
REMARK VINA RESULT: -8.074592087      2.125      9.731
REMARK  20 active torsions:
REMARK  status: ('A' for Active; 'I' for Inactive)
REMARK    1  A    between atoms: C2_2  and  N1_3 
REMARK       I    between atoms: N1_3  and  C3_5 
REMARK    2  A    between atoms: C3_5  and  C4_7 
REMARK    3  A    between atoms: C4_7  and  C5_8 
REMARK    4  A    between atoms: C5_8  and  C6_9 
REMARK    5  A    between atoms: C6_9  and  C7_10 
REMARK    6  A    between atoms: C8_11  and  C9_12 
REMARK    7  A    between atoms: C9_12  and  C10_13 
REMARK    8  A    between atoms: C11_14  and  C12_15 
REMARK    9  A    between atoms: C12_15  and  C13_16 
REMARK   10  A    between atoms: C13_16  and  C14_17 
REMARK   11  A    between atoms: C14_17  and  C15_18 
REMARK   12  A    between atoms: C15_18  and  O2_19 
REMARK   13  A    between atoms: C15_18  and  N2_21 
REMARK   14  A    between atoms: C16_22  and  C17_23 
REMARK   15  A    between atoms: C17_23  and  C18_24 
REMARK   16  A    between atoms: C18_24  and  C19_25 
REMARK   17  A    between atoms: C19_25  and  N3_26 
REMARK   18  A    between atoms: C27_36  and  C28_37 
REMARK   19  A    between atoms: C28_37  and  O5_38 
REMARK   20  A    between atoms: C29_40  and  O6_41 
ROOT
HETATM    1  C10 UNL     1      12.815 -21.396 -15.957  1.00  0.00     0.050 C 
HETATM    2  C11 UNL     1      13.349 -20.138 -16.542  1.00  0.00     0.132 C 
HETATM    3  O4  UNL     1      14.429 -19.790 -15.763  1.00  0.00    -0.375 OA
HETATM    4  C27 UNL     1      14.837 -20.825 -14.970  1.00  0.00     0.174 C 
HETATM    5  C29 UNL     1      13.743 -21.865 -14.922  1.00  0.00     0.156 C 
ENDROOT
BRANCH   2   6
HETATM    6  C12 UNL     1      12.280 -19.044 -16.457  1.00  0.00     0.059 C 
BRANCH   6   7
HETATM    7  C13 UNL     1      11.243 -19.493 -15.490  1.00  0.00    -0.020 C 
BRANCH   7   8
HETATM    8  C14 UNL     1      10.092 -18.891 -15.334  1.00  0.00     0.052 C 
BRANCH   8   9
HETATM    9  C15 UNL     1       8.885 -18.999 -16.101  1.00  0.00     0.138 C 
BRANCH   9  10
HETATM   10  O2  UNL     1       7.781 -18.996 -15.407  1.00  0.00    -0.346 OA
ATOM     11  H2  UNL     1       7.646 -18.231 -14.861  1.00  0.00     0.219 HD
ENDBRANCH   9  10
BRANCH   9  12
HETATM   12  N2  UNL     1       8.744 -19.109 -17.504  1.00  0.00    -0.345 N 
HETATM   13  C16 UNL     1       9.176 -18.013 -18.382  1.00  0.00     0.088 C 
HETATM   14  C23 UNL     1       9.370 -18.629 -19.714  1.00  0.00     0.040 C 
HETATM   15  C24 UNL     1       8.458 -19.811 -19.724  1.00  0.00     0.090 A 
HETATM   16  C25 UNL     1       8.987 -21.046 -19.121  1.00  0.00     0.157 A 
HETATM   17  C26 UNL     1       8.190 -20.168 -18.286  1.00  0.00     0.168 A 
HETATM   18  O3  UNL     1       9.653 -22.045 -19.347  1.00  0.00    -0.295 OA
BRANCH  13  19
HETATM   19  C17 UNL     1       8.265 -16.839 -18.344  1.00  0.00     0.027 C 
BRANCH  19  20
HETATM   20  C18 UNL     1       8.591 -15.834 -17.257  1.00  0.00     0.032 C 
BRANCH  20  21
HETATM   21  C19 UNL     1       7.286 -15.253 -16.693  1.00  0.00     0.272 C 
BRANCH  21  22
HETATM   22  N3  UNL     1       7.243 -15.449 -15.252  1.00  0.00     0.088 N 
HETATM   23  C20 UNL     1       6.990 -14.177 -14.589  1.00  0.00     0.274 C 
HETATM   24  C21 UNL     1       7.908 -14.664 -13.483  1.00  0.00     0.060 C 
HETATM   25  C22 UNL     1       8.562 -15.443 -14.631  1.00  0.00     0.274 C 
ENDBRANCH  21  22
ENDBRANCH  20  21
ENDBRANCH  19  20
ENDBRANCH  13  19
ENDBRANCH   9  12
ENDBRANCH   8   9
ENDBRANCH   7   8
ENDBRANCH   6   7
ENDBRANCH   2   6
BRANCH   1  26
HETATM   26  C9  UNL     1      12.396 -22.397 -17.005  1.00  0.00     0.036 C 
BRANCH  26  27
HETATM   27  C8  UNL     1      12.854 -22.133 -18.365  1.00  0.00    -0.030 C 
HETATM   28  C7  UNL     1      13.532 -22.972 -19.118  1.00  0.00    -0.031 C 
BRANCH  28  29
HETATM   29  C6  UNL     1      13.954 -22.593 -20.516  1.00  0.00     0.027 C 
BRANCH  29  30
HETATM   30  C5  UNL     1      14.718 -23.698 -21.160  1.00  0.00     0.013 C 
BRANCH  30  31
HETATM   31  C4  UNL     1      15.310 -24.711 -20.238  1.00  0.00     0.103 C 
BRANCH  31  32
HETATM   32  C3  UNL     1      16.703 -24.454 -19.826  1.00  0.00     0.217 C 
HETATM   33  N1  UNL     1      16.951 -24.270 -18.434  1.00  0.00    -0.361 N 
ATOM     34  H1  UNL     1      16.171 -24.321 -17.780  1.00  0.00     0.162 HD
HETATM   35  O1  UNL     1      17.661 -24.389 -20.608  1.00  0.00    -0.274 OA
BRANCH  33  36
HETATM   36  C2  UNL     1      18.285 -24.012 -17.927  1.00  0.00     0.118 C 
HETATM   37  C1  UNL     1      18.757 -25.087 -16.964  1.00  0.00     0.026 C 
ENDBRANCH  33  36
ENDBRANCH  31  32
ENDBRANCH  30  31
ENDBRANCH  29  30
ENDBRANCH  28  29
ENDBRANCH  26  27
ENDBRANCH   1  26
BRANCH   5  38
HETATM   38  O6  UNL     1      14.297 -23.113 -15.065  1.00  0.00    -0.392 OA
ATOM     39  H6  UNL     1      15.241 -23.195 -14.999  1.00  0.00     0.210 HD
ENDBRANCH   5  38
BRANCH   4  40
HETATM   40  C28 UNL     1      16.131 -21.389 -15.526  1.00  0.00     0.198 C 
BRANCH  40  41
HETATM   41  O5  UNL     1      16.034 -21.657 -16.879  1.00  0.00    -0.398 OA
ATOM     42  H5  UNL     1      15.932 -20.862 -17.388  1.00  0.00     0.209 HD
ENDBRANCH  40  41
ENDBRANCH   4  40
TORSDOF 20
ENDMDL
