MODEL 1
REMARK VINA RESULT: -7.644702644      0.000      0.000
REMARK  14 active torsions:
REMARK  status: ('A' for Active; 'I' for Inactive)
REMARK    1  A    between atoms: C3_3  and  N1_4 
REMARK       I    between atoms: N1_4  and  C4_6 
REMARK    2  A    between atoms: C4_6  and  C5_8 
REMARK    3  A    between atoms: C5_8  and  C6_9 
REMARK    4  A    between atoms: C5_8  and  N2_11 
REMARK    5  A    between atoms: N2_11  and  C8_12 
REMARK       I    between atoms: N2_11  and  C12_16 
REMARK    6  A    between atoms: C8_12  and  C9_13 
REMARK    7  A    between atoms: C12_16  and  C13_18 
REMARK       I    between atoms: N3_22  and  C17_23 
REMARK    8  A    between atoms: C17_23  and  C18_25 
REMARK    9  A    between atoms: C18_25  and  C19_26 
REMARK   10  A    between atoms: C18_25  and  N4_30 
REMARK   11  A    between atoms: C19_26  and  C20_27 
REMARK   12  A    between atoms: C20_27  and  C21_28 
REMARK       I    between atoms: N4_30  and  C23_32 
REMARK   13  A    between atoms: C23_32  and  C24_34 
REMARK   14  A    between atoms: C24_34  and  C25_35 
ROOT
HETATM    1  C1  UNL     1      18.489 -23.503 -16.516  1.00  0.00     0.014 C 
HETATM    2  C2  UNL     1      17.565 -23.201 -17.207  1.00  0.00    -0.098 C 
HETATM    3  C3  UNL     1      16.426 -22.811 -18.039  1.00  0.00     0.216 C 
ENDROOT
BRANCH   3   4
HETATM    4  N1  UNL     1      15.509 -22.038 -17.198  1.00  0.00    -0.349 N 
HETATM    5  C4  UNL     1      14.872 -20.884 -17.686  1.00  0.00     0.241 C 
HETATM    6  O1  UNL     1      15.083 -20.507 -18.853  1.00  0.00    -0.271 OA
ATOM      7  H1  UNL     1      15.329 -22.343 -16.242  1.00  0.00     0.163 HD
BRANCH   5   8
HETATM    8  C5  UNL     1      13.932 -20.097 -16.820  1.00  0.00     0.179 C 
BRANCH   8   9
HETATM    9  C6  UNL     1      14.349 -20.209 -15.413  1.00  0.00     0.030 C 
HETATM   10  C7  UNL     1      15.745 -19.658 -15.216  1.00  0.00     0.007 C 
ENDBRANCH   8   9
BRANCH   8  11
HETATM   11  N2  UNL     1      12.571 -20.347 -17.166  1.00  0.00    -0.337 N 
HETATM   12  C12 UNL     1      11.901 -19.303 -17.948  1.00  0.00     0.243 C 
HETATM   13  O2  UNL     1      12.565 -18.272 -18.191  1.00  0.00    -0.271 OA
BRANCH  11  14
HETATM   14  C8  UNL     1      11.767 -21.490 -16.900  1.00  0.00     0.131 C 
BRANCH  14  15
HETATM   15  C9  UNL     1      11.613 -22.574 -17.875  1.00  0.00     0.004 A 
HETATM   16  C10 UNL     1      12.268 -22.781 -19.183  1.00  0.00     0.007 A 
HETATM   17  C11 UNL     1      12.687 -23.611 -18.031  1.00  0.00     0.007 A 
ENDBRANCH  14  15
ENDBRANCH  11  14
BRANCH  12  18
HETATM   18  C13 UNL     1      10.527 -19.425 -18.436  1.00  0.00     0.179 C 
HETATM   19  C14 UNL     1      10.633 -19.273 -19.966  1.00  0.00     0.037 C 
HETATM   20  C15 UNL     1       9.602 -18.287 -20.392  1.00  0.00     0.022 C 
HETATM   21  C16 UNL     1       8.797 -18.005 -19.159  1.00  0.00     0.127 C 
HETATM   22  N3  UNL     1       9.653 -18.305 -18.033  1.00  0.00    -0.337 N 
HETATM   23  C17 UNL     1       9.617 -17.690 -16.776  1.00  0.00     0.243 C 
HETATM   24  O3  UNL     1      10.400 -18.185 -15.870  1.00  0.00    -0.271 OA
BRANCH  23  25
HETATM   25  C18 UNL     1       8.813 -16.547 -16.311  1.00  0.00     0.176 C 
BRANCH  25  26
HETATM   26  C19 UNL     1       9.292 -15.836 -15.100  1.00  0.00     0.035 C 
BRANCH  26  27
HETATM   27  C20 UNL     1       8.301 -15.978 -13.969  1.00  0.00     0.002 C 
BRANCH  27  28
HETATM   28  C21 UNL     1       7.916 -14.636 -13.376  1.00  0.00    -0.004 C 
HETATM   29  C22 UNL     1       6.801 -13.953 -14.103  1.00  0.00     0.005 C 
ENDBRANCH  27  28
ENDBRANCH  26  27
ENDBRANCH  25  26
BRANCH  25  30
HETATM   30  N4  UNL     1       7.426 -16.949 -16.112  1.00  0.00    -0.348 N 
HETATM   31  C23 UNL     1       6.329 -16.478 -16.852  1.00  0.00     0.221 C 
HETATM   32  O4  UNL     1       6.516 -15.656 -17.766  1.00  0.00    -0.274 OA
ATOM     33  H4  UNL     1       7.236 -17.629 -15.375  1.00  0.00     0.163 HD
BRANCH  31  34
HETATM   34  C24 UNL     1       4.966 -16.952 -16.553  1.00  0.00     0.146 C 
BRANCH  34  35
HETATM   35  C25 UNL     1       4.303 -17.434 -17.814  1.00  0.00     0.255 C 
HETATM   36  N5  UNL     1       5.046 -18.405 -18.544  1.00  0.00    -0.061 N 
HETATM   37  C26 UNL     1       4.122 -19.110 -19.410  1.00  0.00     0.243 C 
ATOM     38  H52 UNL     1       5.834 -18.002 -19.051  1.00  0.00     0.278 HD
ATOM     39  H51 UNL     1       5.580 -19.031 -17.941  1.00  0.00     0.278 HD
HETATM   40  C27 UNL     1       3.085 -19.779 -18.531  1.00  0.00     0.103 C 
HETATM   41  S1  UNL     1       2.863 -18.450 -17.284  1.00  0.00    -0.134 SA
ENDBRANCH  34  35
ENDBRANCH  31  34
ENDBRANCH  25  30
ENDBRANCH  23  25
ENDBRANCH  12  18
ENDBRANCH   8  11
ENDBRANCH   5   8
ENDBRANCH   3   4
TORSDOF 14
ENDMDL
MODEL 2
REMARK VINA RESULT: -7.570229822      1.658      2.165
REMARK  14 active torsions:
REMARK  status: ('A' for Active; 'I' for Inactive)
REMARK    1  A    between atoms: C3_3  and  N1_4 
REMARK       I    between atoms: N1_4  and  C4_6 
REMARK    2  A    between atoms: C4_6  and  C5_8 
REMARK    3  A    between atoms: C5_8  and  C6_9 
REMARK    4  A    between atoms: C5_8  and  N2_11 
REMARK    5  A    between atoms: N2_11  and  C8_12 
REMARK       I    between atoms: N2_11  and  C12_16 
REMARK    6  A    between atoms: C8_12  and  C9_13 
REMARK    7  A    between atoms: C12_16  and  C13_18 
REMARK       I    between atoms: N3_22  and  C17_23 
REMARK    8  A    between atoms: C17_23  and  C18_25 
REMARK    9  A    between atoms: C18_25  and  C19_26 
REMARK   10  A    between atoms: C18_25  and  N4_30 
REMARK   11  A    between atoms: C19_26  and  C20_27 
REMARK   12  A    between atoms: C20_27  and  C21_28 
REMARK       I    between atoms: N4_30  and  C23_32 
REMARK   13  A    between atoms: C23_32  and  C24_34 
REMARK   14  A    between atoms: C24_34  and  C25_35 
ROOT
HETATM    1  C1  UNL     1      16.457 -24.562 -20.412  1.00  0.00     0.014 C 
HETATM    2  C2  UNL     1      16.762 -24.108 -19.351  1.00  0.00    -0.098 C 
HETATM    3  C3  UNL     1      17.113 -23.538 -18.050  1.00  0.00     0.216 C 
ENDROOT
BRANCH   3   4
HETATM    4  N1  UNL     1      16.283 -22.347 -17.851  1.00  0.00    -0.349 N 
HETATM    5  C4  UNL     1      15.639 -22.105 -16.625  1.00  0.00     0.241 C 
HETATM    6  O1  UNL     1      15.774 -22.910 -15.686  1.00  0.00    -0.271 OA
ATOM      7  H1  UNL     1      16.171 -21.681 -18.616  1.00  0.00     0.163 HD
BRANCH   5   8
HETATM    8  C5  UNL     1      14.791 -20.883 -16.427  1.00  0.00     0.179 C 
BRANCH   8   9
HETATM    9  C6  UNL     1      15.027 -20.332 -15.082  1.00  0.00     0.030 C 
HETATM   10  C7  UNL     1      16.244 -19.432 -15.072  1.00  0.00     0.007 C 
ENDBRANCH   8   9
BRANCH   8  11
HETATM   11  N2  UNL     1      13.451 -21.102 -16.865  1.00  0.00    -0.337 N 
HETATM   12  C12 UNL     1      12.780 -19.957 -17.489  1.00  0.00     0.243 C 
HETATM   13  O2  UNL     1      13.423 -18.886 -17.530  1.00  0.00    -0.271 OA
BRANCH  11  14
HETATM   14  C8  UNL     1      12.671 -22.291 -16.825  1.00  0.00     0.131 C 
BRANCH  14  15
HETATM   15  C9  UNL     1      12.443 -23.109 -18.021  1.00  0.00     0.004 A 
HETATM   16  C10 UNL     1      13.202 -23.181 -19.287  1.00  0.00     0.007 A 
HETATM   17  C11 UNL     1      13.324 -24.289 -18.312  1.00  0.00     0.007 A 
ENDBRANCH  14  15
ENDBRANCH  11  14
BRANCH  12  18
HETATM   18  C13 UNL     1      11.430 -20.026 -18.047  1.00  0.00     0.179 C 
HETATM   19  C14 UNL     1      11.596 -19.681 -19.539  1.00  0.00     0.037 C 
HETATM   20  C15 UNL     1      10.572 -18.657 -19.880  1.00  0.00     0.022 C 
HETATM   21  C16 UNL     1       9.713 -18.539 -18.657  1.00  0.00     0.127 C 
HETATM   22  N3  UNL     1      10.525 -18.973 -17.542  1.00  0.00    -0.337 N 
HETATM   23  C17 UNL     1      10.430 -18.522 -16.221  1.00  0.00     0.243 C 
HETATM   24  O3  UNL     1      11.182 -19.122 -15.353  1.00  0.00    -0.271 OA
BRANCH  23  25
HETATM   25  C18 UNL     1       9.594 -17.454 -15.650  1.00  0.00     0.176 C 
BRANCH  25  26
HETATM   26  C19 UNL     1       9.767 -17.162 -14.205  1.00  0.00     0.035 C 
BRANCH  26  27
HETATM   27  C20 UNL     1       9.688 -15.677 -13.945  1.00  0.00     0.002 C 
BRANCH  27  28
HETATM   28  C21 UNL     1       8.472 -15.307 -13.118  1.00  0.00    -0.004 C 
HETATM   29  C22 UNL     1       7.601 -14.269 -13.755  1.00  0.00     0.005 C 
ENDBRANCH  27  28
ENDBRANCH  26  27
ENDBRANCH  25  26
BRANCH  25  30
HETATM   30  N4  UNL     1       8.184 -17.712 -15.919  1.00  0.00    -0.348 N 
HETATM   31  C23 UNL     1       7.302 -16.823 -16.555  1.00  0.00     0.221 C 
HETATM   32  O4  UNL     1       7.721 -15.718 -16.942  1.00  0.00    -0.274 OA
ATOM     33  H4  UNL     1       7.808 -18.613 -15.622  1.00  0.00     0.163 HD
BRANCH  31  34
HETATM   34  C24 UNL     1       5.892 -17.193 -16.766  1.00  0.00     0.146 C 
BRANCH  34  35
HETATM   35  C25 UNL     1       5.028 -16.535 -15.724  1.00  0.00     0.255 C 
HETATM   36  N5  UNL     1       4.826 -15.138 -15.913  1.00  0.00    -0.061 N 
HETATM   37  C26 UNL     1       3.639 -14.758 -15.175  1.00  0.00     0.243 C 
ATOM     38  H52 UNL     1       5.644 -14.582 -15.662  1.00  0.00     0.278 HD
ATOM     39  H51 UNL     1       4.781 -14.874 -16.898  1.00  0.00     0.278 HD
HETATM   40  C27 UNL     1       2.474 -15.549 -15.735  1.00  0.00     0.103 C 
HETATM   41  S1  UNL     1       3.319 -17.157 -16.003  1.00  0.00    -0.134 SA
ENDBRANCH  34  35
ENDBRANCH  31  34
ENDBRANCH  25  30
ENDBRANCH  23  25
ENDBRANCH  12  18
ENDBRANCH   8  11
ENDBRANCH   5   8
ENDBRANCH   3   4
TORSDOF 14
ENDMDL
MODEL 3
REMARK VINA RESULT: -7.566408498      3.877     10.328
REMARK  14 active torsions:
REMARK  status: ('A' for Active; 'I' for Inactive)
REMARK    1  A    between atoms: C3_3  and  N1_4 
REMARK       I    between atoms: N1_4  and  C4_6 
REMARK    2  A    between atoms: C4_6  and  C5_8 
REMARK    3  A    between atoms: C5_8  and  C6_9 
REMARK    4  A    between atoms: C5_8  and  N2_11 
REMARK    5  A    between atoms: N2_11  and  C8_12 
REMARK       I    between atoms: N2_11  and  C12_16 
REMARK    6  A    between atoms: C8_12  and  C9_13 
REMARK    7  A    between atoms: C12_16  and  C13_18 
REMARK       I    between atoms: N3_22  and  C17_23 
REMARK    8  A    between atoms: C17_23  and  C18_25 
REMARK    9  A    between atoms: C18_25  and  C19_26 
REMARK   10  A    between atoms: C18_25  and  N4_30 
REMARK   11  A    between atoms: C19_26  and  C20_27 
REMARK   12  A    between atoms: C20_27  and  C21_28 
REMARK       I    between atoms: N4_30  and  C23_32 
REMARK   13  A    between atoms: C23_32  and  C24_34 
REMARK   14  A    between atoms: C24_34  and  C25_35 
ROOT
HETATM    1  C1  UNL     1       6.197 -16.230 -15.340  1.00  0.00     0.014 C 
HETATM    2  C2  UNL     1       7.329 -16.015 -15.031  1.00  0.00    -0.098 C 
HETATM    3  C3  UNL     1       8.725 -15.758 -14.677  1.00  0.00     0.216 C 
ENDROOT
BRANCH   3   4
HETATM    4  N1  UNL     1       9.564 -16.477 -15.639  1.00  0.00    -0.349 N 
HETATM    5  C4  UNL     1      10.621 -17.300 -15.209  1.00  0.00     0.241 C 
HETATM    6  O1  UNL     1      10.852 -17.426 -13.994  1.00  0.00    -0.271 OA
ATOM      7  H1  UNL     1       9.379 -16.380 -16.637  1.00  0.00     0.163 HD
BRANCH   5   8
HETATM    8  C5  UNL     1      11.477 -18.035 -16.199  1.00  0.00     0.179 C 
BRANCH   8   9
HETATM    9  C6  UNL     1      11.169 -17.567 -17.560  1.00  0.00     0.030 C 
HETATM   10  C7  UNL     1      12.296 -17.897 -18.514  1.00  0.00     0.007 C 
ENDBRANCH   8   9
BRANCH   8  11
HETATM   11  N2  UNL     1      11.497 -19.436 -15.932  1.00  0.00    -0.337 N 
HETATM   12  C12 UNL     1      12.801 -20.010 -15.583  1.00  0.00     0.243 C 
HETATM   13  O2  UNL     1      13.778 -19.231 -15.605  1.00  0.00    -0.271 OA
BRANCH  11  14
HETATM   14  C8  UNL     1      10.421 -20.367 -15.910  1.00  0.00     0.131 C 
BRANCH  14  15
HETATM   15  C9  UNL     1       9.875 -20.950 -17.140  1.00  0.00     0.004 A 
HETATM   16  C10 UNL     1      10.466 -21.056 -18.490  1.00  0.00     0.007 A 
HETATM   17  C11 UNL     1      10.383 -22.269 -17.644  1.00  0.00     0.007 A 
ENDBRANCH  14  15
ENDBRANCH  11  14
BRANCH  12  18
HETATM   18  C13 UNL     1      12.987 -21.414 -15.221  1.00  0.00     0.179 C 
HETATM   19  C14 UNL     1      13.445 -21.391 -13.750  1.00  0.00     0.037 C 
HETATM   20  C15 UNL     1      14.638 -22.272 -13.637  1.00  0.00     0.022 C 
HETATM   21  C16 UNL     1      14.766 -22.934 -14.976  1.00  0.00     0.127 C 
HETATM   22  N3  UNL     1      14.110 -22.064 -15.927  1.00  0.00    -0.337 N 
HETATM   23  C17 UNL     1      14.442 -21.913 -17.279  1.00  0.00     0.243 C 
HETATM   24  O3  UNL     1      13.656 -21.160 -17.983  1.00  0.00    -0.271 OA
BRANCH  23  25
HETATM   25  C18 UNL     1      15.564 -22.484 -18.042  1.00  0.00     0.176 C 
BRANCH  25  26
HETATM   26  C19 UNL     1      15.274 -22.945 -19.422  1.00  0.00     0.035 C 
BRANCH  26  27
HETATM   27  C20 UNL     1      14.733 -24.355 -19.414  1.00  0.00     0.002 C 
BRANCH  27  28
HETATM   28  C21 UNL     1      15.410 -25.231 -20.450  1.00  0.00    -0.004 C 
HETATM   29  C22 UNL     1      16.778 -24.762 -20.837  1.00  0.00     0.005 C 
ENDBRANCH  27  28
ENDBRANCH  26  27
ENDBRANCH  25  26
BRANCH  25  30
HETATM   30  N4  UNL     1      16.183 -23.572 -17.295  1.00  0.00    -0.348 N 
HETATM   31  C23 UNL     1      17.555 -23.878 -17.291  1.00  0.00     0.221 C 
HETATM   32  O4  UNL     1      18.338 -23.181 -17.960  1.00  0.00    -0.274 OA
ATOM     33  H4  UNL     1      15.571 -24.160 -16.728  1.00  0.00     0.163 HD
BRANCH  31  34
HETATM   34  C24 UNL     1      18.065 -25.012 -16.502  1.00  0.00     0.146 C 
BRANCH  34  35
HETATM   35  C25 UNL     1      18.809 -24.504 -15.297  1.00  0.00     0.255 C 
HETATM   36  N5  UNL     1      18.572 -23.134 -14.984  1.00  0.00    -0.061 N 
HETATM   37  C26 UNL     1      18.931 -22.929 -13.595  1.00  0.00     0.243 C 
ATOM     38  H52 UNL     1      19.054 -22.495 -15.616  1.00  0.00     0.278 HD
ATOM     39  H51 UNL     1      17.618 -22.840 -15.194  1.00  0.00     0.278 HD
HETATM   40  C27 UNL     1      18.052 -23.831 -12.753  1.00  0.00     0.103 C 
HETATM   41  S1  UNL     1      18.040 -25.314 -13.835  1.00  0.00    -0.134 SA
ENDBRANCH  34  35
ENDBRANCH  31  34
ENDBRANCH  25  30
ENDBRANCH  23  25
ENDBRANCH  12  18
ENDBRANCH   8  11
ENDBRANCH   5   8
ENDBRANCH   3   4
TORSDOF 14
ENDMDL
MODEL 4
REMARK VINA RESULT: -7.471540488      2.074      2.825
REMARK  14 active torsions:
REMARK  status: ('A' for Active; 'I' for Inactive)
REMARK    1  A    between atoms: C3_3  and  N1_4 
REMARK       I    between atoms: N1_4  and  C4_6 
REMARK    2  A    between atoms: C4_6  and  C5_8 
REMARK    3  A    between atoms: C5_8  and  C6_9 
REMARK    4  A    between atoms: C5_8  and  N2_11 
REMARK    5  A    between atoms: N2_11  and  C8_12 
REMARK       I    between atoms: N2_11  and  C12_16 
REMARK    6  A    between atoms: C8_12  and  C9_13 
REMARK    7  A    between atoms: C12_16  and  C13_18 
REMARK       I    between atoms: N3_22  and  C17_23 
REMARK    8  A    between atoms: C17_23  and  C18_25 
REMARK    9  A    between atoms: C18_25  and  C19_26 
REMARK   10  A    between atoms: C18_25  and  N4_30 
REMARK   11  A    between atoms: C19_26  and  C20_27 
REMARK   12  A    between atoms: C20_27  and  C21_28 
REMARK       I    between atoms: N4_30  and  C23_32 
REMARK   13  A    between atoms: C23_32  and  C24_34 
REMARK   14  A    between atoms: C24_34  and  C25_35 
ROOT
HETATM    1  C1  UNL     1      14.393 -22.023 -19.534  1.00  0.00     0.014 C 
HETATM    2  C2  UNL     1      14.632 -21.305 -18.611  1.00  0.00    -0.098 C 
HETATM    3  C3  UNL     1      14.900 -20.422 -17.476  1.00  0.00     0.216 C 
ENDROOT
BRANCH   3   4
HETATM    4  N1  UNL     1      13.727 -19.562 -17.299  1.00  0.00    -0.349 N 
HETATM    5  C4  UNL     1      12.883 -19.703 -16.184  1.00  0.00     0.241 C 
HETATM    6  O1  UNL     1      13.131 -20.569 -15.326  1.00  0.00    -0.271 OA
ATOM      7  H1  UNL     1      13.519 -18.848 -17.998  1.00  0.00     0.163 HD
BRANCH   5   8
HETATM    8  C5  UNL     1      11.683 -18.819 -16.008  1.00  0.00     0.179 C 
BRANCH   8   9
HETATM    9  C6  UNL     1      11.512 -18.500 -14.581  1.00  0.00     0.030 C 
HETATM   10  C7  UNL     1      10.751 -17.204 -14.404  1.00  0.00     0.007 C 
ENDBRANCH   8   9
BRANCH   8  11
HETATM   11  N2  UNL     1      10.566 -19.301 -16.753  1.00  0.00    -0.337 N 
HETATM   12  C12 UNL     1      10.037 -18.399 -17.781  1.00  0.00     0.243 C 
HETATM   13  O2  UNL     1      10.577 -17.275 -17.871  1.00  0.00    -0.271 OA
BRANCH  11  14
HETATM   14  C8  UNL     1       9.906 -20.559 -16.679  1.00  0.00     0.131 C 
BRANCH  14  15
HETATM   15  C9  UNL     1      10.063 -21.580 -17.720  1.00  0.00     0.004 A 
HETATM   16  C10 UNL     1      11.080 -21.711 -18.784  1.00  0.00     0.007 A 
HETATM   17  C11 UNL     1      11.147 -22.613 -17.612  1.00  0.00     0.007 A 
ENDBRANCH  14  15
ENDBRANCH  11  14
BRANCH  12  18
HETATM   18  C13 UNL     1       8.937 -18.760 -18.674  1.00  0.00     0.179 C 
HETATM   19  C14 UNL     1       9.431 -18.391 -20.086  1.00  0.00     0.037 C 
HETATM   20  C15 UNL     1       8.351 -17.613 -20.751  1.00  0.00     0.022 C 
HETATM   21  C16 UNL     1       7.184 -17.680 -19.812  1.00  0.00     0.127 C 
HETATM   22  N3  UNL     1       7.731 -17.925 -18.496  1.00  0.00    -0.337 N 
HETATM   23  C17 UNL     1       7.185 -17.503 -17.279  1.00  0.00     0.243 C 
HETATM   24  O3  UNL     1       7.777 -17.924 -16.206  1.00  0.00    -0.271 OA
BRANCH  23  25
HETATM   25  C18 UNL     1       6.022 -16.638 -17.019  1.00  0.00     0.176 C 
BRANCH  25  26
HETATM   26  C19 UNL     1       5.979 -15.943 -15.709  1.00  0.00     0.035 C 
BRANCH  26  27
HETATM   27  C20 UNL     1       6.681 -14.608 -15.787  1.00  0.00     0.002 C 
BRANCH  27  28
HETATM   28  C21 UNL     1       7.967 -14.593 -14.982  1.00  0.00    -0.004 C 
HETATM   29  C22 UNL     1       7.753 -14.657 -13.502  1.00  0.00     0.005 C 
ENDBRANCH  27  28
ENDBRANCH  26  27
ENDBRANCH  25  26
BRANCH  25  30
HETATM   30  N4  UNL     1       4.783 -17.384 -17.206  1.00  0.00    -0.348 N 
HETATM   31  C23 UNL     1       3.836 -17.147 -18.217  1.00  0.00     0.221 C 
HETATM   32  O4  UNL     1       4.039 -16.241 -19.044  1.00  0.00    -0.274 OA
ATOM     33  H4  UNL     1       4.588 -18.140 -16.549  1.00  0.00     0.163 HD
BRANCH  31  34
HETATM   34  C24 UNL     1       2.613 -17.963 -18.300  1.00  0.00     0.146 C 
BRANCH  34  35
HETATM   35  C25 UNL     1       2.878 -19.203 -19.109  1.00  0.00     0.255 C 
HETATM   36  N5  UNL     1       3.259 -20.343 -18.345  1.00  0.00    -0.061 N 
HETATM   37  C26 UNL     1       3.005 -21.521 -19.150  1.00  0.00     0.243 C 
ATOM     38  H52 UNL     1       4.221 -20.292 -18.010  1.00  0.00     0.278 HD
ATOM     39  H51 UNL     1       2.801 -20.380 -17.434  1.00  0.00     0.278 HD
HETATM   40  C27 UNL     1       1.523 -21.556 -19.463  1.00  0.00     0.103 C 
HETATM   41  S1  UNL     1       1.246 -19.763 -19.747  1.00  0.00    -0.134 SA
ENDBRANCH  34  35
ENDBRANCH  31  34
ENDBRANCH  25  30
ENDBRANCH  23  25
ENDBRANCH  12  18
ENDBRANCH   8  11
ENDBRANCH   5   8
ENDBRANCH   3   4
TORSDOF 14
ENDMDL
MODEL 5
REMARK VINA RESULT: -7.447883013      3.352      9.405
REMARK  14 active torsions:
REMARK  status: ('A' for Active; 'I' for Inactive)
REMARK    1  A    between atoms: C3_3  and  N1_4 
REMARK       I    between atoms: N1_4  and  C4_6 
REMARK    2  A    between atoms: C4_6  and  C5_8 
REMARK    3  A    between atoms: C5_8  and  C6_9 
REMARK    4  A    between atoms: C5_8  and  N2_11 
REMARK    5  A    between atoms: N2_11  and  C8_12 
REMARK       I    between atoms: N2_11  and  C12_16 
REMARK    6  A    between atoms: C8_12  and  C9_13 
REMARK    7  A    between atoms: C12_16  and  C13_18 
REMARK       I    between atoms: N3_22  and  C17_23 
REMARK    8  A    between atoms: C17_23  and  C18_25 
REMARK    9  A    between atoms: C18_25  and  C19_26 
REMARK   10  A    between atoms: C18_25  and  N4_30 
REMARK   11  A    between atoms: C19_26  and  C20_27 
REMARK   12  A    between atoms: C20_27  and  C21_28 
REMARK       I    between atoms: N4_30  and  C23_32 
REMARK   13  A    between atoms: C23_32  and  C24_34 
REMARK   14  A    between atoms: C24_34  and  C25_35 
ROOT
HETATM    1  C1  UNL     1       3.655 -17.985 -17.938  1.00  0.00     0.014 C 
HETATM    2  C2  UNL     1       4.162 -17.515 -16.966  1.00  0.00    -0.098 C 
HETATM    3  C3  UNL     1       4.807 -16.946 -15.782  1.00  0.00     0.216 C 
ENDROOT
BRANCH   3   4
HETATM    4  N1  UNL     1       6.106 -17.606 -15.627  1.00  0.00    -0.349 N 
HETATM    5  C4  UNL     1       7.187 -16.950 -15.013  1.00  0.00     0.241 C 
HETATM    6  O1  UNL     1       7.046 -15.789 -14.588  1.00  0.00    -0.271 OA
ATOM      7  H1  UNL     1       6.228 -18.559 -15.970  1.00  0.00     0.163 HD
BRANCH   5   8
HETATM    8  C5  UNL     1       8.515 -17.631 -14.856  1.00  0.00     0.179 C 
BRANCH   8   9
HETATM    9  C6  UNL     1       9.265 -17.000 -13.758  1.00  0.00     0.030 C 
HETATM   10  C7  UNL     1      10.754 -17.219 -13.924  1.00  0.00     0.007 C 
ENDBRANCH   8   9
BRANCH   8  11
HETATM   11  N2  UNL     1       9.154 -17.823 -16.117  1.00  0.00    -0.337 N 
HETATM   12  C12 UNL     1       9.296 -19.213 -16.564  1.00  0.00     0.243 C 
HETATM   13  O2  UNL     1       8.894 -20.098 -15.778  1.00  0.00    -0.271 OA
BRANCH  11  14
HETATM   14  C8  UNL     1       9.643 -16.856 -17.038  1.00  0.00     0.131 C 
BRANCH  14  15
HETATM   15  C9  UNL     1       8.857 -16.423 -18.198  1.00  0.00     0.004 A 
HETATM   16  C10 UNL     1       7.465 -16.739 -18.580  1.00  0.00     0.007 A 
HETATM   17  C11 UNL     1       7.773 -15.396 -18.038  1.00  0.00     0.007 A 
ENDBRANCH  14  15
ENDBRANCH  11  14
BRANCH  12  18
HETATM   18  C13 UNL     1       9.872 -19.583 -17.856  1.00  0.00     0.179 C 
HETATM   19  C14 UNL     1       8.705 -20.201 -18.651  1.00  0.00     0.037 C 
HETATM   20  C15 UNL     1       9.186 -21.484 -19.231  1.00  0.00     0.022 C 
HETATM   21  C16 UNL     1      10.654 -21.525 -18.928  1.00  0.00     0.127 C 
HETATM   22  N3  UNL     1      10.858 -20.680 -17.774  1.00  0.00    -0.337 N 
HETATM   23  C17 UNL     1      11.845 -20.837 -16.794  1.00  0.00     0.243 C 
HETATM   24  O3  UNL     1      11.923 -19.903 -15.899  1.00  0.00    -0.271 OA
BRANCH  23  25
HETATM   25  C18 UNL     1      12.829 -21.918 -16.615  1.00  0.00     0.176 C 
BRANCH  25  26
HETATM   26  C19 UNL     1      13.586 -21.936 -15.339  1.00  0.00     0.035 C 
BRANCH  26  27
HETATM   27  C20 UNL     1      15.034 -22.290 -15.579  1.00  0.00     0.002 C 
BRANCH  27  28
HETATM   28  C21 UNL     1      15.978 -21.268 -14.976  1.00  0.00    -0.004 C 
HETATM   29  C22 UNL     1      15.652 -19.854 -15.343  1.00  0.00     0.005 C 
ENDBRANCH  27  28
ENDBRANCH  26  27
ENDBRANCH  25  26
BRANCH  25  30
HETATM   30  N4  UNL     1      13.771 -21.936 -17.729  1.00  0.00    -0.348 N 
HETATM   31  C23 UNL     1      13.966 -23.013 -18.610  1.00  0.00     0.221 C 
HETATM   32  O4  UNL     1      13.294 -24.049 -18.467  1.00  0.00    -0.274 OA
ATOM     33  H4  UNL     1      14.334 -21.098 -17.880  1.00  0.00     0.163 HD
BRANCH  31  34
HETATM   34  C24 UNL     1      14.956 -22.918 -19.697  1.00  0.00     0.146 C 
BRANCH  34  35
HETATM   35  C25 UNL     1      15.429 -24.293 -20.081  1.00  0.00     0.255 C 
HETATM   36  N5  UNL     1      16.102 -24.364 -21.335  1.00  0.00    -0.061 N 
HETATM   37  C26 UNL     1      16.898 -25.574 -21.342  1.00  0.00     0.243 C 
ATOM     38  H52 UNL     1      15.466 -24.303 -22.130  1.00  0.00     0.278 HD
ATOM     39  H51 UNL     1      16.651 -23.528 -21.537  1.00  0.00     0.278 HD
HETATM   40  C27 UNL     1      17.894 -25.480 -20.204  1.00  0.00     0.103 C 
HETATM   41  S1  UNL     1      16.813 -24.702 -18.940  1.00  0.00    -0.134 SA
ENDBRANCH  34  35
ENDBRANCH  31  34
ENDBRANCH  25  30
ENDBRANCH  23  25
ENDBRANCH  12  18
ENDBRANCH   8  11
ENDBRANCH   5   8
ENDBRANCH   3   4
TORSDOF 14
ENDMDL
