MODEL 1
REMARK VINA RESULT: -8.476591055      0.000      0.000
REMARK  15 active torsions:
REMARK  status: ('A' for Active; 'I' for Inactive)
REMARK    1  A    between atoms: C2_2  and  C3_3 
REMARK    2  A    between atoms: C3_3  and  C4_4 
REMARK    3  A    between atoms: C4_4  and  C5_5 
REMARK    4  A    between atoms: C5_5  and  C6_6 
REMARK    5  A    between atoms: C6_6  and  O1_7 
REMARK    6  A    between atoms: O1_7  and  C7_8 
REMARK       I    between atoms: C7_8  and  N1_10 
REMARK       I    between atoms: N2_13  and  C10_14 
REMARK    7  A    between atoms: C10_14  and  C11_16 
REMARK    8  A    between atoms: C11_16  and  C12_17 
REMARK    9  A    between atoms: C11_16  and  N6_25 
REMARK   10  A    between atoms: C12_17  and  C13_18 
REMARK   11  A    between atoms: C13_18  and  C14_19 
REMARK   12  A    between atoms: C14_19  and  N3_20 
REMARK       I    between atoms: N6_25  and  C16_27 
REMARK   13  A    between atoms: C16_27  and  C17_29 
REMARK   14  A    between atoms: N7_32  and  C20_33 
REMARK   15  A    between atoms: C20_33  and  C21_34 
ROOT
HETATM    1  C11 UNL     1      10.856 -19.941 -18.968  1.00  0.00     0.176 C 
ENDROOT
BRANCH   1   2
HETATM    2  C10 UNL     1      11.540 -21.193 -18.645  1.00  0.00     0.242 C 
HETATM    3  N2  UNL     1      12.824 -21.372 -18.112  1.00  0.00    -0.347 N 
HETATM    4  C9  UNL     1      13.658 -20.259 -17.752  1.00  0.00     0.146 C 
HETATM    5  C26 UNL     1      13.345 -22.719 -17.916  1.00  0.00     0.146 C 
HETATM    6  C8  UNL     1      14.669 -20.615 -16.682  1.00  0.00     0.148 C 
HETATM    7  N1  UNL     1      15.329 -21.854 -16.978  1.00  0.00    -0.325 N 
HETATM    8  C7  UNL     1      16.420 -22.270 -16.161  1.00  0.00     0.362 C 
HETATM    9  C27 UNL     1      14.864 -22.672 -18.109  1.00  0.00     0.148 C 
HETATM   10  O2  UNL     1      16.757 -21.530 -15.208  1.00  0.00    -0.238 OA
HETATM   11  O3  UNL     1      10.882 -22.285 -18.872  1.00  0.00    -0.271 OA
BRANCH   8  12
HETATM   12  O1  UNL     1      17.117 -23.422 -16.354  1.00  0.00    -0.304 OA
BRANCH  12  13
HETATM   13  C6  UNL     1      18.349 -23.605 -16.998  1.00  0.00     0.180 C 
BRANCH  13  14
HETATM   14  C5  UNL     1      18.334 -24.910 -17.746  1.00  0.00     0.027 C 
BRANCH  14  15
HETATM   15  C4  UNL     1      17.603 -24.799 -19.069  1.00  0.00     0.002 C 
BRANCH  15  16
HETATM   16  C3  UNL     1      18.117 -25.826 -20.016  1.00  0.00    -0.000 C 
BRANCH  16  17
HETATM   17  C2  UNL     1      17.181 -25.832 -21.237  1.00  0.00    -0.005 C 
HETATM   18  C1  UNL     1      16.016 -24.938 -20.865  1.00  0.00     0.005 C 
ENDBRANCH  16  17
ENDBRANCH  15  16
ENDBRANCH  14  15
ENDBRANCH  13  14
ENDBRANCH  12  13
ENDBRANCH   8  12
ENDBRANCH   1   2
BRANCH   1  19
HETATM   19  C12 UNL     1       9.903 -19.935 -20.089  1.00  0.00     0.036 C 
BRANCH  19  20
HETATM   20  C13 UNL     1       9.762 -18.777 -20.977  1.00  0.00     0.022 C 
BRANCH  20  21
HETATM   21  C14 UNL     1       8.395 -18.205 -21.096  1.00  0.00     0.122 C 
BRANCH  21  22
HETATM   22  N3  UNL     1       8.343 -16.976 -20.274  1.00  0.00    -0.367 N 
HETATM   23  C15 UNL     1       7.818 -16.927 -19.121  1.00  0.00     0.196 C 
HETATM   24  N4  UNL     1       7.841 -15.677 -18.446  1.00  0.00    -0.067 NA
HETATM   25  N5  UNL     1       7.212 -18.033 -18.467  1.00  0.00    -0.067 NA
ATOM     26  H3  UNL     1       8.752 -16.123 -20.656  1.00  0.00     0.161 HD
ENDBRANCH  21  22
ENDBRANCH  20  21
ENDBRANCH  19  20
ENDBRANCH   1  19
BRANCH   1  27
HETATM   27  N6  UNL     1      10.228 -19.386 -17.751  1.00  0.00    -0.347 N 
HETATM   28  C16 UNL     1      10.650 -18.136 -17.265  1.00  0.00     0.222 C 
HETATM   29  O4  UNL     1      11.570 -17.487 -17.875  1.00  0.00    -0.273 OA
ATOM     30  H6  UNL     1       9.494 -19.905 -17.268  1.00  0.00     0.163 HD
BRANCH  28  31
HETATM   31  C17 UNL     1      10.046 -17.558 -16.056  1.00  0.00     0.081 C 
HETATM   32  C18 UNL     1      11.130 -17.192 -15.047  1.00  0.00     0.033 C 
HETATM   33  C19 UNL     1      10.579 -17.049 -13.658  1.00  0.00     0.117 C 
HETATM   34  N7  UNL     1       9.158 -16.862 -13.595  1.00  0.00    -0.412 N 
HETATM   35  C24 UNL     1       8.381 -17.808 -14.301  1.00  0.00     0.117 C 
HETATM   36  C25 UNL     1       9.146 -18.543 -15.386  1.00  0.00     0.033 C 
BRANCH  34  37
HETATM   37  C20 UNL     1       8.780 -15.501 -13.649  1.00  0.00     0.121 C 
BRANCH  37  38
HETATM   38  C21 UNL     1       7.387 -15.220 -14.059  1.00  0.00     0.003 A 
HETATM   39  C22 UNL     1       6.744 -13.899 -13.913  1.00  0.00     0.007 A 
HETATM   40  C23 UNL     1       7.245 -14.276 -15.258  1.00  0.00     0.007 A 
ENDBRANCH  37  38
ENDBRANCH  34  37
ENDBRANCH  28  31
ENDBRANCH   1  27
TORSDOF 15
ENDMDL
MODEL 2
REMARK VINA RESULT: -8.153535213      1.736      2.688
REMARK  15 active torsions:
REMARK  status: ('A' for Active; 'I' for Inactive)
REMARK    1  A    between atoms: C2_2  and  C3_3 
REMARK    2  A    between atoms: C3_3  and  C4_4 
REMARK    3  A    between atoms: C4_4  and  C5_5 
REMARK    4  A    between atoms: C5_5  and  C6_6 
REMARK    5  A    between atoms: C6_6  and  O1_7 
REMARK    6  A    between atoms: O1_7  and  C7_8 
REMARK       I    between atoms: C7_8  and  N1_10 
REMARK       I    between atoms: N2_13  and  C10_14 
REMARK    7  A    between atoms: C10_14  and  C11_16 
REMARK    8  A    between atoms: C11_16  and  C12_17 
REMARK    9  A    between atoms: C11_16  and  N6_25 
REMARK   10  A    between atoms: C12_17  and  C13_18 
REMARK   11  A    between atoms: C13_18  and  C14_19 
REMARK   12  A    between atoms: C14_19  and  N3_20 
REMARK       I    between atoms: N6_25  and  C16_27 
REMARK   13  A    between atoms: C16_27  and  C17_29 
REMARK   14  A    between atoms: N7_32  and  C20_33 
REMARK   15  A    between atoms: C20_33  and  C21_34 
ROOT
HETATM    1  C11 UNL     1      11.069 -21.216 -18.429  1.00  0.00     0.176 C 
ENDROOT
BRANCH   1   2
HETATM    2  C10 UNL     1      12.027 -22.192 -17.907  1.00  0.00     0.242 C 
HETATM    3  N2  UNL     1      13.049 -22.861 -18.592  1.00  0.00    -0.347 N 
HETATM    4  C9  UNL     1      13.324 -22.611 -19.980  1.00  0.00     0.146 C 
HETATM    5  C26 UNL     1      13.863 -23.848 -17.893  1.00  0.00     0.146 C 
HETATM    6  C8  UNL     1      14.758 -22.924 -20.352  1.00  0.00     0.148 C 
HETATM    7  N1  UNL     1      15.170 -24.194 -19.827  1.00  0.00    -0.325 N 
HETATM    8  C7  UNL     1      16.438 -24.722 -20.206  1.00  0.00     0.362 C 
HETATM    9  C27 UNL     1      14.282 -24.920 -18.905  1.00  0.00     0.148 C 
HETATM   10  O2  UNL     1      17.147 -24.047 -20.985  1.00  0.00    -0.238 OA
HETATM   11  O3  UNL     1      11.928 -22.478 -16.648  1.00  0.00    -0.271 OA
BRANCH   8  12
HETATM   12  O1  UNL     1      16.924 -25.916 -19.770  1.00  0.00    -0.304 OA
BRANCH  12  13
HETATM   13  C6  UNL     1      18.128 -26.182 -19.103  1.00  0.00     0.180 C 
BRANCH  13  14
HETATM   14  C5  UNL     1      17.873 -26.264 -17.623  1.00  0.00     0.027 C 
BRANCH  14  15
HETATM   15  C4  UNL     1      18.749 -25.307 -16.841  1.00  0.00     0.002 C 
BRANCH  15  16
HETATM   16  C3  UNL     1      18.616 -23.932 -17.396  1.00  0.00    -0.000 C 
BRANCH  16  17
HETATM   17  C2  UNL     1      17.338 -23.318 -16.799  1.00  0.00    -0.005 C 
HETATM   18  C1  UNL     1      17.718 -22.856 -15.407  1.00  0.00     0.005 C 
ENDBRANCH  16  17
ENDBRANCH  15  16
ENDBRANCH  14  15
ENDBRANCH  13  14
ENDBRANCH  12  13
ENDBRANCH   8  12
ENDBRANCH   1   2
BRANCH   1  19
HETATM   19  C12 UNL     1      10.004 -21.693 -19.325  1.00  0.00     0.036 C 
BRANCH  19  20
HETATM   20  C13 UNL     1       8.747 -20.956 -19.492  1.00  0.00     0.022 C 
BRANCH  20  21
HETATM   21  C14 UNL     1       8.769 -19.838 -20.471  1.00  0.00     0.122 C 
BRANCH  21  22
HETATM   22  N3  UNL     1       8.428 -18.593 -19.748  1.00  0.00    -0.367 N 
HETATM   23  C15 UNL     1       7.983 -17.551 -20.318  1.00  0.00     0.196 C 
HETATM   24  N4  UNL     1       7.697 -16.428 -19.496  1.00  0.00    -0.067 NA
HETATM   25  N5  UNL     1       7.755 -17.438 -21.715  1.00  0.00    -0.067 NA
ATOM     26  H3  UNL     1       8.557 -18.572 -18.736  1.00  0.00     0.161 HD
ENDBRANCH  21  22
ENDBRANCH  20  21
ENDBRANCH  19  20
ENDBRANCH   1  19
BRANCH   1  27
HETATM   27  N6  UNL     1      10.498 -20.431 -17.315  1.00  0.00    -0.347 N 
HETATM   28  C16 UNL     1      10.660 -19.035 -17.299  1.00  0.00     0.222 C 
HETATM   29  O4  UNL     1      11.298 -18.452 -18.244  1.00  0.00    -0.273 OA
ATOM     30  H6  UNL     1       9.990 -20.899 -16.564  1.00  0.00     0.163 HD
BRANCH  28  31
HETATM   31  C17 UNL     1      10.105 -18.227 -16.204  1.00  0.00     0.081 C 
HETATM   32  C18 UNL     1      11.224 -17.723 -15.299  1.00  0.00     0.033 C 
HETATM   33  C19 UNL     1      10.713 -17.312 -13.949  1.00  0.00     0.117 C 
HETATM   34  N7  UNL     1       9.300 -17.068 -13.893  1.00  0.00    -0.412 N 
HETATM   35  C24 UNL     1       8.477 -18.098 -14.401  1.00  0.00     0.117 C 
HETATM   36  C25 UNL     1       9.191 -19.044 -15.349  1.00  0.00     0.033 C 
BRANCH  34  37
HETATM   37  C20 UNL     1       8.963 -15.727 -14.187  1.00  0.00     0.121 C 
BRANCH  37  38
HETATM   38  C21 UNL     1       7.520 -15.408 -14.245  1.00  0.00     0.003 A 
HETATM   39  C22 UNL     1       6.980 -14.041 -14.106  1.00  0.00     0.007 A 
HETATM   40  C23 UNL     1       7.086 -14.603 -15.475  1.00  0.00     0.007 A 
ENDBRANCH  37  38
ENDBRANCH  34  37
ENDBRANCH  28  31
ENDBRANCH   1  27
TORSDOF 15
ENDMDL
MODEL 3
REMARK VINA RESULT: -8.137686067      1.712      2.318
REMARK  15 active torsions:
REMARK  status: ('A' for Active; 'I' for Inactive)
REMARK    1  A    between atoms: C2_2  and  C3_3 
REMARK    2  A    between atoms: C3_3  and  C4_4 
REMARK    3  A    between atoms: C4_4  and  C5_5 
REMARK    4  A    between atoms: C5_5  and  C6_6 
REMARK    5  A    between atoms: C6_6  and  O1_7 
REMARK    6  A    between atoms: O1_7  and  C7_8 
REMARK       I    between atoms: C7_8  and  N1_10 
REMARK       I    between atoms: N2_13  and  C10_14 
REMARK    7  A    between atoms: C10_14  and  C11_16 
REMARK    8  A    between atoms: C11_16  and  C12_17 
REMARK    9  A    between atoms: C11_16  and  N6_25 
REMARK   10  A    between atoms: C12_17  and  C13_18 
REMARK   11  A    between atoms: C13_18  and  C14_19 
REMARK   12  A    between atoms: C14_19  and  N3_20 
REMARK       I    between atoms: N6_25  and  C16_27 
REMARK   13  A    between atoms: C16_27  and  C17_29 
REMARK   14  A    between atoms: N7_32  and  C20_33 
REMARK   15  A    between atoms: C20_33  and  C21_34 
ROOT
HETATM    1  C11 UNL     1      10.430 -20.947 -18.395  1.00  0.00     0.176 C 
ENDROOT
BRANCH   1   2
HETATM    2  C10 UNL     1      11.143 -22.140 -17.940  1.00  0.00     0.242 C 
HETATM    3  N2  UNL     1      12.453 -22.540 -18.241  1.00  0.00    -0.347 N 
HETATM    4  C9  UNL     1      13.324 -21.737 -19.053  1.00  0.00     0.146 C 
HETATM    5  C26 UNL     1      12.959 -23.806 -17.728  1.00  0.00     0.146 C 
HETATM    6  C8  UNL     1      14.788 -21.993 -18.761  1.00  0.00     0.148 C 
HETATM    7  N1  UNL     1      15.070 -23.399 -18.698  1.00  0.00    -0.325 N 
HETATM    8  C7  UNL     1      16.423 -23.829 -18.585  1.00  0.00     0.362 C 
HETATM    9  C27 UNL     1      13.960 -24.364 -18.744  1.00  0.00     0.148 C 
HETATM   10  O2  UNL     1      17.317 -22.954 -18.541  1.00  0.00    -0.238 OA
HETATM   11  O3  UNL     1      10.492 -22.937 -17.155  1.00  0.00    -0.271 OA
BRANCH   8  12
HETATM   12  O1  UNL     1      16.801 -25.134 -18.521  1.00  0.00    -0.304 OA
BRANCH  12  13
HETATM   13  C6  UNL     1      17.347 -25.940 -19.530  1.00  0.00     0.180 C 
BRANCH  13  14
HETATM   14  C5  UNL     1      18.700 -26.435 -19.098  1.00  0.00     0.027 C 
BRANCH  14  15
HETATM   15  C4  UNL     1      18.628 -27.241 -17.817  1.00  0.00     0.002 C 
BRANCH  15  16
HETATM   16  C3  UNL     1      19.270 -28.569 -18.020  1.00  0.00    -0.000 C 
BRANCH  16  17
HETATM   17  C2  UNL     1      19.316 -29.270 -16.652  1.00  0.00    -0.005 C 
HETATM   18  C1  UNL     1      19.250 -28.162 -15.621  1.00  0.00     0.005 C 
ENDBRANCH  16  17
ENDBRANCH  15  16
ENDBRANCH  14  15
ENDBRANCH  13  14
ENDBRANCH  12  13
ENDBRANCH   8  12
ENDBRANCH   1   2
BRANCH   1  19
HETATM   19  C12 UNL     1       9.337 -21.113 -19.366  1.00  0.00     0.036 C 
BRANCH  19  20
HETATM   20  C13 UNL     1       9.307 -20.369 -20.630  1.00  0.00     0.022 C 
BRANCH  20  21
HETATM   21  C14 UNL     1       8.135 -19.478 -20.837  1.00  0.00     0.122 C 
BRANCH  21  22
HETATM   22  N3  UNL     1       8.337 -18.264 -20.016  1.00  0.00    -0.367 N 
HETATM   23  C15 UNL     1       7.539 -17.278 -20.017  1.00  0.00     0.196 C 
HETATM   24  N4  UNL     1       7.859 -16.178 -19.177  1.00  0.00    -0.067 NA
HETATM   25  N5  UNL     1       6.356 -17.204 -20.799  1.00  0.00    -0.067 NA
ATOM     26  H3  UNL     1       9.161 -18.218 -19.417  1.00  0.00     0.161 HD
ENDBRANCH  21  22
ENDBRANCH  20  21
ENDBRANCH  19  20
ENDBRANCH   1  19
BRANCH   1  27
HETATM   27  N6  UNL     1       9.971 -20.164 -17.228  1.00  0.00    -0.347 N 
HETATM   28  C16 UNL     1      10.219 -18.781 -17.183  1.00  0.00     0.222 C 
HETATM   29  O4  UNL     1      10.837 -18.208 -18.147  1.00  0.00    -0.273 OA
ATOM     30  H6  UNL     1       9.478 -20.624 -16.462  1.00  0.00     0.163 HD
BRANCH  28  31
HETATM   31  C17 UNL     1       9.777 -17.976 -16.036  1.00  0.00     0.081 C 
HETATM   32  C18 UNL     1      10.983 -17.457 -15.259  1.00  0.00     0.033 C 
HETATM   33  C19 UNL     1      10.617 -17.047 -13.862  1.00  0.00     0.117 C 
HETATM   34  N7  UNL     1       9.216 -16.818 -13.653  1.00  0.00    -0.412 N 
HETATM   35  C24 UNL     1       8.354 -17.859 -14.067  1.00  0.00     0.117 C 
HETATM   36  C25 UNL     1       8.971 -18.800 -15.085  1.00  0.00     0.033 C 
BRANCH  34  37
HETATM   37  C20 UNL     1       8.834 -15.482 -13.911  1.00  0.00     0.121 C 
BRANCH  37  38
HETATM   38  C21 UNL     1       7.412 -15.257 -14.251  1.00  0.00     0.003 A 
HETATM   39  C22 UNL     1       6.794 -13.918 -14.329  1.00  0.00     0.007 A 
HETATM   40  C23 UNL     1       7.172 -14.577 -15.604  1.00  0.00     0.007 A 
ENDBRANCH  37  38
ENDBRANCH  34  37
ENDBRANCH  28  31
ENDBRANCH   1  27
TORSDOF 15
ENDMDL
MODEL 4
REMARK VINA RESULT: -8.084609732      1.055      1.436
REMARK  15 active torsions:
REMARK  status: ('A' for Active; 'I' for Inactive)
REMARK    1  A    between atoms: C2_2  and  C3_3 
REMARK    2  A    between atoms: C3_3  and  C4_4 
REMARK    3  A    between atoms: C4_4  and  C5_5 
REMARK    4  A    between atoms: C5_5  and  C6_6 
REMARK    5  A    between atoms: C6_6  and  O1_7 
REMARK    6  A    between atoms: O1_7  and  C7_8 
REMARK       I    between atoms: C7_8  and  N1_10 
REMARK       I    between atoms: N2_13  and  C10_14 
REMARK    7  A    between atoms: C10_14  and  C11_16 
REMARK    8  A    between atoms: C11_16  and  C12_17 
REMARK    9  A    between atoms: C11_16  and  N6_25 
REMARK   10  A    between atoms: C12_17  and  C13_18 
REMARK   11  A    between atoms: C13_18  and  C14_19 
REMARK   12  A    between atoms: C14_19  and  N3_20 
REMARK       I    between atoms: N6_25  and  C16_27 
REMARK   13  A    between atoms: C16_27  and  C17_29 
REMARK   14  A    between atoms: N7_32  and  C20_33 
REMARK   15  A    between atoms: C20_33  and  C21_34 
ROOT
HETATM    1  C11 UNL     1      10.331 -20.044 -19.161  1.00  0.00     0.176 C 
ENDROOT
BRANCH   1   2
HETATM    2  C10 UNL     1      10.950 -21.344 -18.903  1.00  0.00     0.242 C 
HETATM    3  N2  UNL     1      12.282 -21.622 -18.566  1.00  0.00    -0.347 N 
HETATM    4  C9  UNL     1      13.251 -20.579 -18.375  1.00  0.00     0.146 C 
HETATM    5  C26 UNL     1      12.714 -23.005 -18.406  1.00  0.00     0.146 C 
HETATM    6  C8  UNL     1      14.382 -21.000 -17.459  1.00  0.00     0.148 C 
HETATM    7  N1  UNL     1      14.884 -22.297 -17.810  1.00  0.00    -0.325 N 
HETATM    8  C7  UNL     1      16.049 -22.790 -17.155  1.00  0.00     0.362 C 
HETATM    9  C27 UNL     1      14.183 -23.095 -18.830  1.00  0.00     0.148 C 
HETATM   10  O2  UNL     1      16.589 -22.063 -16.290  1.00  0.00    -0.238 OA
HETATM   11  O3  UNL     1      10.177 -22.378 -18.990  1.00  0.00    -0.271 OA
BRANCH   8  12
HETATM   12  O1  UNL     1      16.610 -24.002 -17.413  1.00  0.00    -0.304 OA
BRANCH  12  13
HETATM   13  C6  UNL     1      17.802 -24.291 -18.092  1.00  0.00     0.180 C 
BRANCH  13  14
HETATM   14  C5  UNL     1      17.480 -24.812 -19.466  1.00  0.00     0.027 C 
BRANCH  14  15
HETATM   15  C4  UNL     1      18.105 -26.169 -19.721  1.00  0.00     0.002 C 
BRANCH  15  16
HETATM   16  C3  UNL     1      18.284 -26.891 -18.432  1.00  0.00    -0.000 C 
BRANCH  16  17
HETATM   17  C2  UNL     1      19.315 -28.008 -18.671  1.00  0.00    -0.005 C 
HETATM   18  C1  UNL     1      19.271 -28.879 -17.433  1.00  0.00     0.005 C 
ENDBRANCH  16  17
ENDBRANCH  15  16
ENDBRANCH  14  15
ENDBRANCH  13  14
ENDBRANCH  12  13
ENDBRANCH   8  12
ENDBRANCH   1   2
BRANCH   1  19
HETATM   19  C12 UNL     1       9.305 -19.955 -20.212  1.00  0.00     0.036 C 
BRANCH  19  20
HETATM   20  C13 UNL     1       9.258 -18.831 -21.153  1.00  0.00     0.022 C 
BRANCH  20  21
HETATM   21  C14 UNL     1       7.986 -18.064 -21.194  1.00  0.00     0.122 C 
BRANCH  21  22
HETATM   22  N3  UNL     1       8.139 -16.884 -20.315  1.00  0.00    -0.367 N 
HETATM   23  C15 UNL     1       7.648 -16.811 -19.147  1.00  0.00     0.196 C 
HETATM   24  N4  UNL     1       7.876 -15.615 -18.416  1.00  0.00    -0.067 NA
HETATM   25  N5  UNL     1       6.892 -17.843 -18.530  1.00  0.00    -0.067 NA
ATOM     26  H3  UNL     1       8.668 -16.085 -20.667  1.00  0.00     0.161 HD
ENDBRANCH  21  22
ENDBRANCH  20  21
ENDBRANCH  19  20
ENDBRANCH   1  19
BRANCH   1  27
HETATM   27  N6  UNL     1       9.827 -19.470 -17.896  1.00  0.00    -0.347 N 
HETATM   28  C16 UNL     1      10.372 -18.266 -17.418  1.00  0.00     0.222 C 
HETATM   29  O4  UNL     1      11.297 -17.673 -18.077  1.00  0.00    -0.273 OA
ATOM     30  H6  UNL     1       9.090 -19.944 -17.373  1.00  0.00     0.163 HD
BRANCH  28  31
HETATM   31  C17 UNL     1       9.894 -17.671 -16.162  1.00  0.00     0.081 C 
HETATM   32  C18 UNL     1      11.073 -17.319 -15.261  1.00  0.00     0.033 C 
HETATM   33  C19 UNL     1      10.657 -17.160 -13.827  1.00  0.00     0.117 C 
HETATM   34  N7  UNL     1       9.251 -16.948 -13.633  1.00  0.00    -0.412 N 
HETATM   35  C24 UNL     1       8.395 -17.882 -14.258  1.00  0.00     0.117 C 
HETATM   36  C25 UNL     1       9.043 -18.637 -15.405  1.00  0.00     0.033 C 
BRANCH  34  37
HETATM   37  C20 UNL     1       8.893 -15.581 -13.661  1.00  0.00     0.121 C 
BRANCH  37  38
HETATM   38  C21 UNL     1       7.494 -15.273 -14.030  1.00  0.00     0.003 A 
HETATM   39  C22 UNL     1       6.872 -13.948 -13.837  1.00  0.00     0.007 A 
HETATM   40  C23 UNL     1       7.336 -14.298 -15.203  1.00  0.00     0.007 A 
ENDBRANCH  37  38
ENDBRANCH  34  37
ENDBRANCH  28  31
ENDBRANCH   1  27
TORSDOF 15
ENDMDL
MODEL 5
REMARK VINA RESULT: -7.965056040      0.835      1.098
REMARK  15 active torsions:
REMARK  status: ('A' for Active; 'I' for Inactive)
REMARK    1  A    between atoms: C2_2  and  C3_3 
REMARK    2  A    between atoms: C3_3  and  C4_4 
REMARK    3  A    between atoms: C4_4  and  C5_5 
REMARK    4  A    between atoms: C5_5  and  C6_6 
REMARK    5  A    between atoms: C6_6  and  O1_7 
REMARK    6  A    between atoms: O1_7  and  C7_8 
REMARK       I    between atoms: C7_8  and  N1_10 
REMARK       I    between atoms: N2_13  and  C10_14 
REMARK    7  A    between atoms: C10_14  and  C11_16 
REMARK    8  A    between atoms: C11_16  and  C12_17 
REMARK    9  A    between atoms: C11_16  and  N6_25 
REMARK   10  A    between atoms: C12_17  and  C13_18 
REMARK   11  A    between atoms: C13_18  and  C14_19 
REMARK   12  A    between atoms: C14_19  and  N3_20 
REMARK       I    between atoms: N6_25  and  C16_27 
REMARK   13  A    between atoms: C16_27  and  C17_29 
REMARK   14  A    between atoms: N7_32  and  C20_33 
REMARK   15  A    between atoms: C20_33  and  C21_34 
ROOT
HETATM    1  C11 UNL     1      10.841 -20.019 -18.856  1.00  0.00     0.176 C 
ENDROOT
BRANCH   1   2
HETATM    2  C10 UNL     1      11.575 -21.227 -18.477  1.00  0.00     0.242 C 
HETATM    3  N2  UNL     1      12.850 -21.328 -17.904  1.00  0.00    -0.347 N 
HETATM    4  C9  UNL     1      13.619 -20.166 -17.554  1.00  0.00     0.146 C 
HETATM    5  C26 UNL     1      13.429 -22.642 -17.656  1.00  0.00     0.146 C 
HETATM    6  C8  UNL     1      14.614 -20.444 -16.446  1.00  0.00     0.148 C 
HETATM    7  N1  UNL     1      15.342 -21.656 -16.688  1.00  0.00    -0.325 N 
HETATM    8  C7  UNL     1      16.427 -21.996 -15.830  1.00  0.00     0.362 C 
HETATM    9  C27 UNL     1      14.949 -22.527 -17.808  1.00  0.00     0.148 C 
HETATM   10  O2  UNL     1      16.700 -21.216 -14.889  1.00  0.00    -0.238 OA
HETATM   11  O3  UNL     1      10.976 -22.355 -18.691  1.00  0.00    -0.271 OA
BRANCH   8  12
HETATM   12  O1  UNL     1      17.183 -23.118 -15.970  1.00  0.00    -0.304 OA
BRANCH  12  13
HETATM   13  C6  UNL     1      18.500 -23.236 -16.436  1.00  0.00     0.180 C 
BRANCH  13  14
HETATM   14  C5  UNL     1      18.721 -24.626 -16.965  1.00  0.00     0.027 C 
BRANCH  14  15
HETATM   15  C4  UNL     1      17.901 -24.898 -18.210  1.00  0.00     0.002 C 
BRANCH  15  16
HETATM   16  C3  UNL     1      17.579 -26.349 -18.296  1.00  0.00    -0.000 C 
BRANCH  16  17
HETATM   17  C2  UNL     1      18.809 -27.057 -18.890  1.00  0.00    -0.005 C 
HETATM   18  C1  UNL     1      19.081 -28.238 -17.981  1.00  0.00     0.005 C 
ENDBRANCH  16  17
ENDBRANCH  15  16
ENDBRANCH  14  15
ENDBRANCH  13  14
ENDBRANCH  12  13
ENDBRANCH   8  12
ENDBRANCH   1   2
BRANCH   1  19
HETATM   19  C12 UNL     1       9.898 -20.098 -19.982  1.00  0.00     0.036 C 
BRANCH  19  20
HETATM   20  C13 UNL     1       9.722 -18.986 -20.922  1.00  0.00     0.022 C 
BRANCH  20  21
HETATM   21  C14 UNL     1       8.346 -18.437 -21.036  1.00  0.00     0.122 C 
BRANCH  21  22
HETATM   22  N3  UNL     1       8.325 -17.120 -20.363  1.00  0.00    -0.367 N 
HETATM   23  C15 UNL     1       7.816 -16.926 -19.217  1.00  0.00     0.196 C 
HETATM   24  N4  UNL     1       7.869 -15.606 -18.694  1.00  0.00    -0.067 NA
HETATM   25  N5  UNL     1       7.202 -17.937 -18.431  1.00  0.00    -0.067 NA
ATOM     26  H3  UNL     1       8.742 -16.324 -20.847  1.00  0.00     0.161 HD
ENDBRANCH  21  22
ENDBRANCH  20  21
ENDBRANCH  19  20
ENDBRANCH   1  19
BRANCH   1  27
HETATM   27  N6  UNL     1      10.181 -19.442 -17.666  1.00  0.00    -0.347 N 
HETATM   28  C16 UNL     1      10.563 -18.167 -17.213  1.00  0.00     0.222 C 
HETATM   29  O4  UNL     1      11.477 -17.514 -17.829  1.00  0.00    -0.273 OA
ATOM     30  H6  UNL     1       9.453 -19.964 -17.178  1.00  0.00     0.163 HD
BRANCH  28  31
HETATM   31  C17 UNL     1       9.926 -17.568 -16.032  1.00  0.00     0.081 C 
HETATM   32  C18 UNL     1      10.981 -17.187 -14.999  1.00  0.00     0.033 C 
HETATM   33  C19 UNL     1      10.391 -17.020 -13.629  1.00  0.00     0.117 C 
HETATM   34  N7  UNL     1       8.969 -16.829 -13.610  1.00  0.00    -0.412 N 
HETATM   35  C24 UNL     1       8.210 -17.784 -14.323  1.00  0.00     0.117 C 
HETATM   36  C25 UNL     1       9.004 -18.540 -15.373  1.00  0.00     0.033 C 
BRANCH  34  37
HETATM   37  C20 UNL     1       8.596 -15.469 -13.698  1.00  0.00     0.121 C 
BRANCH  37  38
HETATM   38  C21 UNL     1       7.227 -15.190 -14.184  1.00  0.00     0.003 A 
HETATM   39  C22 UNL     1       6.571 -13.873 -14.066  1.00  0.00     0.007 A 
HETATM   40  C23 UNL     1       7.149 -14.238 -15.383  1.00  0.00     0.007 A 
ENDBRANCH  37  38
ENDBRANCH  34  37
ENDBRANCH  28  31
ENDBRANCH   1  27
TORSDOF 15
ENDMDL
