MODEL 1
REMARK VINA RESULT: -8.379063176      0.000      0.000
REMARK  16 active torsions:
REMARK  status: ('A' for Active; 'I' for Inactive)
REMARK    1  A    between atoms: O1_2  and  C2_3 
REMARK       I    between atoms: C2_3  and  N1_5 
REMARK    2  A    between atoms: N1_5  and  C3_7 
REMARK    3  A    between atoms: C3_7  and  C4_8 
REMARK    4  A    between atoms: C4_8  and  C5_9 
REMARK    5  A    between atoms: C5_9  and  C6_10 
REMARK       I    between atoms: C6_10  and  N2_12 
REMARK       I    between atoms: N3_15  and  C9_16 
REMARK    6  A    between atoms: C9_16  and  C10_18 
REMARK    7  A    between atoms: C10_18  and  C11_19 
REMARK    8  A    between atoms: C11_19  and  C12_20 
REMARK    9  A    between atoms: C12_20  and  C13_21 
REMARK   10  A    between atoms: C13_21  and  C14_22 
REMARK   11  A    between atoms: C14_22  and  C15_23 
REMARK   12  A    between atoms: C15_23  and  C16_24 
REMARK   13  A    between atoms: C16_24  and  N4_25 
REMARK       I    between atoms: N4_25  and  C17_27 
REMARK       I    between atoms: C17_27  and  N5_29 
REMARK   14  A    between atoms: N5_29  and  C18_31 
REMARK   15  A    between atoms: C18_31  and  C19_32 
REMARK   16  A    between atoms: C19_32  and  N6_33 
ROOT
HETATM    1  C10 UNL     1      11.846 -22.367 -19.163  1.00  0.00     0.103 C 
ENDROOT
BRANCH   1   2
HETATM    2  C9  UNL     1      10.883 -22.189 -18.081  1.00  0.00     0.219 C 
HETATM    3  N3  UNL     1      10.221 -20.928 -17.869  1.00  0.00    -0.349 N 
HETATM    4  C8  UNL     1      10.567 -19.839 -18.750  1.00  0.00     0.145 C 
HETATM    5  C25 UNL     1       9.276 -20.803 -16.810  1.00  0.00     0.145 C 
HETATM    6  C7  UNL     1      10.825 -18.559 -18.045  1.00  0.00     0.145 C 
HETATM    7  N2  UNL     1      10.325 -18.580 -16.708  1.00  0.00    -0.349 N 
HETATM    8  C6  UNL     1      11.022 -17.787 -15.719  1.00  0.00     0.219 C 
HETATM    9  C26 UNL     1       9.168 -19.346 -16.361  1.00  0.00     0.145 C 
HETATM   10  O3  UNL     1      12.024 -17.106 -16.039  1.00  0.00    -0.273 OA
HETATM   11  O4  UNL     1      10.573 -23.095 -17.288  1.00  0.00    -0.273 OA
BRANCH   8  12
HETATM   12  C5  UNL     1      10.560 -17.768 -14.318  1.00  0.00     0.104 C 
BRANCH  12  13
HETATM   13  C4  UNL     1      10.211 -16.425 -13.794  1.00  0.00     0.029 C 
BRANCH  13  14
HETATM   14  C3  UNL     1       8.760 -16.131 -13.653  1.00  0.00     0.125 C 
BRANCH  14  15
HETATM   15  N1  UNL     1       8.168 -16.104 -14.988  1.00  0.00    -0.337 N 
HETATM   16  C2  UNL     1       7.927 -14.857 -15.606  1.00  0.00     0.360 C 
HETATM   17  O2  UNL     1       8.212 -13.791 -15.024  1.00  0.00    -0.239 OA
ATOM     18  H1  UNL     1       7.933 -16.974 -15.467  1.00  0.00     0.164 HD
BRANCH  16  19
HETATM   19  O1  UNL     1       7.369 -14.751 -16.872  1.00  0.00    -0.309 OA
HETATM   20  C1  UNL     1       7.811 -15.536 -17.979  1.00  0.00     0.215 C 
ENDBRANCH  16  19
ENDBRANCH  14  15
ENDBRANCH  13  14
ENDBRANCH  12  13
ENDBRANCH   8  12
ENDBRANCH   1   2
BRANCH   1  21
HETATM   21  C11 UNL     1      13.256 -22.617 -18.820  1.00  0.00     0.009 C 
BRANCH  21  22
HETATM   22  C12 UNL     1      14.240 -22.271 -19.895  1.00  0.00     0.000 C 
BRANCH  22  23
HETATM   23  C13 UNL     1      14.217 -23.333 -20.926  1.00  0.00     0.000 C 
BRANCH  23  24
HETATM   24  C14 UNL     1      14.954 -24.566 -20.679  1.00  0.00     0.002 C 
BRANCH  24  25
HETATM   25  C15 UNL     1      16.381 -24.646 -21.032  1.00  0.00     0.020 C 
BRANCH  25  26
HETATM   26  C16 UNL     1      17.404 -24.785 -19.972  1.00  0.00     0.124 C 
BRANCH  26  27
HETATM   27  N4  UNL     1      16.720 -24.556 -18.667  1.00  0.00    -0.343 N 
HETATM   28  C17 UNL     1      17.376 -23.868 -17.636  1.00  0.00     0.316 C 
HETATM   29  O5  UNL     1      18.550 -23.433 -17.845  1.00  0.00    -0.247 OA
HETATM   30  N5  UNL     1      16.718 -23.683 -16.392  1.00  0.00    -0.338 N 
ATOM     31  H5  UNL     1      15.770 -24.047 -16.295  1.00  0.00     0.164 HD
ATOM     32  H4  UNL     1      15.771 -24.900 -18.524  1.00  0.00     0.164 HD
BRANCH  30  33
HETATM   33  C18 UNL     1      17.305 -23.010 -15.252  1.00  0.00     0.168 C 
BRANCH  33  34
HETATM   34  C19 UNL     1      16.940 -21.574 -15.157  1.00  0.00     0.077 C 
BRANCH  34  35
HETATM   35  N6  UNL     1      15.600 -21.219 -14.969  1.00  0.00    -0.392 N 
HETATM   36  C20 UNL     1      14.848 -21.854 -13.954  1.00  0.00     0.122 C 
HETATM   37  C21 UNL     1      13.415 -21.308 -13.941  1.00  0.00     0.020 C 
HETATM   38  C22 UNL     1      12.971 -21.238 -15.387  1.00  0.00     0.003 C 
HETATM   39  C23 UNL     1      13.781 -20.180 -16.106  1.00  0.00     0.020 C 
HETATM   40  C24 UNL     1      15.144 -19.961 -15.439  1.00  0.00     0.122 C 
ENDBRANCH  34  35
ENDBRANCH  33  34
ENDBRANCH  30  33
ENDBRANCH  26  27
ENDBRANCH  25  26
ENDBRANCH  24  25
ENDBRANCH  23  24
ENDBRANCH  22  23
ENDBRANCH  21  22
ENDBRANCH   1  21
TORSDOF 16
ENDMDL
MODEL 2
REMARK VINA RESULT: -8.270242996      2.460      9.797
REMARK  16 active torsions:
REMARK  status: ('A' for Active; 'I' for Inactive)
REMARK    1  A    between atoms: O1_2  and  C2_3 
REMARK       I    between atoms: C2_3  and  N1_5 
REMARK    2  A    between atoms: N1_5  and  C3_7 
REMARK    3  A    between atoms: C3_7  and  C4_8 
REMARK    4  A    between atoms: C4_8  and  C5_9 
REMARK    5  A    between atoms: C5_9  and  C6_10 
REMARK       I    between atoms: C6_10  and  N2_12 
REMARK       I    between atoms: N3_15  and  C9_16 
REMARK    6  A    between atoms: C9_16  and  C10_18 
REMARK    7  A    between atoms: C10_18  and  C11_19 
REMARK    8  A    between atoms: C11_19  and  C12_20 
REMARK    9  A    between atoms: C12_20  and  C13_21 
REMARK   10  A    between atoms: C13_21  and  C14_22 
REMARK   11  A    between atoms: C14_22  and  C15_23 
REMARK   12  A    between atoms: C15_23  and  C16_24 
REMARK   13  A    between atoms: C16_24  and  N4_25 
REMARK       I    between atoms: N4_25  and  C17_27 
REMARK       I    between atoms: C17_27  and  N5_29 
REMARK   14  A    between atoms: N5_29  and  C18_31 
REMARK   15  A    between atoms: C18_31  and  C19_32 
REMARK   16  A    between atoms: C19_32  and  N6_33 
ROOT
HETATM    1  C10 UNL     1      11.868 -20.483 -16.381  1.00  0.00     0.103 C 
ENDROOT
BRANCH   1   2
HETATM    2  C9  UNL     1      12.939 -21.452 -16.178  1.00  0.00     0.219 C 
HETATM    3  N3  UNL     1      14.050 -21.542 -17.090  1.00  0.00    -0.349 N 
HETATM    4  C8  UNL     1      14.049 -20.654 -18.228  1.00  0.00     0.145 C 
HETATM    5  C25 UNL     1      15.082 -22.493 -16.845  1.00  0.00     0.145 C 
HETATM    6  C7  UNL     1      14.376 -21.326 -19.510  1.00  0.00     0.145 C 
HETATM    7  N2  UNL     1      14.975 -22.605 -19.300  1.00  0.00    -0.349 N 
HETATM    8  C6  UNL     1      14.744 -23.626 -20.300  1.00  0.00     0.219 C 
HETATM    9  C26 UNL     1      15.784 -22.865 -18.150  1.00  0.00     0.145 C 
HETATM   10  O3  UNL     1      14.048 -23.380 -21.312  1.00  0.00    -0.273 OA
HETATM   11  O4  UNL     1      12.967 -22.247 -15.223  1.00  0.00    -0.273 OA
BRANCH   8  12
HETATM   12  C5  UNL     1      15.331 -24.969 -20.143  1.00  0.00     0.104 C 
BRANCH  12  13
HETATM   13  C4  UNL     1      16.496 -25.249 -21.017  1.00  0.00     0.029 C 
BRANCH  13  14
HETATM   14  C3  UNL     1      17.773 -25.574 -20.327  1.00  0.00     0.125 C 
BRANCH  14  15
HETATM   15  N1  UNL     1      17.458 -26.023 -18.973  1.00  0.00    -0.337 N 
HETATM   16  C2  UNL     1      18.447 -26.705 -18.230  1.00  0.00     0.360 C 
HETATM   17  O2  UNL     1      19.574 -26.926 -18.719  1.00  0.00    -0.239 OA
ATOM     18  H1  UNL     1      16.538 -25.846 -18.570  1.00  0.00     0.164 HD
BRANCH  16  19
HETATM   19  O1  UNL     1      18.223 -27.162 -16.939  1.00  0.00    -0.309 OA
HETATM   20  C1  UNL     1      18.570 -26.404 -15.781  1.00  0.00     0.215 C 
ENDBRANCH  16  19
ENDBRANCH  14  15
ENDBRANCH  13  14
ENDBRANCH  12  13
ENDBRANCH   8  12
ENDBRANCH   1   2
BRANCH   1  21
HETATM   21  C11 UNL     1      10.559 -20.964 -16.854  1.00  0.00     0.009 C 
BRANCH  21  22
HETATM   22  C12 UNL     1      10.617 -22.101 -17.828  1.00  0.00     0.000 C 
BRANCH  22  23
HETATM   23  C13 UNL     1      10.298 -21.592 -19.180  1.00  0.00     0.000 C 
BRANCH  23  24
HETATM   24  C14 UNL     1       9.139 -20.723 -19.346  1.00  0.00     0.002 C 
BRANCH  24  25
HETATM   25  C15 UNL     1       8.866 -20.113 -20.658  1.00  0.00     0.020 C 
BRANCH  25  26
HETATM   26  C16 UNL     1       9.348 -18.747 -20.959  1.00  0.00     0.124 C 
BRANCH  26  27
HETATM   27  N4  UNL     1       9.414 -18.008 -19.666  1.00  0.00    -0.343 N 
HETATM   28  C17 UNL     1       8.440 -17.051 -19.348  1.00  0.00     0.316 C 
HETATM   29  O5  UNL     1       7.497 -16.844 -20.172  1.00  0.00    -0.247 OA
HETATM   30  N5  UNL     1       8.535 -16.339 -18.123  1.00  0.00    -0.338 N 
ATOM     31  H5  UNL     1       9.310 -16.563 -17.501  1.00  0.00     0.164 HD
ATOM     32  H4  UNL     1      10.171 -18.200 -19.010  1.00  0.00     0.164 HD
BRANCH  30  33
HETATM   33  C18 UNL     1       7.601 -15.315 -17.702  1.00  0.00     0.168 C 
BRANCH  33  34
HETATM   34  C19 UNL     1       7.158 -15.460 -16.292  1.00  0.00     0.077 C 
BRANCH  34  35
HETATM   35  N6  UNL     1       7.928 -16.222 -15.407  1.00  0.00    -0.392 N 
HETATM   36  C20 UNL     1       8.970 -15.602 -14.681  1.00  0.00     0.122 C 
HETATM   37  C21 UNL     1       9.672 -16.629 -13.784  1.00  0.00     0.020 C 
HETATM   38  C22 UNL     1       9.870 -17.870 -14.631  1.00  0.00     0.003 C 
HETATM   39  C23 UNL     1       8.520 -18.482 -14.939  1.00  0.00     0.020 C 
HETATM   40  C24 UNL     1       7.401 -17.435 -14.898  1.00  0.00     0.122 C 
ENDBRANCH  34  35
ENDBRANCH  33  34
ENDBRANCH  30  33
ENDBRANCH  26  27
ENDBRANCH  25  26
ENDBRANCH  24  25
ENDBRANCH  23  24
ENDBRANCH  22  23
ENDBRANCH  21  22
ENDBRANCH   1  21
TORSDOF 16
ENDMDL
MODEL 3
REMARK VINA RESULT: -8.263895305      1.234      1.699
REMARK  16 active torsions:
REMARK  status: ('A' for Active; 'I' for Inactive)
REMARK    1  A    between atoms: O1_2  and  C2_3 
REMARK       I    between atoms: C2_3  and  N1_5 
REMARK    2  A    between atoms: N1_5  and  C3_7 
REMARK    3  A    between atoms: C3_7  and  C4_8 
REMARK    4  A    between atoms: C4_8  and  C5_9 
REMARK    5  A    between atoms: C5_9  and  C6_10 
REMARK       I    between atoms: C6_10  and  N2_12 
REMARK       I    between atoms: N3_15  and  C9_16 
REMARK    6  A    between atoms: C9_16  and  C10_18 
REMARK    7  A    between atoms: C10_18  and  C11_19 
REMARK    8  A    between atoms: C11_19  and  C12_20 
REMARK    9  A    between atoms: C12_20  and  C13_21 
REMARK   10  A    between atoms: C13_21  and  C14_22 
REMARK   11  A    between atoms: C14_22  and  C15_23 
REMARK   12  A    between atoms: C15_23  and  C16_24 
REMARK   13  A    between atoms: C16_24  and  N4_25 
REMARK       I    between atoms: N4_25  and  C17_27 
REMARK       I    between atoms: C17_27  and  N5_29 
REMARK   14  A    between atoms: N5_29  and  C18_31 
REMARK   15  A    between atoms: C18_31  and  C19_32 
REMARK   16  A    between atoms: C19_32  and  N6_33 
ROOT
HETATM    1  C10 UNL     1      12.905 -22.854 -18.946  1.00  0.00     0.103 C 
ENDROOT
BRANCH   1   2
HETATM    2  C9  UNL     1      11.705 -22.585 -18.163  1.00  0.00     0.219 C 
HETATM    3  N3  UNL     1      10.867 -21.448 -18.444  1.00  0.00    -0.349 N 
HETATM    4  C8  UNL     1      11.275 -20.570 -19.514  1.00  0.00     0.145 C 
HETATM    5  C25 UNL     1       9.695 -21.231 -17.663  1.00  0.00     0.145 C 
HETATM    6  C7  UNL     1      11.209 -19.129 -19.163  1.00  0.00     0.145 C 
HETATM    7  N2  UNL     1      10.420 -18.904 -17.995  1.00  0.00    -0.349 N 
HETATM    8  C6  UNL     1      10.772 -17.779 -17.155  1.00  0.00     0.219 C 
HETATM    9  C26 UNL     1       9.314 -19.751 -17.673  1.00  0.00     0.145 C 
HETATM   10  O3  UNL     1      11.733 -17.034 -17.458  1.00  0.00    -0.273 OA
HETATM   11  O4  UNL     1      11.330 -23.304 -17.220  1.00  0.00    -0.273 OA
BRANCH   8  12
HETATM   12  C5  UNL     1      10.000 -17.492 -15.932  1.00  0.00     0.104 C 
BRANCH  12  13
HETATM   13  C4  UNL     1      10.813 -17.077 -14.763  1.00  0.00     0.029 C 
BRANCH  13  14
HETATM   14  C3  UNL     1      10.088 -16.369 -13.674  1.00  0.00     0.125 C 
BRANCH  14  15
HETATM   15  N1  UNL     1       9.583 -15.107 -14.209  1.00  0.00    -0.337 N 
HETATM   16  C2  UNL     1       8.193 -14.950 -14.399  1.00  0.00     0.360 C 
HETATM   17  O2  UNL     1       7.402 -15.873 -14.117  1.00  0.00    -0.239 OA
ATOM     18  H1  UNL     1      10.226 -14.350 -14.442  1.00  0.00     0.164 HD
BRANCH  16  19
HETATM   19  O1  UNL     1       7.638 -13.782 -14.902  1.00  0.00    -0.309 OA
HETATM   20  C1  UNL     1       6.260 -13.450 -14.742  1.00  0.00     0.215 C 
ENDBRANCH  16  19
ENDBRANCH  14  15
ENDBRANCH  13  14
ENDBRANCH  12  13
ENDBRANCH   8  12
ENDBRANCH   1   2
BRANCH   1  21
HETATM   21  C11 UNL     1      13.953 -23.709 -18.364  1.00  0.00     0.009 C 
BRANCH  21  22
HETATM   22  C12 UNL     1      14.311 -24.914 -19.178  1.00  0.00     0.000 C 
BRANCH  22  23
HETATM   23  C13 UNL     1      14.888 -24.470 -20.467  1.00  0.00     0.000 C 
BRANCH  23  24
HETATM   24  C14 UNL     1      16.325 -24.601 -20.673  1.00  0.00     0.002 C 
BRANCH  24  25
HETATM   25  C15 UNL     1      17.025 -25.803 -20.190  1.00  0.00     0.020 C 
BRANCH  25  26
HETATM   26  C16 UNL     1      18.137 -25.678 -19.221  1.00  0.00     0.124 C 
BRANCH  26  27
HETATM   27  N4  UNL     1      17.534 -25.343 -17.900  1.00  0.00    -0.343 N 
HETATM   28  C17 UNL     1      17.760 -24.088 -17.316  1.00  0.00     0.316 C 
HETATM   29  O5  UNL     1      18.469 -23.243 -17.945  1.00  0.00    -0.247 OA
HETATM   30  N5  UNL     1      17.199 -23.798 -16.045  1.00  0.00    -0.338 N 
ATOM     31  H5  UNL     1      16.629 -24.517 -15.600  1.00  0.00     0.164 HD
ATOM     32  H4  UNL     1      16.955 -26.031 -17.417  1.00  0.00     0.164 HD
BRANCH  30  33
HETATM   33  C18 UNL     1      17.384 -22.547 -15.339  1.00  0.00     0.168 C 
BRANCH  33  34
HETATM   34  C19 UNL     1      16.204 -22.140 -14.534  1.00  0.00     0.077 C 
BRANCH  34  35
HETATM   35  N6  UNL     1      15.109 -21.550 -15.173  1.00  0.00    -0.392 N 
HETATM   36  C20 UNL     1      15.329 -20.655 -16.245  1.00  0.00     0.122 C 
HETATM   37  C21 UNL     1      13.990 -20.134 -16.781  1.00  0.00     0.020 C 
HETATM   38  C22 UNL     1      13.149 -19.791 -15.569  1.00  0.00     0.003 C 
HETATM   39  C23 UNL     1      12.801 -21.065 -14.828  1.00  0.00     0.020 C 
HETATM   40  C24 UNL     1      13.837 -22.168 -15.081  1.00  0.00     0.122 C 
ENDBRANCH  34  35
ENDBRANCH  33  34
ENDBRANCH  30  33
ENDBRANCH  26  27
ENDBRANCH  25  26
ENDBRANCH  24  25
ENDBRANCH  23  24
ENDBRANCH  22  23
ENDBRANCH  21  22
ENDBRANCH   1  21
TORSDOF 16
ENDMDL
MODEL 4
REMARK VINA RESULT: -8.075931157      2.143     10.191
REMARK  16 active torsions:
REMARK  status: ('A' for Active; 'I' for Inactive)
REMARK    1  A    between atoms: O1_2  and  C2_3 
REMARK       I    between atoms: C2_3  and  N1_5 
REMARK    2  A    between atoms: N1_5  and  C3_7 
REMARK    3  A    between atoms: C3_7  and  C4_8 
REMARK    4  A    between atoms: C4_8  and  C5_9 
REMARK    5  A    between atoms: C5_9  and  C6_10 
REMARK       I    between atoms: C6_10  and  N2_12 
REMARK       I    between atoms: N3_15  and  C9_16 
REMARK    6  A    between atoms: C9_16  and  C10_18 
REMARK    7  A    between atoms: C10_18  and  C11_19 
REMARK    8  A    between atoms: C11_19  and  C12_20 
REMARK    9  A    between atoms: C12_20  and  C13_21 
REMARK   10  A    between atoms: C13_21  and  C14_22 
REMARK   11  A    between atoms: C14_22  and  C15_23 
REMARK   12  A    between atoms: C15_23  and  C16_24 
REMARK   13  A    between atoms: C16_24  and  N4_25 
REMARK       I    between atoms: N4_25  and  C17_27 
REMARK       I    between atoms: C17_27  and  N5_29 
REMARK   14  A    between atoms: N5_29  and  C18_31 
REMARK   15  A    between atoms: C18_31  and  C19_32 
REMARK   16  A    between atoms: C19_32  and  N6_33 
ROOT
HETATM    1  C10 UNL     1      10.744 -18.546 -15.062  1.00  0.00     0.103 C 
ENDROOT
BRANCH   1   2
HETATM    2  C9  UNL     1      10.298 -19.659 -15.894  1.00  0.00     0.219 C 
HETATM    3  N3  UNL     1      11.125 -20.821 -16.095  1.00  0.00    -0.349 N 
HETATM    4  C8  UNL     1      12.423 -20.830 -15.464  1.00  0.00     0.145 C 
HETATM    5  C25 UNL     1      10.644 -21.891 -16.903  1.00  0.00     0.145 C 
HETATM    6  C7  UNL     1      13.521 -21.265 -16.363  1.00  0.00     0.145 C 
HETATM    7  N2  UNL     1      13.023 -21.924 -17.527  1.00  0.00    -0.349 N 
HETATM    8  C6  UNL     1      13.796 -21.807 -18.745  1.00  0.00     0.219 C 
HETATM    9  C26 UNL     1      11.812 -22.683 -17.488  1.00  0.00     0.145 C 
HETATM   10  O3  UNL     1      14.864 -21.154 -18.761  1.00  0.00    -0.273 OA
HETATM   11  O4  UNL     1       9.197 -19.680 -16.471  1.00  0.00    -0.273 OA
BRANCH   8  12
HETATM   12  C5  UNL     1      13.336 -22.461 -19.985  1.00  0.00     0.104 C 
BRANCH  12  13
HETATM   13  C4  UNL     1      14.411 -23.063 -20.809  1.00  0.00     0.029 C 
BRANCH  13  14
HETATM   14  C3  UNL     1      14.867 -24.421 -20.407  1.00  0.00     0.125 C 
BRANCH  14  15
HETATM   15  N1  UNL     1      15.852 -24.272 -19.338  1.00  0.00    -0.337 N 
HETATM   16  C2  UNL     1      17.226 -24.311 -19.663  1.00  0.00     0.360 C 
HETATM   17  O2  UNL     1      17.599 -24.470 -20.842  1.00  0.00    -0.239 OA
ATOM     18  H1  UNL     1      15.552 -24.143 -18.372  1.00  0.00     0.164 HD
BRANCH  16  19
HETATM   19  O1  UNL     1      18.220 -24.176 -18.703  1.00  0.00    -0.309 OA
HETATM   20  C1  UNL     1      18.035 -23.435 -17.499  1.00  0.00     0.215 C 
ENDBRANCH  16  19
ENDBRANCH  14  15
ENDBRANCH  13  14
ENDBRANCH  12  13
ENDBRANCH   8  12
ENDBRANCH   1   2
BRANCH   1  21
HETATM   21  C11 UNL     1       9.948 -17.308 -15.052  1.00  0.00     0.009 C 
BRANCH  21  22
HETATM   22  C12 UNL     1       9.224 -17.031 -13.770  1.00  0.00     0.000 C 
BRANCH  22  23
HETATM   23  C13 UNL     1       9.270 -15.577 -13.496  1.00  0.00     0.000 C 
BRANCH  23  24
HETATM   24  C14 UNL     1       8.018 -14.833 -13.450  1.00  0.00     0.002 C 
BRANCH  24  25
HETATM   25  C15 UNL     1       7.376 -14.405 -14.704  1.00  0.00     0.020 C 
BRANCH  25  26
HETATM   26  C16 UNL     1       6.028 -14.901 -15.058  1.00  0.00     0.124 C 
BRANCH  26  27
HETATM   27  N4  UNL     1       6.201 -16.254 -15.661  1.00  0.00    -0.343 N 
HETATM   28  C17 UNL     1       6.021 -16.444 -17.038  1.00  0.00     0.316 C 
HETATM   29  O5  UNL     1       5.727 -15.440 -17.758  1.00  0.00    -0.247 OA
HETATM   30  N5  UNL     1       6.164 -17.744 -17.588  1.00  0.00    -0.338 N 
ATOM     31  H5  UNL     1       6.413 -18.504 -16.956  1.00  0.00     0.164 HD
ATOM     32  H4  UNL     1       6.452 -17.045 -15.068  1.00  0.00     0.164 HD
BRANCH  30  33
HETATM   33  C18 UNL     1       5.979 -18.061 -18.990  1.00  0.00     0.168 C 
BRANCH  33  34
HETATM   34  C19 UNL     1       7.096 -17.604 -19.854  1.00  0.00     0.077 C 
BRANCH  34  35
HETATM   35  N6  UNL     1       8.164 -18.470 -20.108  1.00  0.00    -0.392 N 
HETATM   36  C20 UNL     1       8.055 -19.833 -19.748  1.00  0.00     0.122 C 
HETATM   37  C21 UNL     1       9.343 -20.581 -20.117  1.00  0.00     0.020 C 
HETATM   38  C22 UNL     1      10.491 -19.694 -19.682  1.00  0.00     0.003 C 
HETATM   39  C23 UNL     1      10.508 -18.446 -20.540  1.00  0.00     0.020 C 
HETATM   40  C24 UNL     1       9.117 -18.124 -21.099  1.00  0.00     0.122 C 
ENDBRANCH  34  35
ENDBRANCH  33  34
ENDBRANCH  30  33
ENDBRANCH  26  27
ENDBRANCH  25  26
ENDBRANCH  24  25
ENDBRANCH  23  24
ENDBRANCH  22  23
ENDBRANCH  21  22
ENDBRANCH   1  21
TORSDOF 16
ENDMDL
MODEL 5
REMARK VINA RESULT: -8.048775452      1.596      2.116
REMARK  16 active torsions:
REMARK  status: ('A' for Active; 'I' for Inactive)
REMARK    1  A    between atoms: O1_2  and  C2_3 
REMARK       I    between atoms: C2_3  and  N1_5 
REMARK    2  A    between atoms: N1_5  and  C3_7 
REMARK    3  A    between atoms: C3_7  and  C4_8 
REMARK    4  A    between atoms: C4_8  and  C5_9 
REMARK    5  A    between atoms: C5_9  and  C6_10 
REMARK       I    between atoms: C6_10  and  N2_12 
REMARK       I    between atoms: N3_15  and  C9_16 
REMARK    6  A    between atoms: C9_16  and  C10_18 
REMARK    7  A    between atoms: C10_18  and  C11_19 
REMARK    8  A    between atoms: C11_19  and  C12_20 
REMARK    9  A    between atoms: C12_20  and  C13_21 
REMARK   10  A    between atoms: C13_21  and  C14_22 
REMARK   11  A    between atoms: C14_22  and  C15_23 
REMARK   12  A    between atoms: C15_23  and  C16_24 
REMARK   13  A    between atoms: C16_24  and  N4_25 
REMARK       I    between atoms: N4_25  and  C17_27 
REMARK       I    between atoms: C17_27  and  N5_29 
REMARK   14  A    between atoms: N5_29  and  C18_31 
REMARK   15  A    between atoms: C18_31  and  C19_32 
REMARK   16  A    between atoms: C19_32  and  N6_33 
ROOT
HETATM    1  C10 UNL     1      12.642 -22.916 -18.727  1.00  0.00     0.103 C 
ENDROOT
BRANCH   1   2
HETATM    2  C9  UNL     1      11.418 -22.619 -17.990  1.00  0.00     0.219 C 
HETATM    3  N3  UNL     1      10.611 -21.471 -18.312  1.00  0.00    -0.349 N 
HETATM    4  C8  UNL     1      11.073 -20.611 -19.375  1.00  0.00     0.145 C 
HETATM    5  C25 UNL     1       9.415 -21.227 -17.577  1.00  0.00     0.145 C 
HETATM    6  C7  UNL     1      11.019 -19.166 -19.040  1.00  0.00     0.145 C 
HETATM    7  N2  UNL     1      10.192 -18.916 -17.903  1.00  0.00    -0.349 N 
HETATM    8  C6  UNL     1      10.532 -17.789 -17.062  1.00  0.00     0.219 C 
HETATM    9  C26 UNL     1       9.060 -19.742 -17.614  1.00  0.00     0.145 C 
HETATM   10  O3  UNL     1      11.515 -17.063 -17.336  1.00  0.00    -0.273 OA
HETATM   11  O4  UNL     1      10.997 -23.323 -17.056  1.00  0.00    -0.273 OA
BRANCH   8  12
HETATM   12  C5  UNL     1       9.721 -17.477 -15.870  1.00  0.00     0.104 C 
BRANCH  12  13
HETATM   13  C4  UNL     1       9.142 -16.112 -15.847  1.00  0.00     0.029 C 
BRANCH  13  14
HETATM   14  C3  UNL     1       7.939 -15.893 -16.694  1.00  0.00     0.125 C 
BRANCH  14  15
HETATM   15  N1  UNL     1       8.364 -15.867 -18.091  1.00  0.00    -0.337 N 
HETATM   16  C2  UNL     1       7.643 -16.624 -19.041  1.00  0.00     0.360 C 
HETATM   17  O2  UNL     1       6.657 -17.308 -18.697  1.00  0.00    -0.239 OA
ATOM     18  H1  UNL     1       9.169 -15.310 -18.377  1.00  0.00     0.164 HD
BRANCH  16  19
HETATM   19  O1  UNL     1       7.985 -16.649 -20.386  1.00  0.00    -0.309 OA
HETATM   20  C1  UNL     1       8.102 -17.860 -21.130  1.00  0.00     0.215 C 
ENDBRANCH  16  19
ENDBRANCH  14  15
ENDBRANCH  13  14
ENDBRANCH  12  13
ENDBRANCH   8  12
ENDBRANCH   1   2
BRANCH   1  21
HETATM   21  C11 UNL     1      13.561 -23.934 -18.191  1.00  0.00     0.009 C 
BRANCH  21  22
HETATM   22  C12 UNL     1      14.119 -24.882 -19.208  1.00  0.00     0.000 C 
BRANCH  22  23
HETATM   23  C13 UNL     1      14.772 -24.103 -20.284  1.00  0.00     0.000 C 
BRANCH  23  24
HETATM   24  C14 UNL     1      16.104 -24.497 -20.724  1.00  0.00     0.002 C 
BRANCH  24  25
HETATM   25  C15 UNL     1      16.703 -25.742 -20.215  1.00  0.00     0.020 C 
BRANCH  25  26
HETATM   26  C16 UNL     1      17.847 -25.690 -19.279  1.00  0.00     0.124 C 
BRANCH  26  27
HETATM   27  N4  UNL     1      17.301 -25.333 -17.938  1.00  0.00    -0.343 N 
HETATM   28  C17 UNL     1      17.571 -24.077 -17.375  1.00  0.00     0.316 C 
HETATM   29  O5  UNL     1      18.269 -23.250 -18.039  1.00  0.00    -0.247 OA
HETATM   30  N5  UNL     1      17.065 -23.767 -16.086  1.00  0.00    -0.338 N 
ATOM     31  H5  UNL     1      16.501 -24.472 -15.613  1.00  0.00     0.164 HD
ATOM     32  H4  UNL     1      16.730 -26.006 -17.427  1.00  0.00     0.164 HD
BRANCH  30  33
HETATM   33  C18 UNL     1      17.298 -22.513 -15.399  1.00  0.00     0.168 C 
BRANCH  33  34
HETATM   34  C19 UNL     1      16.144 -22.060 -14.582  1.00  0.00     0.077 C 
BRANCH  34  35
HETATM   35  N6  UNL     1      15.037 -21.488 -15.218  1.00  0.00    -0.392 N 
HETATM   36  C20 UNL     1      15.238 -20.605 -16.303  1.00  0.00     0.122 C 
HETATM   37  C21 UNL     1      13.888 -20.104 -16.832  1.00  0.00     0.020 C 
HETATM   38  C22 UNL     1      13.057 -19.754 -15.616  1.00  0.00     0.003 C 
HETATM   39  C23 UNL     1      12.728 -21.021 -14.855  1.00  0.00     0.020 C 
HETATM   40  C24 UNL     1      13.772 -22.116 -15.104  1.00  0.00     0.122 C 
ENDBRANCH  34  35
ENDBRANCH  33  34
ENDBRANCH  30  33
ENDBRANCH  26  27
ENDBRANCH  25  26
ENDBRANCH  24  25
ENDBRANCH  23  24
ENDBRANCH  22  23
ENDBRANCH  21  22
ENDBRANCH   1  21
TORSDOF 16
ENDMDL
