MODEL 1
REMARK VINA RESULT: -8.532952020      0.000      0.000
REMARK  16 active torsions:
REMARK  status: ('A' for Active; 'I' for Inactive)
REMARK    1  A    between atoms: N1_4  and  C4_5 
REMARK    2  A    between atoms: C4_5  and  C5_6 
REMARK    3  A    between atoms: C4_5  and  C13_19 
REMARK       I    between atoms: C5_6  and  N2_8 
REMARK    4  A    between atoms: N2_8  and  C6_10 
REMARK    5  A    between atoms: C6_10  and  C7_11 
REMARK    6  A    between atoms: C7_11  and  C8_12 
REMARK    7  A    between atoms: C8_12  and  N3_13 
REMARK    8  A    between atoms: C20_27  and  C21_28 
REMARK    9  A    between atoms: C21_28  and  C22_29 
REMARK   10  A    between atoms: C22_29  and  C23_30 
REMARK   11  A    between atoms: C23_30  and  C24_31 
REMARK   12  A    between atoms: C24_31  and  C25_32 
REMARK   13  A    between atoms: C25_32  and  C26_33 
REMARK   14  A    between atoms: N5_36  and  C27_37 
REMARK   15  A    between atoms: C27_37  and  C28_38 
REMARK   16  A    between atoms: C28_38  and  N6_39 
ROOT
HETATM    1  C1  UNL     1      14.610 -19.705 -17.852  1.00  0.00     0.045 C 
HETATM    2  C2  UNL     1      13.216 -20.078 -17.318  1.00  0.00     0.238 C 
HETATM    3  C3  UNL     1      12.237 -19.533 -18.293  1.00  0.00     0.162 C 
HETATM    4  N1  UNL     1      10.889 -19.956 -17.892  1.00  0.00    -0.334 N 
HETATM    5  C19 UNL     1      10.798 -21.354 -17.723  1.00  0.00     0.254 C 
HETATM    6  O3  UNL     1       9.742 -22.024 -17.826  1.00  0.00    -0.271 OA
HETATM    7  C20 UNL     1      12.001 -22.166 -17.399  1.00  0.00     0.314 C 
HETATM    8  N5  UNL     1      13.136 -21.444 -17.012  1.00  0.00     0.109 N 
ENDROOT
BRANCH   4   9
HETATM    9  C4  UNL     1       9.805 -19.056 -17.714  1.00  0.00     0.183 C 
BRANCH   9  10
HETATM   10  C5  UNL     1      10.129 -18.033 -16.705  1.00  0.00     0.241 C 
HETATM   11  O1  UNL     1      10.229 -16.853 -17.053  1.00  0.00    -0.271 OA
HETATM   12  N2  UNL     1      10.322 -18.393 -15.359  1.00  0.00    -0.359 N 
ATOM     13  H2  UNL     1      10.236 -19.373 -15.089  1.00  0.00     0.162 HD
BRANCH  12  14
HETATM   14  C6  UNL     1      10.644 -17.395 -14.332  1.00  0.00     0.124 C 
BRANCH  14  15
HETATM   15  C7  UNL     1       9.414 -16.975 -13.563  1.00  0.00     0.050 C 
BRANCH  15  16
HETATM   16  C8  UNL     1       8.941 -15.653 -14.070  1.00  0.00     0.274 C 
BRANCH  16  17
HETATM   17  N3  UNL     1       7.582 -15.646 -14.505  1.00  0.00     0.092 N 
HETATM   18  C9  UNL     1       7.291 -14.595 -15.452  1.00  0.00     0.298 C 
HETATM   19  C10 UNL     1       7.129 -15.141 -16.849  1.00  0.00     0.198 C 
HETATM   20  O2  UNL     1       6.051 -16.009 -16.968  1.00  0.00    -0.388 OA
HETATM   21  C11 UNL     1       5.793 -16.619 -15.757  1.00  0.00     0.198 C 
HETATM   22  C12 UNL     1       7.095 -16.900 -14.994  1.00  0.00     0.298 C 
ENDBRANCH  16  17
ENDBRANCH  15  16
ENDBRANCH  14  15
ENDBRANCH  12  14
ENDBRANCH   9  10
BRANCH   9  23
HETATM   23  C13 UNL     1       9.161 -18.416 -18.888  1.00  0.00     0.018 C 
HETATM   24  C14 UNL     1       7.643 -18.511 -18.870  1.00  0.00     0.007 C 
HETATM   25  C15 UNL     1       7.186 -17.967 -20.234  1.00  0.00     0.000 C 
HETATM   26  C16 UNL     1       7.561 -19.073 -21.220  1.00  0.00     0.000 C 
HETATM   27  C17 UNL     1       9.055 -19.252 -21.268  1.00  0.00     0.000 C 
HETATM   28  C18 UNL     1       9.784 -18.486 -20.211  1.00  0.00     0.007 C 
ENDBRANCH   9  23
ENDBRANCH   4   9
BRANCH   7  29
HETATM   29  C21 UNL     1      12.325 -22.955 -18.648  1.00  0.00     0.046 C 
BRANCH  29  30
HETATM   30  C22 UNL     1      13.849 -23.148 -18.753  1.00  0.00     0.003 C 
BRANCH  30  31
HETATM   31  C23 UNL     1      14.226 -22.817 -20.151  1.00  0.00     0.001 C 
BRANCH  31  32
HETATM   32  C24 UNL     1      14.845 -23.885 -20.964  1.00  0.00     0.009 C 
BRANCH  32  33
HETATM   33  C25 UNL     1      15.689 -24.900 -20.306  1.00  0.00     0.099 C 
BRANCH  33  34
HETATM   34  C26 UNL     1      17.111 -24.607 -20.106  1.00  0.00     0.231 C 
HETATM   35  N4  UNL     1      17.585 -23.980 -18.898  1.00  0.00    -0.062 NA
HETATM   36  O4  UNL     1      17.991 -24.892 -20.968  1.00  0.00    -0.277 OA
ENDBRANCH  33  34
ENDBRANCH  32  33
ENDBRANCH  31  32
ENDBRANCH  30  31
ENDBRANCH  29  30
ENDBRANCH   7  29
BRANCH   8  37
HETATM   37  C27 UNL     1      13.420 -21.710 -15.621  1.00  0.00     0.301 C 
BRANCH  37  38
HETATM   38  C28 UNL     1      14.746 -22.370 -15.381  1.00  0.00     0.259 C 
BRANCH  38  39
HETATM   39  N6  UNL     1      14.689 -23.231 -14.195  1.00  0.00    -0.078 N 
ATOM     40  H63 UNL     1      14.409 -22.711 -13.363  1.00  0.00     0.274 HD
ATOM     41  H62 UNL     1      13.906 -23.883 -14.239  1.00  0.00     0.274 HD
ATOM     42  H61 UNL     1      15.576 -23.714 -14.057  1.00  0.00     0.274 HD
ENDBRANCH  38  39
ENDBRANCH  37  38
ENDBRANCH   8  37
TORSDOF 16
ENDMDL
MODEL 2
REMARK VINA RESULT: -8.202407041      1.001      1.191
REMARK  16 active torsions:
REMARK  status: ('A' for Active; 'I' for Inactive)
REMARK    1  A    between atoms: N1_4  and  C4_5 
REMARK    2  A    between atoms: C4_5  and  C5_6 
REMARK    3  A    between atoms: C4_5  and  C13_19 
REMARK       I    between atoms: C5_6  and  N2_8 
REMARK    4  A    between atoms: N2_8  and  C6_10 
REMARK    5  A    between atoms: C6_10  and  C7_11 
REMARK    6  A    between atoms: C7_11  and  C8_12 
REMARK    7  A    between atoms: C8_12  and  N3_13 
REMARK    8  A    between atoms: C20_27  and  C21_28 
REMARK    9  A    between atoms: C21_28  and  C22_29 
REMARK   10  A    between atoms: C22_29  and  C23_30 
REMARK   11  A    between atoms: C23_30  and  C24_31 
REMARK   12  A    between atoms: C24_31  and  C25_32 
REMARK   13  A    between atoms: C25_32  and  C26_33 
REMARK   14  A    between atoms: N5_36  and  C27_37 
REMARK   15  A    between atoms: C27_37  and  C28_38 
REMARK   16  A    between atoms: C28_38  and  N6_39 
ROOT
HETATM    1  C1  UNL     1      14.547 -19.771 -17.781  1.00  0.00     0.045 C 
HETATM    2  C2  UNL     1      13.220 -20.214 -17.141  1.00  0.00     0.238 C 
HETATM    3  C3  UNL     1      12.152 -19.862 -18.111  1.00  0.00     0.162 C 
HETATM    4  N1  UNL     1      10.869 -20.363 -17.600  1.00  0.00    -0.334 N 
HETATM    5  C19 UNL     1      10.920 -21.740 -17.293  1.00  0.00     0.254 C 
HETATM    6  O3  UNL     1       9.930 -22.510 -17.276  1.00  0.00    -0.271 OA
HETATM    7  C20 UNL     1      12.209 -22.402 -16.956  1.00  0.00     0.314 C 
HETATM    8  N5  UNL     1      13.284 -21.545 -16.701  1.00  0.00     0.109 N 
ENDROOT
BRANCH   4   9
HETATM    9  C4  UNL     1       9.712 -19.552 -17.453  1.00  0.00     0.183 C 
BRANCH   9  10
HETATM   10  C5  UNL     1       9.602 -19.037 -16.078  1.00  0.00     0.241 C 
HETATM   11  O1  UNL     1       8.647 -19.387 -15.378  1.00  0.00    -0.271 OA
HETATM   12  N2  UNL     1      10.572 -18.156 -15.565  1.00  0.00    -0.359 N 
ATOM     13  H2  UNL     1      11.353 -17.877 -16.158  1.00  0.00     0.162 HD
BRANCH  12  14
HETATM   14  C6  UNL     1      10.487 -17.628 -14.198  1.00  0.00     0.124 C 
BRANCH  14  15
HETATM   15  C7  UNL     1      10.450 -16.118 -14.188  1.00  0.00     0.050 C 
BRANCH  15  16
HETATM   16  C8  UNL     1       9.175 -15.658 -13.562  1.00  0.00     0.274 C 
BRANCH  16  17
HETATM   17  N3  UNL     1       8.406 -14.779 -14.382  1.00  0.00     0.092 N 
HETATM   18  C9  UNL     1       8.040 -15.358 -15.654  1.00  0.00     0.298 C 
HETATM   19  C10 UNL     1       6.579 -15.732 -15.689  1.00  0.00     0.198 C 
HETATM   20  O2  UNL     1       5.737 -14.635 -15.565  1.00  0.00    -0.388 OA
HETATM   21  C11 UNL     1       6.364 -13.630 -14.856  1.00  0.00     0.198 C 
HETATM   22  C12 UNL     1       7.255 -14.211 -13.749  1.00  0.00     0.298 C 
ENDBRANCH  16  17
ENDBRANCH  15  16
ENDBRANCH  14  15
ENDBRANCH  12  14
ENDBRANCH   9  10
BRANCH   9  23
HETATM   23  C13 UNL     1       9.432 -18.464 -18.422  1.00  0.00     0.018 C 
HETATM   24  C14 UNL     1       8.003 -17.948 -18.352  1.00  0.00     0.007 C 
HETATM   25  C15 UNL     1       7.863 -16.976 -19.535  1.00  0.00     0.000 C 
HETATM   26  C16 UNL     1       7.813 -17.887 -20.761  1.00  0.00     0.000 C 
HETATM   27  C17 UNL     1       9.113 -18.631 -20.920  1.00  0.00     0.000 C 
HETATM   28  C18 UNL     1      10.036 -18.477 -19.754  1.00  0.00     0.007 C 
ENDBRANCH   9  23
ENDBRANCH   4   9
BRANCH   7  29
HETATM   29  C21 UNL     1      12.552 -23.280 -18.139  1.00  0.00     0.046 C 
BRANCH  29  30
HETATM   30  C22 UNL     1      14.081 -23.432 -18.239  1.00  0.00     0.003 C 
BRANCH  30  31
HETATM   31  C23 UNL     1      14.436 -23.240 -19.669  1.00  0.00     0.001 C 
BRANCH  31  32
HETATM   32  C24 UNL     1      14.799 -24.442 -20.450  1.00  0.00     0.009 C 
BRANCH  32  33
HETATM   33  C25 UNL     1      15.891 -25.313 -19.976  1.00  0.00     0.099 C 
BRANCH  33  34
HETATM   34  C26 UNL     1      17.256 -24.782 -19.962  1.00  0.00     0.231 C 
HETATM   35  N4  UNL     1      17.785 -24.101 -18.807  1.00  0.00    -0.062 NA
HETATM   36  O4  UNL     1      18.040 -24.898 -20.948  1.00  0.00    -0.277 OA
ENDBRANCH  33  34
ENDBRANCH  32  33
ENDBRANCH  31  32
ENDBRANCH  30  31
ENDBRANCH  29  30
ENDBRANCH   7  29
BRANCH   8  37
HETATM   37  C27 UNL     1      13.652 -21.642 -15.308  1.00  0.00     0.301 C 
BRANCH  37  38
HETATM   38  C28 UNL     1      15.001 -22.255 -15.071  1.00  0.00     0.259 C 
BRANCH  38  39
HETATM   39  N6  UNL     1      14.903 -23.375 -14.129  1.00  0.00    -0.078 N 
ATOM     40  H63 UNL     1      14.412 -24.171 -14.538  1.00  0.00     0.274 HD
ATOM     41  H62 UNL     1      15.809 -23.818 -13.974  1.00  0.00     0.274 HD
ATOM     42  H61 UNL     1      14.474 -23.075 -13.255  1.00  0.00     0.274 HD
ENDBRANCH  38  39
ENDBRANCH  37  38
ENDBRANCH   8  37
TORSDOF 16
ENDMDL
MODEL 3
REMARK VINA RESULT: -8.198134036      2.497      9.162
REMARK  16 active torsions:
REMARK  status: ('A' for Active; 'I' for Inactive)
REMARK    1  A    between atoms: N1_4  and  C4_5 
REMARK    2  A    between atoms: C4_5  and  C5_6 
REMARK    3  A    between atoms: C4_5  and  C13_19 
REMARK       I    between atoms: C5_6  and  N2_8 
REMARK    4  A    between atoms: N2_8  and  C6_10 
REMARK    5  A    between atoms: C6_10  and  C7_11 
REMARK    6  A    between atoms: C7_11  and  C8_12 
REMARK    7  A    between atoms: C8_12  and  N3_13 
REMARK    8  A    between atoms: C20_27  and  C21_28 
REMARK    9  A    between atoms: C21_28  and  C22_29 
REMARK   10  A    between atoms: C22_29  and  C23_30 
REMARK   11  A    between atoms: C23_30  and  C24_31 
REMARK   12  A    between atoms: C24_31  and  C25_32 
REMARK   13  A    between atoms: C25_32  and  C26_33 
REMARK   14  A    between atoms: N5_36  and  C27_37 
REMARK   15  A    between atoms: C27_37  and  C28_38 
REMARK   16  A    between atoms: C28_38  and  N6_39 
ROOT
HETATM    1  C1  UNL     1      10.860 -18.283 -19.841  1.00  0.00     0.045 C 
HETATM    2  C2  UNL     1      11.116 -19.485 -18.916  1.00  0.00     0.238 C 
HETATM    3  C3  UNL     1      12.397 -19.208 -18.218  1.00  0.00     0.162 C 
HETATM    4  N1  UNL     1      12.638 -20.274 -17.235  1.00  0.00    -0.334 N 
HETATM    5  C19 UNL     1      11.545 -20.448 -16.360  1.00  0.00     0.254 C 
HETATM    6  O3  UNL     1      11.618 -20.929 -15.204  1.00  0.00    -0.271 OA
HETATM    7  C20 UNL     1      10.169 -20.054 -16.766  1.00  0.00     0.314 C 
HETATM    8  N5  UNL     1       9.994 -19.769 -18.124  1.00  0.00     0.109 N 
ENDROOT
BRANCH   4   9
HETATM    9  C4  UNL     1      13.842 -21.025 -17.172  1.00  0.00     0.183 C 
BRANCH   9  10
HETATM   10  C5  UNL     1      14.316 -21.145 -15.783  1.00  0.00     0.241 C 
HETATM   11  O1  UNL     1      14.943 -20.209 -15.277  1.00  0.00    -0.271 OA
HETATM   12  N2  UNL     1      14.058 -22.310 -15.037  1.00  0.00    -0.359 N 
ATOM     13  H2  UNL     1      13.539 -23.073 -15.472  1.00  0.00     0.162 HD
BRANCH  12  14
HETATM   14  C6  UNL     1      14.517 -22.455 -13.651  1.00  0.00     0.124 C 
BRANCH  14  15
HETATM   15  C7  UNL     1      15.319 -23.721 -13.462  1.00  0.00     0.050 C 
BRANCH  15  16
HETATM   16  C8  UNL     1      16.775 -23.391 -13.486  1.00  0.00     0.274 C 
BRANCH  16  17
HETATM   17  N3  UNL     1      17.279 -23.059 -14.780  1.00  0.00     0.092 N 
HETATM   18  C9  UNL     1      17.923 -21.767 -14.827  1.00  0.00     0.298 C 
HETATM   19  C10 UNL     1      19.422 -21.902 -14.916  1.00  0.00     0.198 C 
HETATM   20  O2  UNL     1      19.840 -22.529 -16.082  1.00  0.00    -0.388 OA
HETATM   21  C11 UNL     1      18.858 -23.382 -16.544  1.00  0.00     0.198 C 
HETATM   22  C12 UNL     1      18.118 -24.052 -15.378  1.00  0.00     0.298 C 
ENDBRANCH  16  17
ENDBRANCH  15  16
ENDBRANCH  14  15
ENDBRANCH  12  14
ENDBRANCH   9  10
BRANCH   9  23
HETATM   23  C13 UNL     1      13.941 -22.340 -17.852  1.00  0.00     0.018 C 
HETATM   24  C14 UNL     1      15.366 -22.864 -17.947  1.00  0.00     0.007 C 
HETATM   25  C15 UNL     1      15.280 -24.119 -18.830  1.00  0.00     0.000 C 
HETATM   26  C16 UNL     1      15.049 -23.569 -20.237  1.00  0.00     0.000 C 
HETATM   27  C17 UNL     1      13.726 -22.855 -20.314  1.00  0.00     0.000 C 
HETATM   28  C18 UNL     1      13.071 -22.663 -18.983  1.00  0.00     0.007 C 
ENDBRANCH   9  23
ENDBRANCH   4   9
BRANCH   7  29
HETATM   29  C21 UNL     1       9.829 -18.820 -15.959  1.00  0.00     0.046 C 
BRANCH  29  30
HETATM   30  C22 UNL     1       8.530 -19.066 -15.168  1.00  0.00     0.003 C 
BRANCH  30  31
HETATM   31  C23 UNL     1       8.501 -18.061 -14.074  1.00  0.00     0.001 C 
BRANCH  31  32
HETATM   32  C24 UNL     1       9.630 -17.110 -13.989  1.00  0.00     0.009 C 
BRANCH  32  33
HETATM   33  C25 UNL     1       9.355 -15.667 -13.861  1.00  0.00     0.099 C 
BRANCH  33  34
HETATM   34  C26 UNL     1       8.692 -14.978 -14.971  1.00  0.00     0.231 C 
HETATM   35  N4  UNL     1       7.908 -13.788 -14.754  1.00  0.00    -0.062 NA
HETATM   36  O4  UNL     1       8.776 -15.380 -16.166  1.00  0.00    -0.277 OA
ENDBRANCH  33  34
ENDBRANCH  32  33
ENDBRANCH  31  32
ENDBRANCH  30  31
ENDBRANCH  29  30
ENDBRANCH   7  29
BRANCH   8  37
HETATM   37  C27 UNL     1       9.147 -20.777 -18.718  1.00  0.00     0.301 C 
BRANCH  37  38
HETATM   38  C28 UNL     1       7.960 -20.227 -19.453  1.00  0.00     0.259 C 
BRANCH  38  39
HETATM   39  N6  UNL     1       7.179 -19.339 -18.586  1.00  0.00    -0.078 N 
ATOM     40  H63 UNL     1       6.176 -19.455 -18.732  1.00  0.00     0.274 HD
ATOM     41  H62 UNL     1       7.227 -19.628 -17.609  1.00  0.00     0.274 HD
ATOM     42  H61 UNL     1       7.469 -18.369 -18.708  1.00  0.00     0.274 HD
ENDBRANCH  38  39
ENDBRANCH  37  38
ENDBRANCH   8  37
TORSDOF 16
ENDMDL
MODEL 4
REMARK VINA RESULT: -8.198084708      1.260      1.430
REMARK  16 active torsions:
REMARK  status: ('A' for Active; 'I' for Inactive)
REMARK    1  A    between atoms: N1_4  and  C4_5 
REMARK    2  A    between atoms: C4_5  and  C5_6 
REMARK    3  A    between atoms: C4_5  and  C13_19 
REMARK       I    between atoms: C5_6  and  N2_8 
REMARK    4  A    between atoms: N2_8  and  C6_10 
REMARK    5  A    between atoms: C6_10  and  C7_11 
REMARK    6  A    between atoms: C7_11  and  C8_12 
REMARK    7  A    between atoms: C8_12  and  N3_13 
REMARK    8  A    between atoms: C20_27  and  C21_28 
REMARK    9  A    between atoms: C21_28  and  C22_29 
REMARK   10  A    between atoms: C22_29  and  C23_30 
REMARK   11  A    between atoms: C23_30  and  C24_31 
REMARK   12  A    between atoms: C24_31  and  C25_32 
REMARK   13  A    between atoms: C25_32  and  C26_33 
REMARK   14  A    between atoms: N5_36  and  C27_37 
REMARK   15  A    between atoms: C27_37  and  C28_38 
REMARK   16  A    between atoms: C28_38  and  N6_39 
ROOT
HETATM    1  C1  UNL     1      14.516 -19.675 -18.132  1.00  0.00     0.045 C 
HETATM    2  C2  UNL     1      13.363 -20.261 -17.299  1.00  0.00     0.238 C 
HETATM    3  C3  UNL     1      12.127 -20.055 -18.096  1.00  0.00     0.162 C 
HETATM    4  N1  UNL     1      11.004 -20.697 -17.398  1.00  0.00    -0.334 N 
HETATM    5  C19 UNL     1      11.266 -22.052 -17.103  1.00  0.00     0.254 C 
HETATM    6  O3  UNL     1      10.390 -22.935 -16.936  1.00  0.00    -0.271 OA
HETATM    7  C20 UNL     1      12.661 -22.550 -16.965  1.00  0.00     0.314 C 
HETATM    8  N5  UNL     1      13.652 -21.567 -16.875  1.00  0.00     0.109 N 
ENDROOT
BRANCH   4   9
HETATM    9  C4  UNL     1       9.794 -20.027 -17.077  1.00  0.00     0.183 C 
BRANCH   9  10
HETATM   10  C5  UNL     1       9.958 -19.190 -15.877  1.00  0.00     0.241 C 
HETATM   11  O1  UNL     1      10.979 -19.308 -15.193  1.00  0.00    -0.271 OA
HETATM   12  N2  UNL     1       8.963 -18.264 -15.510  1.00  0.00    -0.359 N 
ATOM     13  H2  UNL     1       8.126 -18.180 -16.087  1.00  0.00     0.162 HD
BRANCH  12  14
HETATM   14  C6  UNL     1       9.101 -17.415 -14.320  1.00  0.00     0.124 C 
BRANCH  14  15
HETATM   15  C7  UNL     1       8.082 -16.301 -14.314  1.00  0.00     0.050 C 
BRANCH  15  16
HETATM   16  C8  UNL     1       8.408 -15.326 -15.396  1.00  0.00     0.274 C 
BRANCH  16  17
HETATM   17  N3  UNL     1       7.296 -14.968 -16.216  1.00  0.00     0.092 N 
HETATM   18  C9  UNL     1       7.342 -15.563 -17.531  1.00  0.00     0.298 C 
HETATM   19  C10 UNL     1       6.340 -16.682 -17.665  1.00  0.00     0.198 C 
HETATM   20  O2  UNL     1       5.026 -16.249 -17.538  1.00  0.00    -0.388 OA
HETATM   21  C11 UNL     1       4.971 -15.117 -16.749  1.00  0.00     0.198 C 
HETATM   22  C12 UNL     1       6.012 -15.180 -15.622  1.00  0.00     0.298 C 
ENDBRANCH  16  17
ENDBRANCH  15  16
ENDBRANCH  14  15
ENDBRANCH  12  14
ENDBRANCH   9  10
BRANCH   9  23
HETATM   23  C13 UNL     1       9.057 -19.272 -18.120  1.00  0.00     0.018 C 
HETATM   24  C14 UNL     1       8.107 -20.138 -18.934  1.00  0.00     0.007 C 
HETATM   25  C15 UNL     1       7.590 -19.228 -20.059  1.00  0.00     0.000 C 
HETATM   26  C16 UNL     1       8.783 -19.090 -21.004  1.00  0.00     0.000 C 
HETATM   27  C17 UNL     1       9.921 -18.381 -20.318  1.00  0.00     0.000 C 
HETATM   28  C18 UNL     1       9.705 -18.183 -18.852  1.00  0.00     0.007 C 
ENDBRANCH   9  23
ENDBRANCH   4   9
BRANCH   7  29
HETATM   29  C21 UNL     1      12.926 -23.402 -18.186  1.00  0.00     0.046 C 
BRANCH  29  30
HETATM   30  C22 UNL     1      14.423 -23.336 -18.544  1.00  0.00     0.003 C 
BRANCH  30  31
HETATM   31  C23 UNL     1      14.507 -23.327 -20.027  1.00  0.00     0.001 C 
BRANCH  31  32
HETATM   32  C24 UNL     1      15.038 -24.538 -20.689  1.00  0.00     0.009 C 
BRANCH  32  33
HETATM   33  C25 UNL     1      16.023 -25.377 -19.983  1.00  0.00     0.099 C 
BRANCH  33  34
HETATM   34  C26 UNL     1      17.418 -24.930 -19.933  1.00  0.00     0.231 C 
HETATM   35  N4  UNL     1      17.949 -24.255 -18.775  1.00  0.00    -0.062 NA
HETATM   36  O4  UNL     1      18.225 -25.117 -20.887  1.00  0.00    -0.277 OA
ENDBRANCH  33  34
ENDBRANCH  32  33
ENDBRANCH  31  32
ENDBRANCH  30  31
ENDBRANCH  29  30
ENDBRANCH   7  29
BRANCH   8  37
HETATM   37  C27 UNL     1      14.234 -21.595 -15.553  1.00  0.00     0.301 C 
BRANCH  37  38
HETATM   38  C28 UNL     1      15.693 -21.944 -15.533  1.00  0.00     0.259 C 
BRANCH  38  39
HETATM   39  N6  UNL     1      16.506 -20.758 -15.245  1.00  0.00    -0.078 N 
ATOM     40  H63 UNL     1      15.951 -20.013 -14.823  1.00  0.00     0.274 HD
ATOM     41  H62 UNL     1      17.155 -20.922 -14.475  1.00  0.00     0.274 HD
ATOM     42  H61 UNL     1      16.989 -20.439 -16.085  1.00  0.00     0.274 HD
ENDBRANCH  38  39
ENDBRANCH  37  38
ENDBRANCH   8  37
TORSDOF 16
ENDMDL
MODEL 5
REMARK VINA RESULT: -8.176362100      2.283     10.159
REMARK  16 active torsions:
REMARK  status: ('A' for Active; 'I' for Inactive)
REMARK    1  A    between atoms: N1_4  and  C4_5 
REMARK    2  A    between atoms: C4_5  and  C5_6 
REMARK    3  A    between atoms: C4_5  and  C13_19 
REMARK       I    between atoms: C5_6  and  N2_8 
REMARK    4  A    between atoms: N2_8  and  C6_10 
REMARK    5  A    between atoms: C6_10  and  C7_11 
REMARK    6  A    between atoms: C7_11  and  C8_12 
REMARK    7  A    between atoms: C8_12  and  N3_13 
REMARK    8  A    between atoms: C20_27  and  C21_28 
REMARK    9  A    between atoms: C21_28  and  C22_29 
REMARK   10  A    between atoms: C22_29  and  C23_30 
REMARK   11  A    between atoms: C23_30  and  C24_31 
REMARK   12  A    between atoms: C24_31  and  C25_32 
REMARK   13  A    between atoms: C25_32  and  C26_33 
REMARK   14  A    between atoms: N5_36  and  C27_37 
REMARK   15  A    between atoms: C27_37  and  C28_38 
REMARK   16  A    between atoms: C28_38  and  N6_39 
ROOT
HETATM    1  C1  UNL     1      11.905 -17.786 -17.397  1.00  0.00     0.045 C 
HETATM    2  C2  UNL     1      11.893 -19.290 -17.717  1.00  0.00     0.238 C 
HETATM    3  C3  UNL     1      12.351 -19.982 -16.485  1.00  0.00     0.162 C 
HETATM    4  N1  UNL     1      12.253 -21.433 -16.696  1.00  0.00    -0.334 N 
HETATM    5  C19 UNL     1      10.964 -21.824 -17.117  1.00  0.00     0.254 C 
HETATM    6  O3  UNL     1      10.467 -22.963 -16.947  1.00  0.00    -0.271 OA
HETATM    7  C20 UNL     1      10.065 -20.869 -17.818  1.00  0.00     0.314 C 
HETATM    8  N5  UNL     1      10.664 -19.686 -18.265  1.00  0.00     0.109 N 
ENDROOT
BRANCH   4   9
HETATM    9  C4  UNL     1      13.333 -22.331 -16.483  1.00  0.00     0.183 C 
BRANCH   9  10
HETATM   10  C5  UNL     1      13.882 -22.808 -17.763  1.00  0.00     0.241 C 
HETATM   11  O1  UNL     1      14.203 -21.985 -18.626  1.00  0.00    -0.271 OA
HETATM   12  N2  UNL     1      14.041 -24.185 -18.004  1.00  0.00    -0.359 N 
ATOM     13  H2  UNL     1      13.770 -24.851 -17.280  1.00  0.00     0.162 HD
BRANCH  12  14
HETATM   14  C6  UNL     1      14.588 -24.688 -19.270  1.00  0.00     0.124 C 
BRANCH  14  15
HETATM   15  C7  UNL     1      15.865 -25.464 -19.053  1.00  0.00     0.050 C 
BRANCH  15  16
HETATM   16  C8  UNL     1      17.012 -24.513 -18.960  1.00  0.00     0.274 C 
BRANCH  16  17
HETATM   17  N3  UNL     1      18.233 -25.109 -18.522  1.00  0.00     0.092 N 
HETATM   18  C9  UNL     1      18.684 -24.612 -17.243  1.00  0.00     0.298 C 
HETATM   19  C10 UNL     1      18.470 -25.628 -16.150  1.00  0.00     0.198 C 
HETATM   20  O2  UNL     1      19.209 -26.789 -16.339  1.00  0.00    -0.388 OA
HETATM   21  C11 UNL     1      19.447 -26.990 -17.684  1.00  0.00     0.198 C 
HETATM   22  C12 UNL     1      18.246 -26.540 -18.528  1.00  0.00     0.298 C 
ENDBRANCH  16  17
ENDBRANCH  15  16
ENDBRANCH  14  15
ENDBRANCH  12  14
ENDBRANCH   9  10
BRANCH   9  23
HETATM   23  C13 UNL     1      14.440 -21.966 -15.566  1.00  0.00     0.018 C 
HETATM   24  C14 UNL     1      15.818 -22.277 -16.130  1.00  0.00     0.007 C 
HETATM   25  C15 UNL     1      16.800 -22.006 -14.979  1.00  0.00     0.000 C 
HETATM   26  C16 UNL     1      16.579 -23.175 -14.019  1.00  0.00     0.000 C 
HETATM   27  C17 UNL     1      15.183 -23.140 -13.458  1.00  0.00     0.000 C 
HETATM   28  C18 UNL     1      14.297 -22.133 -14.119  1.00  0.00     0.007 C 
ENDBRANCH   9  23
ENDBRANCH   4   9
BRANCH   7  29
HETATM   29  C21 UNL     1       8.969 -20.522 -16.834  1.00  0.00     0.046 C 
BRANCH  29  30
HETATM   30  C22 UNL     1       8.893 -18.992 -16.668  1.00  0.00     0.003 C 
BRANCH  30  31
HETATM   31  C23 UNL     1       8.737 -18.728 -15.215  1.00  0.00     0.001 C 
BRANCH  31  32
HETATM   32  C24 UNL     1       9.276 -17.455 -14.690  1.00  0.00     0.009 C 
BRANCH  32  33
HETATM   33  C25 UNL     1       8.360 -16.326 -14.446  1.00  0.00     0.099 C 
BRANCH  33  34
HETATM   34  C26 UNL     1       8.381 -15.191 -15.373  1.00  0.00     0.231 C 
HETATM   35  N4  UNL     1       8.279 -15.384 -16.798  1.00  0.00    -0.062 NA
HETATM   36  O4  UNL     1       8.482 -13.995 -14.979  1.00  0.00    -0.277 OA
ENDBRANCH  33  34
ENDBRANCH  32  33
ENDBRANCH  31  32
ENDBRANCH  30  31
ENDBRANCH  29  30
ENDBRANCH   7  29
BRANCH   8  37
HETATM   37  C27 UNL     1      10.681 -19.675 -19.709  1.00  0.00     0.301 C 
BRANCH  37  38
HETATM   38  C28 UNL     1       9.452 -19.082 -20.333  1.00  0.00     0.259 C 
BRANCH  38  39
HETATM   39  N6  UNL     1       9.379 -17.642 -20.067  1.00  0.00    -0.078 N 
ATOM     40  H63 UNL     1       8.969 -17.446 -19.154  1.00  0.00     0.274 HD
ATOM     41  H62 UNL     1      10.303 -17.239 -19.911  1.00  0.00     0.274 HD
ATOM     42  H61 UNL     1       8.879 -17.162 -20.816  1.00  0.00     0.274 HD
ENDBRANCH  38  39
ENDBRANCH  37  38
ENDBRANCH   8  37
TORSDOF 16
ENDMDL
