MODEL 1
REMARK VINA RESULT: -9.116850420      0.000      0.000
REMARK  14 active torsions:
REMARK  status: ('A' for Active; 'I' for Inactive)
REMARK    1  A    between atoms: C2_2  and  C3_4 
REMARK    2  A    between atoms: C3_4  and  C4_5 
REMARK    3  A    between atoms: C4_5  and  C5_6 
REMARK    4  A    between atoms: C5_6  and  N1_7 
REMARK    5  A    between atoms: C5_6  and  C15_23 
REMARK       I    between atoms: N1_7  and  C6_9 
REMARK    6  A    between atoms: C6_9  and  C7_11 
REMARK    7  A    between atoms: C7_11  and  C8_12 
REMARK    8  A    between atoms: C8_12  and  C9_13 
REMARK    9  A    between atoms: C9_13  and  C10_14 
REMARK   10  A    between atoms: C10_14  and  C11_15 
REMARK   11  A    between atoms: C11_15  and  N2_16 
REMARK       I    between atoms: C15_23  and  N4_25 
REMARK   12  A    between atoms: N4_25  and  C16_27 
REMARK   13  A    between atoms: C16_27  and  C17_28 
REMARK   14  A    between atoms: C17_28  and  C18_30 
REMARK       I    between atoms: C18_30  and  N5_32 
ROOT
HETATM    1  C5  UNL     1      17.532 -23.047 -14.618  1.00  0.00     0.177 C 
ENDROOT
BRANCH   1   2
HETATM    2  C4  UNL     1      17.788 -23.634 -13.295  1.00  0.00     0.042 C 
BRANCH   2   3
HETATM    3  C3  UNL     1      16.666 -24.453 -12.724  1.00  0.00     0.080 C 
BRANCH   3   4
HETATM    4  C2  UNL     1      17.027 -25.897 -12.726  1.00  0.00     0.123 C 
HETATM    5  C1  UNL     1      16.486 -26.767 -11.656  1.00  0.00     0.091 C 
HETATM    6  O1  UNL     1      17.751 -26.320 -13.597  1.00  0.00    -0.298 OA
ENDBRANCH   3   4
ENDBRANCH   2   3
ENDBRANCH   1   2
BRANCH   1   7
HETATM    7  N1  UNL     1      16.151 -23.032 -15.049  1.00  0.00    -0.348 N 
HETATM    8  C6  UNL     1      15.291 -21.925 -15.010  1.00  0.00     0.218 C 
HETATM    9  O2  UNL     1      15.725 -20.829 -14.581  1.00  0.00    -0.274 OA
ATOM     10  H1  UNL     1      15.769 -23.905 -15.414  1.00  0.00     0.163 HD
BRANCH   8  11
HETATM   11  C7  UNL     1      13.901 -22.030 -15.466  1.00  0.00     0.103 C 
BRANCH  11  12
HETATM   12  C8  UNL     1      13.043 -21.163 -14.530  1.00  0.00     0.009 C 
BRANCH  12  13
HETATM   13  C9  UNL     1      12.393 -20.114 -15.359  1.00  0.00     0.002 C 
BRANCH  13  14
HETATM   14  C10 UNL     1      11.352 -20.708 -16.243  1.00  0.00     0.020 C 
BRANCH  14  15
HETATM   15  C11 UNL     1      10.162 -19.810 -16.502  1.00  0.00     0.127 C 
BRANCH  15  16
HETATM   16  N2  UNL     1      10.280 -19.130 -17.769  1.00  0.00    -0.333 N 
HETATM   17  C12 UNL     1       9.547 -19.407 -18.978  1.00  0.00     0.147 C 
HETATM   18  C13 UNL     1      10.427 -18.876 -20.093  1.00  0.00     0.144 C 
HETATM   19  N3  UNL     1      11.463 -18.074 -19.455  1.00  0.00    -0.341 N 
HETATM   20  C14 UNL     1      11.147 -18.052 -18.064  1.00  0.00     0.318 C 
ATOM     21  H3  UNL     1      12.254 -17.620 -19.911  1.00  0.00     0.164 HD
HETATM   22  O3  UNL     1      11.584 -17.202 -17.262  1.00  0.00    -0.247 OA
ENDBRANCH  15  16
ENDBRANCH  14  15
ENDBRANCH  13  14
ENDBRANCH  12  13
ENDBRANCH  11  12
ENDBRANCH   8  11
ENDBRANCH   1   7
BRANCH   1  23
HETATM   23  C15 UNL     1      18.331 -23.634 -15.720  1.00  0.00     0.240 C 
HETATM   24  O4  UNL     1      19.394 -23.057 -16.051  1.00  0.00    -0.271 OA
HETATM   25  N4  UNL     1      17.916 -24.806 -16.376  1.00  0.00    -0.352 N 
ATOM     26  H4  UNL     1      17.044 -25.283 -16.147  1.00  0.00     0.162 HD
BRANCH  25  27
HETATM   27  C16 UNL     1      18.834 -25.294 -17.420  1.00  0.00     0.211 C 
BRANCH  27  28
HETATM   28  C17 UNL     1      18.018 -26.092 -18.391  1.00  0.00     0.234 C 
HETATM   29  O5  UNL     1      17.878 -27.297 -18.123  1.00  0.00    -0.285 OA
BRANCH  28  30
HETATM   30  C18 UNL     1      17.467 -25.412 -19.542  1.00  0.00     0.291 C 
HETATM   31  O6  UNL     1      18.291 -25.028 -20.459  1.00  0.00    -0.264 OA
HETATM   32  N5  UNL     1      16.079 -25.136 -19.733  1.00  0.00    -0.345 N 
HETATM   33  C19 UNL     1      15.164 -25.425 -18.674  1.00  0.00     0.127 C 
HETATM   34  C27 UNL     1      15.638 -24.597 -21.014  1.00  0.00     0.127 C 
HETATM   35  C20 UNL     1      13.895 -24.646 -18.807  1.00  0.00     0.029 C 
HETATM   36  C21 UNL     1      14.102 -23.349 -19.503  1.00  0.00    -0.037 C 
HETATM   37  C22 UNL     1      12.824 -22.530 -19.446  1.00  0.00     0.010 C 
HETATM   38  C25 UNL     1      15.133 -22.500 -18.780  1.00  0.00     0.010 C 
HETATM   39  C26 UNL     1      14.608 -23.533 -20.923  1.00  0.00     0.029 C 
HETATM   40  C23 UNL     1      13.185 -21.159 -18.961  1.00  0.00     0.001 C 
HETATM   41  C24 UNL     1      14.669 -21.074 -19.107  1.00  0.00     0.001 C 
ENDBRANCH  28  30
ENDBRANCH  27  28
ENDBRANCH  25  27
ENDBRANCH   1  23
TORSDOF 14
ENDMDL
MODEL 2
REMARK VINA RESULT: -8.828921841      1.622      1.985
REMARK  14 active torsions:
REMARK  status: ('A' for Active; 'I' for Inactive)
REMARK    1  A    between atoms: C2_2  and  C3_4 
REMARK    2  A    between atoms: C3_4  and  C4_5 
REMARK    3  A    between atoms: C4_5  and  C5_6 
REMARK    4  A    between atoms: C5_6  and  N1_7 
REMARK    5  A    between atoms: C5_6  and  C15_23 
REMARK       I    between atoms: N1_7  and  C6_9 
REMARK    6  A    between atoms: C6_9  and  C7_11 
REMARK    7  A    between atoms: C7_11  and  C8_12 
REMARK    8  A    between atoms: C8_12  and  C9_13 
REMARK    9  A    between atoms: C9_13  and  C10_14 
REMARK   10  A    between atoms: C10_14  and  C11_15 
REMARK   11  A    between atoms: C11_15  and  N2_16 
REMARK       I    between atoms: C15_23  and  N4_25 
REMARK   12  A    between atoms: N4_25  and  C16_27 
REMARK   13  A    between atoms: C16_27  and  C17_28 
REMARK   14  A    between atoms: C17_28  and  C18_30 
REMARK       I    between atoms: C18_30  and  N5_32 
ROOT
HETATM    1  C5  UNL     1      17.574 -23.076 -14.426  1.00  0.00     0.177 C 
ENDROOT
BRANCH   1   2
HETATM    2  C4  UNL     1      17.940 -23.692 -13.143  1.00  0.00     0.042 C 
BRANCH   2   3
HETATM    3  C3  UNL     1      16.957 -24.690 -12.602  1.00  0.00     0.080 C 
BRANCH   3   4
HETATM    4  C2  UNL     1      17.509 -26.069 -12.708  1.00  0.00     0.123 C 
HETATM    5  C1  UNL     1      17.639 -26.879 -11.475  1.00  0.00     0.091 C 
HETATM    6  O1  UNL     1      17.836 -26.488 -13.793  1.00  0.00    -0.298 OA
ENDBRANCH   3   4
ENDBRANCH   2   3
ENDBRANCH   1   2
BRANCH   1   7
HETATM    7  N1  UNL     1      16.169 -23.115 -14.771  1.00  0.00    -0.348 N 
HETATM    8  C6  UNL     1      15.333 -22.001 -14.935  1.00  0.00     0.218 C 
HETATM    9  O2  UNL     1      15.812 -20.851 -14.790  1.00  0.00    -0.274 OA
ATOM     10  H1  UNL     1      15.750 -24.035 -14.906  1.00  0.00     0.163 HD
BRANCH   8  11
HETATM   11  C7  UNL     1      13.916 -22.163 -15.276  1.00  0.00     0.103 C 
BRANCH  11  12
HETATM   12  C8  UNL     1      13.237 -20.797 -15.081  1.00  0.00     0.009 C 
BRANCH  12  13
HETATM   13  C9  UNL     1      11.843 -20.911 -15.584  1.00  0.00     0.002 C 
BRANCH  13  14
HETATM   14  C10 UNL     1      11.229 -19.563 -15.751  1.00  0.00     0.020 C 
BRANCH  14  15
HETATM   15  C11 UNL     1       9.756 -19.585 -16.096  1.00  0.00     0.127 C 
BRANCH  15  16
HETATM   16  N2  UNL     1       9.105 -18.358 -15.704  1.00  0.00    -0.333 N 
HETATM   17  C12 UNL     1       9.221 -17.069 -16.337  1.00  0.00     0.147 C 
HETATM   18  C13 UNL     1       8.868 -16.072 -15.249  1.00  0.00     0.144 C 
HETATM   19  N3  UNL     1       8.294 -16.843 -14.153  1.00  0.00    -0.341 N 
HETATM   20  C14 UNL     1       8.220 -18.192 -14.613  1.00  0.00     0.318 C 
ATOM     21  H3  UNL     1       8.004 -16.490 -13.241  1.00  0.00     0.164 HD
HETATM   22  O3  UNL     1       7.480 -19.061 -14.109  1.00  0.00    -0.247 OA
ENDBRANCH  15  16
ENDBRANCH  14  15
ENDBRANCH  13  14
ENDBRANCH  12  13
ENDBRANCH  11  12
ENDBRANCH   8  11
ENDBRANCH   1   7
BRANCH   1  23
HETATM   23  C15 UNL     1      18.329 -23.587 -15.595  1.00  0.00     0.240 C 
HETATM   24  O4  UNL     1      19.407 -23.022 -15.895  1.00  0.00    -0.271 OA
HETATM   25  N4  UNL     1      17.856 -24.676 -16.348  1.00  0.00    -0.352 N 
ATOM     26  H4  UNL     1      16.970 -25.139 -16.144  1.00  0.00     0.162 HD
BRANCH  25  27
HETATM   27  C16 UNL     1      18.733 -25.099 -17.453  1.00  0.00     0.211 C 
BRANCH  27  28
HETATM   28  C17 UNL     1      17.895 -25.889 -18.409  1.00  0.00     0.234 C 
HETATM   29  O5  UNL     1      17.764 -27.097 -18.149  1.00  0.00    -0.285 OA
BRANCH  28  30
HETATM   30  C18 UNL     1      17.313 -25.200 -19.539  1.00  0.00     0.291 C 
HETATM   31  O6  UNL     1      18.110 -24.821 -20.482  1.00  0.00    -0.264 OA
HETATM   32  N5  UNL     1      15.922 -24.909 -19.684  1.00  0.00    -0.345 N 
HETATM   33  C19 UNL     1      15.039 -25.193 -18.596  1.00  0.00     0.127 C 
HETATM   34  C27 UNL     1      15.445 -24.362 -20.948  1.00  0.00     0.127 C 
HETATM   35  C20 UNL     1      13.775 -24.401 -18.684  1.00  0.00     0.029 C 
HETATM   36  C21 UNL     1      13.972 -23.103 -19.383  1.00  0.00    -0.037 C 
HETATM   37  C22 UNL     1      12.704 -22.272 -19.281  1.00  0.00     0.010 C 
HETATM   38  C25 UNL     1      15.034 -22.268 -18.692  1.00  0.00     0.010 C 
HETATM   39  C26 UNL     1      14.429 -23.288 -20.820  1.00  0.00     0.029 C 
HETATM   40  C23 UNL     1      13.095 -20.907 -18.804  1.00  0.00     0.001 C 
HETATM   41  C24 UNL     1      14.574 -20.836 -18.999  1.00  0.00     0.001 C 
ENDBRANCH  28  30
ENDBRANCH  27  28
ENDBRANCH  25  27
ENDBRANCH   1  23
TORSDOF 14
ENDMDL
MODEL 3
REMARK VINA RESULT: -8.769454139      3.932     11.271
REMARK  14 active torsions:
REMARK  status: ('A' for Active; 'I' for Inactive)
REMARK    1  A    between atoms: C2_2  and  C3_4 
REMARK    2  A    between atoms: C3_4  and  C4_5 
REMARK    3  A    between atoms: C4_5  and  C5_6 
REMARK    4  A    between atoms: C5_6  and  N1_7 
REMARK    5  A    between atoms: C5_6  and  C15_23 
REMARK       I    between atoms: N1_7  and  C6_9 
REMARK    6  A    between atoms: C6_9  and  C7_11 
REMARK    7  A    between atoms: C7_11  and  C8_12 
REMARK    8  A    between atoms: C8_12  and  C9_13 
REMARK    9  A    between atoms: C9_13  and  C10_14 
REMARK   10  A    between atoms: C10_14  and  C11_15 
REMARK   11  A    between atoms: C11_15  and  N2_16 
REMARK       I    between atoms: C15_23  and  N4_25 
REMARK   12  A    between atoms: N4_25  and  C16_27 
REMARK   13  A    between atoms: C16_27  and  C17_28 
REMARK   14  A    between atoms: C17_28  and  C18_30 
REMARK       I    between atoms: C18_30  and  N5_32 
ROOT
HETATM    1  C5  UNL     1       6.964 -18.180 -19.339  1.00  0.00     0.177 C 
ENDROOT
BRANCH   1   2
HETATM    2  C4  UNL     1       5.677 -18.604 -19.907  1.00  0.00     0.042 C 
BRANCH   2   3
HETATM    3  C3  UNL     1       4.999 -17.597 -20.790  1.00  0.00     0.080 C 
BRANCH   3   4
HETATM    4  C2  UNL     1       5.569 -17.647 -22.164  1.00  0.00     0.123 C 
HETATM    5  C1  UNL     1       4.779 -18.291 -23.239  1.00  0.00     0.091 C 
HETATM    6  O1  UNL     1       6.659 -17.164 -22.366  1.00  0.00    -0.298 OA
ENDBRANCH   3   4
ENDBRANCH   2   3
ENDBRANCH   1   2
BRANCH   1   7
HETATM    7  N1  UNL     1       7.577 -19.095 -18.399  1.00  0.00    -0.348 N 
HETATM    8  C6  UNL     1       8.514 -20.090 -18.714  1.00  0.00     0.218 C 
HETATM    9  O2  UNL     1       8.889 -20.220 -19.904  1.00  0.00    -0.274 OA
ATOM     10  H1  UNL     1       7.301 -19.009 -17.421  1.00  0.00     0.163 HD
BRANCH   8  11
HETATM   11  C7  UNL     1       9.061 -20.970 -17.677  1.00  0.00     0.103 C 
BRANCH  11  12
HETATM   12  C8  UNL     1      10.248 -21.728 -18.295  1.00  0.00     0.009 C 
BRANCH  12  13
HETATM   13  C9  UNL     1      10.934 -22.459 -17.198  1.00  0.00     0.002 C 
BRANCH  13  14
HETATM   14  C10 UNL     1      12.177 -23.114 -17.697  1.00  0.00     0.020 C 
BRANCH  14  15
HETATM   15  C11 UNL     1      12.741 -22.505 -18.962  1.00  0.00     0.127 C 
BRANCH  15  16
HETATM   16  N2  UNL     1      14.182 -22.577 -18.984  1.00  0.00    -0.333 N 
HETATM   17  C12 UNL     1      14.997 -23.533 -19.690  1.00  0.00     0.147 C 
HETATM   18  C13 UNL     1      16.311 -23.554 -18.933  1.00  0.00     0.144 C 
HETATM   19  N3  UNL     1      16.283 -22.413 -18.026  1.00  0.00    -0.341 N 
HETATM   20  C14 UNL     1      15.074 -21.710 -18.310  1.00  0.00     0.318 C 
ATOM     21  H3  UNL     1      16.986 -22.167 -17.329  1.00  0.00     0.164 HD
HETATM   22  O3  UNL     1      14.869 -20.519 -17.998  1.00  0.00    -0.247 OA
ENDBRANCH  15  16
ENDBRANCH  14  15
ENDBRANCH  13  14
ENDBRANCH  12  13
ENDBRANCH  11  12
ENDBRANCH   8  11
ENDBRANCH   1   7
BRANCH   1  23
HETATM   23  C15 UNL     1       6.948 -16.841 -18.702  1.00  0.00     0.240 C 
HETATM   24  O4  UNL     1       7.747 -15.974 -19.130  1.00  0.00    -0.271 OA
HETATM   25  N4  UNL     1       6.063 -16.545 -17.651  1.00  0.00    -0.352 N 
ATOM     26  H4  UNL     1       5.421 -17.237 -17.265  1.00  0.00     0.162 HD
BRANCH  25  27
HETATM   27  C16 UNL     1       6.132 -15.162 -17.149  1.00  0.00     0.211 C 
BRANCH  27  28
HETATM   28  C17 UNL     1       6.258 -15.236 -15.658  1.00  0.00     0.234 C 
HETATM   29  O5  UNL     1       5.196 -15.382 -15.029  1.00  0.00    -0.285 OA
BRANCH  28  30
HETATM   30  C18 UNL     1       7.579 -15.134 -15.078  1.00  0.00     0.291 C 
HETATM   31  O6  UNL     1       8.091 -13.954 -14.965  1.00  0.00    -0.264 OA
HETATM   32  N5  UNL     1       8.353 -16.245 -14.623  1.00  0.00    -0.345 N 
HETATM   33  C19 UNL     1       7.869 -17.569 -14.862  1.00  0.00     0.127 C 
HETATM   34  C27 UNL     1       9.594 -15.990 -13.903  1.00  0.00     0.127 C 
HETATM   35  C20 UNL     1       8.968 -18.581 -14.801  1.00  0.00     0.029 C 
HETATM   36  C21 UNL     1      10.283 -18.008 -15.190  1.00  0.00    -0.037 C 
HETATM   37  C22 UNL     1      11.315 -19.118 -15.284  1.00  0.00     0.010 C 
HETATM   38  C25 UNL     1      10.228 -17.417 -16.588  1.00  0.00     0.010 C 
HETATM   39  C26 UNL     1      10.720 -16.888 -14.261  1.00  0.00     0.029 C 
HETATM   40  C23 UNL     1      12.015 -18.976 -16.601  1.00  0.00     0.001 C 
HETATM   41  C24 UNL     1      11.671 -17.602 -17.078  1.00  0.00     0.001 C 
ENDBRANCH  28  30
ENDBRANCH  27  28
ENDBRANCH  25  27
ENDBRANCH   1  23
TORSDOF 14
ENDMDL
MODEL 4
REMARK VINA RESULT: -8.684687544      2.637      8.235
REMARK  14 active torsions:
REMARK  status: ('A' for Active; 'I' for Inactive)
REMARK    1  A    between atoms: C2_2  and  C3_4 
REMARK    2  A    between atoms: C3_4  and  C4_5 
REMARK    3  A    between atoms: C4_5  and  C5_6 
REMARK    4  A    between atoms: C5_6  and  N1_7 
REMARK    5  A    between atoms: C5_6  and  C15_23 
REMARK       I    between atoms: N1_7  and  C6_9 
REMARK    6  A    between atoms: C6_9  and  C7_11 
REMARK    7  A    between atoms: C7_11  and  C8_12 
REMARK    8  A    between atoms: C8_12  and  C9_13 
REMARK    9  A    between atoms: C9_13  and  C10_14 
REMARK   10  A    between atoms: C10_14  and  C11_15 
REMARK   11  A    between atoms: C11_15  and  N2_16 
REMARK       I    between atoms: C15_23  and  N4_25 
REMARK   12  A    between atoms: N4_25  and  C16_27 
REMARK   13  A    between atoms: C16_27  and  C17_28 
REMARK   14  A    between atoms: C17_28  and  C18_30 
REMARK       I    between atoms: C18_30  and  N5_32 
ROOT
HETATM    1  C5  UNL     1      15.629 -22.057 -15.906  1.00  0.00     0.177 C 
ENDROOT
BRANCH   1   2
HETATM    2  C4  UNL     1      16.907 -21.800 -15.228  1.00  0.00     0.042 C 
BRANCH   2   3
HETATM    3  C3  UNL     1      17.299 -22.809 -14.187  1.00  0.00     0.080 C 
BRANCH   3   4
HETATM    4  C2  UNL     1      18.780 -22.957 -14.142  1.00  0.00     0.123 C 
HETATM    5  C1  UNL     1      19.605 -21.763 -13.845  1.00  0.00     0.091 C 
HETATM    6  O1  UNL     1      19.267 -24.044 -14.348  1.00  0.00    -0.298 OA
ENDBRANCH   3   4
ENDBRANCH   2   3
ENDBRANCH   1   2
BRANCH   1   7
HETATM    7  N1  UNL     1      15.689 -22.183 -17.347  1.00  0.00    -0.348 N 
HETATM    8  C6  UNL     1      14.730 -22.810 -18.156  1.00  0.00     0.218 C 
HETATM    9  O2  UNL     1      13.710 -23.307 -17.621  1.00  0.00    -0.274 OA
ATOM     10  H1  UNL     1      16.500 -21.780 -17.815  1.00  0.00     0.163 HD
BRANCH   8  11
HETATM   11  C7  UNL     1      14.901 -22.887 -19.610  1.00  0.00     0.103 C 
BRANCH  11  12
HETATM   12  C8  UNL     1      14.923 -24.376 -19.993  1.00  0.00     0.009 C 
BRANCH  12  13
HETATM   13  C9  UNL     1      16.013 -24.570 -20.984  1.00  0.00     0.002 C 
BRANCH  13  14
HETATM   14  C10 UNL     1      16.754 -25.835 -20.714  1.00  0.00     0.020 C 
BRANCH  14  15
HETATM   15  C11 UNL     1      18.218 -25.644 -20.379  1.00  0.00     0.127 C 
BRANCH  15  16
HETATM   16  N2  UNL     1      18.447 -25.718 -18.957  1.00  0.00    -0.333 N 
HETATM   17  C12 UNL     1      18.963 -26.840 -18.214  1.00  0.00     0.147 C 
HETATM   18  C13 UNL     1      18.453 -26.634 -16.801  1.00  0.00     0.144 C 
HETATM   19  N3  UNL     1      17.928 -25.275 -16.746  1.00  0.00    -0.341 N 
HETATM   20  C14 UNL     1      18.209 -24.689 -18.016  1.00  0.00     0.318 C 
ATOM     21  H3  UNL     1      17.455 -24.833 -15.957  1.00  0.00     0.164 HD
HETATM   22  O3  UNL     1      18.231 -23.460 -18.228  1.00  0.00    -0.247 OA
ENDBRANCH  15  16
ENDBRANCH  14  15
ENDBRANCH  13  14
ENDBRANCH  12  13
ENDBRANCH  11  12
ENDBRANCH   8  11
ENDBRANCH   1   7
BRANCH   1  23
HETATM   23  C15 UNL     1      14.556 -21.083 -15.593  1.00  0.00     0.240 C 
HETATM   24  O4  UNL     1      14.805 -19.862 -15.737  1.00  0.00    -0.271 OA
HETATM   25  N4  UNL     1      13.292 -21.510 -15.151  1.00  0.00    -0.352 N 
ATOM     26  H4  UNL     1      13.068 -22.494 -15.000  1.00  0.00     0.162 HD
BRANCH  25  27
HETATM   27  C16 UNL     1      12.315 -20.432 -14.921  1.00  0.00     0.211 C 
BRANCH  27  28
HETATM   28  C17 UNL     1      11.394 -20.408 -16.102  1.00  0.00     0.234 C 
HETATM   29  O5  UNL     1      11.023 -21.515 -16.527  1.00  0.00    -0.285 OA
BRANCH  28  30
HETATM   30  C18 UNL     1      11.014 -19.122 -16.647  1.00  0.00     0.291 C 
HETATM   31  O6  UNL     1      11.881 -18.504 -17.377  1.00  0.00    -0.264 OA
HETATM   32  N5  UNL     1       9.751 -18.491 -16.432  1.00  0.00    -0.345 N 
HETATM   33  C19 UNL     1       8.827 -19.087 -15.517  1.00  0.00     0.127 C 
HETATM   34  C27 UNL     1       9.434 -17.279 -17.176  1.00  0.00     0.127 C 
HETATM   35  C20 UNL     1       7.820 -18.099 -15.023  1.00  0.00     0.029 C 
HETATM   36  C21 UNL     1       8.354 -16.712 -15.004  1.00  0.00    -0.037 C 
HETATM   37  C22 UNL     1       7.355 -15.790 -14.327  1.00  0.00     0.010 C 
HETATM   38  C25 UNL     1       9.603 -16.620 -14.145  1.00  0.00     0.010 C 
HETATM   39  C26 UNL     1       8.742 -16.227 -16.391  1.00  0.00     0.029 C 
HETATM   40  C23 UNL     1       8.097 -14.997 -13.295  1.00  0.00     0.001 C 
HETATM   41  C24 UNL     1       9.541 -15.174 -13.633  1.00  0.00     0.001 C 
ENDBRANCH  28  30
ENDBRANCH  27  28
ENDBRANCH  25  27
ENDBRANCH   1  23
TORSDOF 14
ENDMDL
MODEL 5
REMARK VINA RESULT: -8.610333171      2.556      8.961
REMARK  14 active torsions:
REMARK  status: ('A' for Active; 'I' for Inactive)
REMARK    1  A    between atoms: C2_2  and  C3_4 
REMARK    2  A    between atoms: C3_4  and  C4_5 
REMARK    3  A    between atoms: C4_5  and  C5_6 
REMARK    4  A    between atoms: C5_6  and  N1_7 
REMARK    5  A    between atoms: C5_6  and  C15_23 
REMARK       I    between atoms: N1_7  and  C6_9 
REMARK    6  A    between atoms: C6_9  and  C7_11 
REMARK    7  A    between atoms: C7_11  and  C8_12 
REMARK    8  A    between atoms: C8_12  and  C9_13 
REMARK    9  A    between atoms: C9_13  and  C10_14 
REMARK   10  A    between atoms: C10_14  and  C11_15 
REMARK   11  A    between atoms: C11_15  and  N2_16 
REMARK       I    between atoms: C15_23  and  N4_25 
REMARK   12  A    between atoms: N4_25  and  C16_27 
REMARK   13  A    between atoms: C16_27  and  C17_28 
REMARK   14  A    between atoms: C17_28  and  C18_30 
REMARK       I    between atoms: C18_30  and  N5_32 
ROOT
HETATM    1  C5  UNL     1      12.616 -20.007 -17.453  1.00  0.00     0.177 C 
ENDROOT
BRANCH   1   2
HETATM    2  C4  UNL     1      12.890 -19.473 -16.112  1.00  0.00     0.042 C 
BRANCH   2   3
HETATM    3  C3  UNL     1      12.267 -20.233 -14.976  1.00  0.00     0.080 C 
BRANCH   3   4
HETATM    4  C2  UNL     1      13.136 -21.374 -14.579  1.00  0.00     0.123 C 
HETATM    5  C1  UNL     1      13.753 -21.364 -13.232  1.00  0.00     0.091 C 
HETATM    6  O1  UNL     1      13.315 -22.276 -15.363  1.00  0.00    -0.298 OA
ENDBRANCH   3   4
ENDBRANCH   2   3
ENDBRANCH   1   2
BRANCH   1   7
HETATM    7  N1  UNL     1      13.730 -20.641 -18.125  1.00  0.00    -0.348 N 
HETATM    8  C6  UNL     1      13.677 -21.843 -18.847  1.00  0.00     0.218 C 
HETATM    9  O2  UNL     1      12.582 -22.445 -18.951  1.00  0.00    -0.274 OA
ATOM     10  H1  UNL     1      14.634 -20.172 -18.068  1.00  0.00     0.163 HD
BRANCH   8  11
HETATM   11  C7  UNL     1      14.878 -22.399 -19.479  1.00  0.00     0.103 C 
BRANCH  11  12
HETATM   12  C8  UNL     1      14.578 -23.867 -19.825  1.00  0.00     0.009 C 
BRANCH  12  13
HETATM   13  C9  UNL     1      15.423 -24.235 -20.991  1.00  0.00     0.002 C 
BRANCH  13  14
HETATM   14  C10 UNL     1      16.153 -25.508 -20.733  1.00  0.00     0.020 C 
BRANCH  14  15
HETATM   15  C11 UNL     1      17.654 -25.356 -20.616  1.00  0.00     0.127 C 
BRANCH  15  16
HETATM   16  N2  UNL     1      18.104 -25.588 -19.264  1.00  0.00    -0.333 N 
HETATM   17  C12 UNL     1      18.711 -26.785 -18.741  1.00  0.00     0.147 C 
HETATM   18  C13 UNL     1      18.433 -26.737 -17.250  1.00  0.00     0.144 C 
HETATM   19  N3  UNL     1      17.948 -25.393 -16.964  1.00  0.00    -0.341 N 
HETATM   20  C14 UNL     1      18.035 -24.670 -18.190  1.00  0.00     0.318 C 
ATOM     21  H3  UNL     1      17.613 -25.041 -16.067  1.00  0.00     0.164 HD
HETATM   22  O3  UNL     1      18.045 -23.424 -18.267  1.00  0.00    -0.247 OA
ENDBRANCH  15  16
ENDBRANCH  14  15
ENDBRANCH  13  14
ENDBRANCH  12  13
ENDBRANCH  11  12
ENDBRANCH   8  11
ENDBRANCH   1   7
BRANCH   1  23
HETATM   23  C15 UNL     1      12.030 -19.028 -18.401  1.00  0.00     0.240 C 
HETATM   24  O4  UNL     1      12.254 -17.810 -18.206  1.00  0.00    -0.271 OA
HETATM   25  N4  UNL     1      11.247 -19.449 -19.490  1.00  0.00    -0.352 N 
ATOM     26  H4  UNL     1      11.026 -20.430 -19.660  1.00  0.00     0.162 HD
BRANCH  25  27
HETATM   27  C16 UNL     1      10.770 -18.367 -20.369  1.00  0.00     0.211 C 
BRANCH  27  28
HETATM   28  C17 UNL     1       9.286 -18.526 -20.503  1.00  0.00     0.234 C 
HETATM   29  O5  UNL     1       8.900 -19.312 -21.385  1.00  0.00    -0.285 OA
BRANCH  28  30
HETATM   30  C18 UNL     1       8.435 -17.767 -19.614  1.00  0.00     0.291 C 
HETATM   31  O6  UNL     1       8.005 -16.623 -20.031  1.00  0.00    -0.264 OA
HETATM   32  N5  UNL     1       8.038 -18.194 -18.310  1.00  0.00    -0.345 N 
HETATM   33  C19 UNL     1       8.609 -19.389 -17.770  1.00  0.00     0.127 C 
HETATM   34  C27 UNL     1       7.041 -17.414 -17.587  1.00  0.00     0.127 C 
HETATM   35  C20 UNL     1       8.505 -19.429 -16.279  1.00  0.00     0.029 C 
HETATM   36  C21 UNL     1       8.501 -18.069 -15.678  1.00  0.00    -0.037 C 
HETATM   37  C22 UNL     1       8.577 -18.180 -14.166  1.00  0.00     0.010 C 
HETATM   38  C25 UNL     1       9.748 -17.297 -16.070  1.00  0.00     0.010 C 
HETATM   39  C26 UNL     1       7.313 -17.242 -16.139  1.00  0.00     0.029 C 
HETATM   40  C23 UNL     1       9.671 -17.269 -13.699  1.00  0.00     0.001 C 
HETATM   41  C24 UNL     1       9.951 -16.372 -14.861  1.00  0.00     0.001 C 
ENDBRANCH  28  30
ENDBRANCH  27  28
ENDBRANCH  25  27
ENDBRANCH   1  23
TORSDOF 14
ENDMDL
