MODEL 1
REMARK VINA RESULT: -9.333238010      0.000      0.000
REMARK  14 active torsions:
REMARK  status: ('A' for Active; 'I' for Inactive)
REMARK    1  A    between atoms: C2_2  and  N1_3 
REMARK    2  A    between atoms: N2_6  and  C5_7 
REMARK    3  A    between atoms: C5_7  and  C6_8 
REMARK    4  A    between atoms: C6_8  and  C7_9 
REMARK    5  A    between atoms: C7_9  and  N3_10 
REMARK       I    between atoms: N3_10  and  C8_12 
REMARK    6  A    between atoms: C8_12  and  C9_14 
REMARK    7  A    between atoms: C9_14  and  C10_15 
REMARK    8  A    between atoms: C10_15  and  N4_16 
REMARK    9  A    between atoms: C10_15  and  C25_35 
REMARK       I    between atoms: N4_16  and  C11_18 
REMARK   10  A    between atoms: C11_18  and  C12_20 
REMARK       I    between atoms: N5_24  and  C16_25 
REMARK   11  A    between atoms: C16_25  and  C17_27 
REMARK   12  A    between atoms: C17_27  and  C18_28 
REMARK   13  A    between atoms: C18_28  and  C19_29 
REMARK       I    between atoms: C25_35  and  N6_37 
REMARK   14  A    between atoms: N6_37  and  C26_39 
ROOT
HETATM    1  C10 UNL     1     -11.044  19.443 -15.241  1.00  0.00     0.185 C 
ENDROOT
BRANCH   1   2
HETATM    2  C9  UNL     1      -9.860  20.259 -15.571  1.00  0.00     0.137 C 
BRANCH   2   3
HETATM    3  C8  UNL     1     -10.046  21.304 -16.599  1.00  0.00     0.220 C 
HETATM    4  N3  UNL     1      -9.964  20.995 -17.988  1.00  0.00    -0.361 N 
ATOM      5  H3  UNL     1      -9.766  20.028 -18.244  1.00  0.00     0.162 HD
HETATM    6  O1  UNL     1     -10.276  22.482 -16.230  1.00  0.00    -0.274 OA
BRANCH   4   7
HETATM    7  C7  UNL     1     -10.136  21.928 -19.045  1.00  0.00     0.124 C 
BRANCH   7   8
HETATM    8  C6  UNL     1      -9.941  21.340 -20.445  1.00  0.00     0.050 C 
BRANCH   8   9
HETATM    9  C5  UNL     1      -8.748  20.415 -20.453  1.00  0.00     0.274 C 
BRANCH   9  10
HETATM   10  N2  UNL     1      -9.123  19.179 -21.120  1.00  0.00     0.094 N 
HETATM   11  C4  UNL     1      -7.937  18.460 -21.567  1.00  0.00     0.293 C 
HETATM   12  C3  UNL     1      -7.745  17.158 -20.856  1.00  0.00     0.157 C 
HETATM   13  N1  UNL     1      -7.851  17.265 -19.423  1.00  0.00    -0.371 N 
HETATM   14  C33 UNL     1      -9.070  17.852 -19.064  1.00  0.00     0.093 C 
HETATM   15  C32 UNL     1      -9.908  18.330 -20.234  1.00  0.00     0.317 C 
BRANCH  13  16
HETATM   16  C2  UNL     1      -6.648  17.618 -18.809  1.00  0.00     0.059 C 
HETATM   17  C1  UNL     1      -5.476  16.736 -18.954  1.00  0.00     0.055 C 
ENDBRANCH  13  16
ENDBRANCH   9  10
ENDBRANCH   8   9
ENDBRANCH   7   8
ENDBRANCH   4   7
ENDBRANCH   2   3
ENDBRANCH   1   2
BRANCH   1  18
HETATM   18  N4  UNL     1     -12.232  19.653 -16.029  1.00  0.00    -0.346 N 
HETATM   19  C11 UNL     1     -13.365  20.331 -15.526  1.00  0.00     0.241 C 
HETATM   20  O2  UNL     1     -13.345  20.800 -14.318  1.00  0.00    -0.271 OA
ATOM     21  H4  UNL     1     -12.256  19.300 -16.985  1.00  0.00     0.163 HD
BRANCH  19  22
HETATM   22  C12 UNL     1     -14.588  20.555 -16.262  1.00  0.00     0.179 C 
HETATM   23  C13 UNL     1     -14.360  20.535 -17.776  1.00  0.00     0.037 C 
HETATM   24  C14 UNL     1     -13.834  21.961 -17.998  1.00  0.00     0.022 C 
HETATM   25  C15 UNL     1     -14.418  22.767 -16.850  1.00  0.00     0.127 C 
HETATM   26  N5  UNL     1     -15.233  21.824 -16.114  1.00  0.00    -0.339 N 
HETATM   27  C16 UNL     1     -16.424  22.111 -15.438  1.00  0.00     0.220 C 
HETATM   28  O3  UNL     1     -17.050  21.177 -14.870  1.00  0.00    -0.273 OA
BRANCH  27  29
HETATM   29  C17 UNL     1     -17.016  23.467 -15.334  1.00  0.00     0.103 C 
BRANCH  29  30
HETATM   30  C18 UNL     1     -18.106  23.670 -16.388  1.00  0.00     0.014 C 
BRANCH  30  31
HETATM   31  C19 UNL     1     -17.579  24.501 -17.541  1.00  0.00    -0.014 C 
HETATM   32  C20 UNL     1     -17.187  23.659 -18.713  1.00  0.00     0.004 C 
HETATM   33  C21 UNL     1     -16.782  24.396 -19.933  1.00  0.00     0.000 C 
HETATM   34  C22 UNL     1     -16.903  25.888 -19.663  1.00  0.00     0.000 C 
HETATM   35  C23 UNL     1     -18.359  26.120 -19.289  1.00  0.00     0.000 C 
HETATM   36  C24 UNL     1     -18.539  25.605 -17.883  1.00  0.00     0.004 C 
ENDBRANCH  30  31
ENDBRANCH  29  30
ENDBRANCH  27  29
ENDBRANCH  19  22
ENDBRANCH   1  18
BRANCH   1  37
HETATM   37  C25 UNL     1     -10.677  17.975 -15.332  1.00  0.00     0.241 C 
HETATM   38  O4  UNL     1     -11.408  17.203 -15.973  1.00  0.00    -0.271 OA
HETATM   39  N6  UNL     1      -9.496  17.537 -14.670  1.00  0.00    -0.355 N 
ATOM     40  H6  UNL     1      -8.923  18.205 -14.154  1.00  0.00     0.162 HD
BRANCH  39  41
HETATM   41  C26 UNL     1      -9.106  16.142 -14.730  1.00  0.00     0.084 C 
HETATM   42  C27 UNL     1      -8.211  15.820 -15.902  1.00  0.00     0.025 C 
HETATM   43  C28 UNL     1      -6.759  15.878 -15.437  1.00  0.00     0.002 C 
HETATM   44  C29 UNL     1      -6.466  14.692 -14.517  1.00  0.00     0.000 C 
HETATM   45  C30 UNL     1      -7.757  14.340 -13.782  1.00  0.00     0.002 C 
HETATM   46  C31 UNL     1      -8.465  15.654 -13.453  1.00  0.00     0.025 C 
ENDBRANCH  39  41
ENDBRANCH   1  37
TORSDOF 14
ENDMDL
MODEL 2
REMARK VINA RESULT: -9.243500241      2.056      5.089
REMARK  14 active torsions:
REMARK  status: ('A' for Active; 'I' for Inactive)
REMARK    1  A    between atoms: C2_2  and  N1_3 
REMARK    2  A    between atoms: N2_6  and  C5_7 
REMARK    3  A    between atoms: C5_7  and  C6_8 
REMARK    4  A    between atoms: C6_8  and  C7_9 
REMARK    5  A    between atoms: C7_9  and  N3_10 
REMARK       I    between atoms: N3_10  and  C8_12 
REMARK    6  A    between atoms: C8_12  and  C9_14 
REMARK    7  A    between atoms: C9_14  and  C10_15 
REMARK    8  A    between atoms: C10_15  and  N4_16 
REMARK    9  A    between atoms: C10_15  and  C25_35 
REMARK       I    between atoms: N4_16  and  C11_18 
REMARK   10  A    between atoms: C11_18  and  C12_20 
REMARK       I    between atoms: N5_24  and  C16_25 
REMARK   11  A    between atoms: C16_25  and  C17_27 
REMARK   12  A    between atoms: C17_27  and  C18_28 
REMARK   13  A    between atoms: C18_28  and  C19_29 
REMARK       I    between atoms: C25_35  and  N6_37 
REMARK   14  A    between atoms: N6_37  and  C26_39 
ROOT
HETATM    1  C10 UNL     1     -10.713  19.126 -15.827  1.00  0.00     0.185 C 
ENDROOT
BRANCH   1   2
HETATM    2  C9  UNL     1      -9.413  19.428 -15.197  1.00  0.00     0.137 C 
BRANCH   2   3
HETATM    3  C8  UNL     1      -8.779  18.330 -14.437  1.00  0.00     0.220 C 
HETATM    4  N3  UNL     1      -9.471  17.108 -14.191  1.00  0.00    -0.361 N 
ATOM      5  H3  UNL     1     -10.420  17.024 -14.554  1.00  0.00     0.162 HD
HETATM    6  O1  UNL     1      -7.612  18.490 -14.003  1.00  0.00    -0.274 OA
BRANCH   4   7
HETATM    7  C7  UNL     1      -8.942  15.998 -13.481  1.00  0.00     0.124 C 
BRANCH   7   8
HETATM    8  C6  UNL     1      -8.345  14.905 -14.370  1.00  0.00     0.050 C 
BRANCH   8   9
HETATM    9  C5  UNL     1      -6.846  15.067 -14.449  1.00  0.00     0.274 C 
BRANCH   9  10
HETATM   10  N2  UNL     1      -6.362  14.354 -15.620  1.00  0.00     0.094 N 
HETATM   11  C4  UNL     1      -6.242  15.260 -16.756  1.00  0.00     0.293 C 
HETATM   12  C3  UNL     1      -4.826  15.454 -17.196  1.00  0.00     0.157 C 
HETATM   13  N1  UNL     1      -3.924  15.759 -16.114  1.00  0.00    -0.371 N 
HETATM   14  C33 UNL     1      -4.005  14.779 -15.118  1.00  0.00     0.093 C 
HETATM   15  C32 UNL     1      -5.074  13.729 -15.351  1.00  0.00     0.317 C 
BRANCH  13  16
HETATM   16  C2  UNL     1      -3.870  17.121 -15.813  1.00  0.00     0.059 C 
HETATM   17  C1  UNL     1      -3.078  18.020 -16.671  1.00  0.00     0.055 C 
ENDBRANCH  13  16
ENDBRANCH   9  10
ENDBRANCH   8   9
ENDBRANCH   7   8
ENDBRANCH   4   7
ENDBRANCH   2   3
ENDBRANCH   1   2
BRANCH   1  18
HETATM   18  N4  UNL     1     -11.654  20.210 -15.953  1.00  0.00    -0.346 N 
HETATM   19  C11 UNL     1     -12.396  20.700 -14.857  1.00  0.00     0.241 C 
HETATM   20  O2  UNL     1     -12.225  20.177 -13.683  1.00  0.00    -0.271 OA
ATOM     21  H4  UNL     1     -11.790  20.638 -16.869  1.00  0.00     0.163 HD
BRANCH  19  22
HETATM   22  C12 UNL     1     -13.366  21.770 -14.926  1.00  0.00     0.179 C 
HETATM   23  C13 UNL     1     -14.244  21.831 -13.674  1.00  0.00     0.037 C 
HETATM   24  C14 UNL     1     -15.267  20.733 -13.995  1.00  0.00     0.022 C 
HETATM   25  C15 UNL     1     -15.289  20.661 -15.512  1.00  0.00     0.127 C 
HETATM   26  N5  UNL     1     -14.371  21.694 -15.943  1.00  0.00    -0.339 N 
HETATM   27  C16 UNL     1     -14.485  22.472 -17.100  1.00  0.00     0.220 C 
HETATM   28  O3  UNL     1     -13.626  23.366 -17.327  1.00  0.00    -0.273 OA
BRANCH  27  29
HETATM   29  C17 UNL     1     -15.566  22.318 -18.104  1.00  0.00     0.103 C 
BRANCH  29  30
HETATM   30  C18 UNL     1     -16.759  23.214 -17.766  1.00  0.00     0.014 C 
BRANCH  30  31
HETATM   31  C19 UNL     1     -17.084  24.124 -18.934  1.00  0.00    -0.014 C 
HETATM   32  C20 UNL     1     -17.594  25.457 -18.489  1.00  0.00     0.004 C 
HETATM   33  C21 UNL     1     -17.815  26.457 -19.560  1.00  0.00     0.000 C 
HETATM   34  C22 UNL     1     -17.421  25.837 -20.893  1.00  0.00     0.000 C 
HETATM   35  C23 UNL     1     -15.959  25.443 -20.745  1.00  0.00     0.000 C 
HETATM   36  C24 UNL     1     -15.923  24.206 -19.884  1.00  0.00     0.004 C 
ENDBRANCH  30  31
ENDBRANCH  29  30
ENDBRANCH  27  29
ENDBRANCH  19  22
ENDBRANCH   1  18
BRANCH   1  37
HETATM   37  C25 UNL     1     -10.473  18.552 -17.210  1.00  0.00     0.241 C 
HETATM   38  O4  UNL     1     -10.450  17.321 -17.363  1.00  0.00    -0.271 OA
HETATM   39  N6  UNL     1     -10.283  19.461 -18.289  1.00  0.00    -0.355 N 
ATOM     40  H6  UNL     1     -10.310  20.466 -18.120  1.00  0.00     0.162 HD
BRANCH  39  41
HETATM   41  C26 UNL     1     -10.050  18.956 -19.628  1.00  0.00     0.084 C 
HETATM   42  C27 UNL     1     -10.721  19.778 -20.701  1.00  0.00     0.025 C 
HETATM   43  C28 UNL     1      -9.713  20.786 -21.246  1.00  0.00     0.002 C 
HETATM   44  C29 UNL     1      -8.649  20.056 -22.067  1.00  0.00     0.000 C 
HETATM   45  C30 UNL     1      -8.474  18.661 -21.470  1.00  0.00     0.002 C 
HETATM   46  C31 UNL     1      -8.584  18.799 -19.952  1.00  0.00     0.025 C 
ENDBRANCH  39  41
ENDBRANCH   1  37
TORSDOF 14
ENDMDL
MODEL 3
REMARK VINA RESULT: -9.212408290      2.443      6.868
REMARK  14 active torsions:
REMARK  status: ('A' for Active; 'I' for Inactive)
REMARK    1  A    between atoms: C2_2  and  N1_3 
REMARK    2  A    between atoms: N2_6  and  C5_7 
REMARK    3  A    between atoms: C5_7  and  C6_8 
REMARK    4  A    between atoms: C6_8  and  C7_9 
REMARK    5  A    between atoms: C7_9  and  N3_10 
REMARK       I    between atoms: N3_10  and  C8_12 
REMARK    6  A    between atoms: C8_12  and  C9_14 
REMARK    7  A    between atoms: C9_14  and  C10_15 
REMARK    8  A    between atoms: C10_15  and  N4_16 
REMARK    9  A    between atoms: C10_15  and  C25_35 
REMARK       I    between atoms: N4_16  and  C11_18 
REMARK   10  A    between atoms: C11_18  and  C12_20 
REMARK       I    between atoms: N5_24  and  C16_25 
REMARK   11  A    between atoms: C16_25  and  C17_27 
REMARK   12  A    between atoms: C17_27  and  C18_28 
REMARK   13  A    between atoms: C18_28  and  C19_29 
REMARK       I    between atoms: C25_35  and  N6_37 
REMARK   14  A    between atoms: N6_37  and  C26_39 
ROOT
HETATM    1  C10 UNL     1     -13.102  22.164 -17.066  1.00  0.00     0.185 C 
ENDROOT
BRANCH   1   2
HETATM    2  C9  UNL     1     -11.838  22.893 -17.285  1.00  0.00     0.137 C 
BRANCH   2   3
HETATM    3  C8  UNL     1     -10.597  22.093 -17.215  1.00  0.00     0.220 C 
HETATM    4  N3  UNL     1     -10.277  21.138 -18.224  1.00  0.00    -0.361 N 
ATOM      5  H3  UNL     1     -10.941  21.024 -18.990  1.00  0.00     0.162 HD
HETATM    6  O1  UNL     1      -9.821  22.264 -16.243  1.00  0.00    -0.274 OA
BRANCH   4   7
HETATM    7  C7  UNL     1      -9.108  20.332 -18.246  1.00  0.00     0.124 C 
BRANCH   7   8
HETATM    8  C6  UNL     1      -9.379  18.826 -18.270  1.00  0.00     0.050 C 
BRANCH   8   9
HETATM    9  C5  UNL     1      -8.905  18.196 -16.982  1.00  0.00     0.274 C 
BRANCH   9  10
HETATM   10  N2  UNL     1      -9.726  18.696 -15.891  1.00  0.00     0.094 N 
HETATM   11  C4  UNL     1     -10.682  17.681 -15.466  1.00  0.00     0.293 C 
HETATM   12  C3  UNL     1     -10.429  17.189 -14.077  1.00  0.00     0.157 C 
HETATM   13  N1  UNL     1      -9.055  16.826 -13.838  1.00  0.00    -0.371 N 
HETATM   14  C33 UNL     1      -8.204  17.893 -14.151  1.00  0.00     0.093 C 
HETATM   15  C32 UNL     1      -8.899  19.095 -14.761  1.00  0.00     0.317 C 
BRANCH  13  16
HETATM   16  C2  UNL     1      -8.763  15.511 -14.207  1.00  0.00     0.059 C 
HETATM   17  C1  UNL     1      -7.839  14.717 -13.378  1.00  0.00     0.055 C 
ENDBRANCH  13  16
ENDBRANCH   9  10
ENDBRANCH   8   9
ENDBRANCH   7   8
ENDBRANCH   4   7
ENDBRANCH   2   3
ENDBRANCH   1   2
BRANCH   1  18
HETATM   18  N4  UNL     1     -13.853  22.482 -15.878  1.00  0.00    -0.346 N 
HETATM   19  C11 UNL     1     -13.582  21.883 -14.628  1.00  0.00     0.241 C 
HETATM   20  O2  UNL     1     -12.616  21.024 -14.526  1.00  0.00    -0.271 OA
ATOM     21  H4  UNL     1     -14.607  23.165 -15.942  1.00  0.00     0.163 HD
BRANCH  19  22
HETATM   22  C12 UNL     1     -14.311  22.148 -13.409  1.00  0.00     0.179 C 
HETATM   23  C13 UNL     1     -14.613  20.865 -12.629  1.00  0.00     0.037 C 
HETATM   24  C14 UNL     1     -15.847  20.359 -13.390  1.00  0.00     0.022 C 
HETATM   25  C15 UNL     1     -16.466  21.610 -13.990  1.00  0.00     0.127 C 
HETATM   26  N5  UNL     1     -15.629  22.696 -13.525  1.00  0.00    -0.339 N 
HETATM   27  C16 UNL     1     -16.051  23.994 -13.221  1.00  0.00     0.220 C 
HETATM   28  O3  UNL     1     -15.212  24.828 -12.786  1.00  0.00    -0.273 OA
BRANCH  27  29
HETATM   29  C17 UNL     1     -17.446  24.475 -13.378  1.00  0.00     0.103 C 
BRANCH  29  30
HETATM   30  C18 UNL     1     -17.635  25.836 -12.705  1.00  0.00     0.014 C 
BRANCH  30  31
HETATM   31  C19 UNL     1     -18.139  26.855 -13.708  1.00  0.00    -0.014 C 
HETATM   32  C20 UNL     1     -18.387  26.252 -15.053  1.00  0.00     0.004 C 
HETATM   33  C21 UNL     1     -19.004  27.147 -16.060  1.00  0.00     0.000 C 
HETATM   34  C22 UNL     1     -19.255  28.502 -15.418  1.00  0.00     0.000 C 
HETATM   35  C23 UNL     1     -20.168  28.231 -14.231  1.00  0.00     0.000 C 
HETATM   36  C24 UNL     1     -19.315  27.608 -13.155  1.00  0.00     0.004 C 
ENDBRANCH  30  31
ENDBRANCH  29  30
ENDBRANCH  27  29
ENDBRANCH  19  22
ENDBRANCH   1  18
BRANCH   1  37
HETATM   37  C25 UNL     1     -14.011  22.375 -18.263  1.00  0.00     0.241 C 
HETATM   38  O4  UNL     1     -14.037  21.524 -19.165  1.00  0.00    -0.271 OA
HETATM   39  N6  UNL     1     -14.804  23.556 -18.301  1.00  0.00    -0.355 N 
ATOM     40  H6  UNL     1     -14.752  24.230 -17.537  1.00  0.00     0.162 HD
BRANCH  39  41
HETATM   41  C26 UNL     1     -15.687  23.799 -19.425  1.00  0.00     0.084 C 
HETATM   42  C27 UNL     1     -17.137  23.931 -19.030  1.00  0.00     0.025 C 
HETATM   43  C28 UNL     1     -17.463  25.412 -18.859  1.00  0.00     0.002 C 
HETATM   44  C29 UNL     1     -17.476  26.097 -20.226  1.00  0.00     0.000 C 
HETATM   45  C30 UNL     1     -16.472  25.372 -21.121  1.00  0.00     0.002 C 
HETATM   46  C31 UNL     1     -15.274  24.996 -20.248  1.00  0.00     0.025 C 
ENDBRANCH  39  41
ENDBRANCH   1  37
TORSDOF 14
ENDMDL
MODEL 4
REMARK VINA RESULT: -9.125691699      2.615      5.939
REMARK  14 active torsions:
REMARK  status: ('A' for Active; 'I' for Inactive)
REMARK    1  A    between atoms: C2_2  and  N1_3 
REMARK    2  A    between atoms: N2_6  and  C5_7 
REMARK    3  A    between atoms: C5_7  and  C6_8 
REMARK    4  A    between atoms: C6_8  and  C7_9 
REMARK    5  A    between atoms: C7_9  and  N3_10 
REMARK       I    between atoms: N3_10  and  C8_12 
REMARK    6  A    between atoms: C8_12  and  C9_14 
REMARK    7  A    between atoms: C9_14  and  C10_15 
REMARK    8  A    between atoms: C10_15  and  N4_16 
REMARK    9  A    between atoms: C10_15  and  C25_35 
REMARK       I    between atoms: N4_16  and  C11_18 
REMARK   10  A    between atoms: C11_18  and  C12_20 
REMARK       I    between atoms: N5_24  and  C16_25 
REMARK   11  A    between atoms: C16_25  and  C17_27 
REMARK   12  A    between atoms: C17_27  and  C18_28 
REMARK   13  A    between atoms: C18_28  and  C19_29 
REMARK       I    between atoms: C25_35  and  N6_37 
REMARK   14  A    between atoms: N6_37  and  C26_39 
ROOT
HETATM    1  C10 UNL     1     -13.042  22.771 -18.308  1.00  0.00     0.185 C 
ENDROOT
BRANCH   1   2
HETATM    2  C9  UNL     1     -12.601  21.616 -19.113  1.00  0.00     0.137 C 
BRANCH   2   3
HETATM    3  C8  UNL     1     -12.923  20.278 -18.574  1.00  0.00     0.220 C 
HETATM    4  N3  UNL     1     -11.932  19.256 -18.498  1.00  0.00    -0.361 N 
ATOM      5  H3  UNL     1     -10.996  19.482 -18.834  1.00  0.00     0.162 HD
HETATM    6  O1  UNL     1     -14.094  20.049 -18.185  1.00  0.00    -0.274 OA
BRANCH   4   7
HETATM    7  C7  UNL     1     -12.145  17.947 -17.989  1.00  0.00     0.124 C 
BRANCH   7   8
HETATM    8  C6  UNL     1     -11.099  17.486 -16.972  1.00  0.00     0.050 C 
BRANCH   8   9
HETATM    9  C5  UNL     1     -10.166  18.627 -16.642  1.00  0.00     0.274 C 
BRANCH   9  10
HETATM   10  N2  UNL     1     -10.171  18.830 -15.202  1.00  0.00     0.094 N 
HETATM   11  C4  UNL     1     -10.701  17.654 -14.523  1.00  0.00     0.293 C 
HETATM   12  C3  UNL     1      -9.677  16.958 -13.683  1.00  0.00     0.157 C 
HETATM   13  N1  UNL     1      -8.435  16.718 -14.373  1.00  0.00    -0.371 N 
HETATM   14  C33 UNL     1      -7.924  17.913 -14.891  1.00  0.00     0.093 C 
HETATM   15  C32 UNL     1      -8.829  19.116 -14.714  1.00  0.00     0.317 C 
BRANCH  13  16
HETATM   16  C2  UNL     1      -8.436  15.531 -15.106  1.00  0.00     0.059 C 
HETATM   17  C1  UNL     1      -7.914  15.533 -16.485  1.00  0.00     0.055 C 
ENDBRANCH  13  16
ENDBRANCH   9  10
ENDBRANCH   8   9
ENDBRANCH   7   8
ENDBRANCH   4   7
ENDBRANCH   2   3
ENDBRANCH   1   2
BRANCH   1  18
HETATM   18  N4  UNL     1     -14.445  23.097 -18.331  1.00  0.00    -0.346 N 
HETATM   19  C11 UNL     1     -15.117  23.468 -19.516  1.00  0.00     0.241 C 
HETATM   20  O2  UNL     1     -14.465  23.507 -20.636  1.00  0.00    -0.271 OA
ATOM     21  H4  UNL     1     -14.972  23.059 -17.459  1.00  0.00     0.163 HD
BRANCH  19  22
HETATM   22  C12 UNL     1     -16.516  23.822 -19.597  1.00  0.00     0.179 C 
HETATM   23  C13 UNL     1     -16.878  24.425 -20.957  1.00  0.00     0.037 C 
HETATM   24  C14 UNL     1     -16.408  25.873 -20.757  1.00  0.00     0.022 C 
HETATM   25  C15 UNL     1     -16.475  26.092 -19.255  1.00  0.00     0.127 C 
HETATM   26  N5  UNL     1     -16.996  24.851 -18.723  1.00  0.00    -0.339 N 
HETATM   27  C16 UNL     1     -17.827  24.712 -17.606  1.00  0.00     0.220 C 
HETATM   28  O3  UNL     1     -18.236  23.566 -17.282  1.00  0.00    -0.273 OA
BRANCH  27  29
HETATM   29  C17 UNL     1     -18.271  25.843 -16.754  1.00  0.00     0.103 C 
BRANCH  29  30
HETATM   30  C18 UNL     1     -18.840  25.337 -15.427  1.00  0.00     0.014 C 
BRANCH  30  31
HETATM   31  C19 UNL     1     -17.975  25.800 -14.271  1.00  0.00    -0.014 C 
HETATM   32  C20 UNL     1     -18.683  26.779 -13.391  1.00  0.00     0.004 C 
HETATM   33  C21 UNL     1     -17.961  27.186 -12.162  1.00  0.00     0.000 C 
HETATM   34  C22 UNL     1     -16.634  26.444 -12.109  1.00  0.00     0.000 C 
HETATM   35  C23 UNL     1     -16.992  24.965 -12.121  1.00  0.00     0.000 C 
HETATM   36  C24 UNL     1     -17.403  24.624 -13.531  1.00  0.00     0.004 C 
ENDBRANCH  30  31
ENDBRANCH  29  30
ENDBRANCH  27  29
ENDBRANCH  19  22
ENDBRANCH   1  18
BRANCH   1  37
HETATM   37  C25 UNL     1     -12.636  22.553 -16.863  1.00  0.00     0.241 C 
HETATM   38  O4  UNL     1     -11.438  22.624 -16.549  1.00  0.00    -0.271 OA
HETATM   39  N6  UNL     1     -13.661  22.272 -15.915  1.00  0.00    -0.355 N 
ATOM     40  H6  UNL     1     -14.634  22.223 -16.216  1.00  0.00     0.162 HD
BRANCH  39  41
HETATM   41  C26 UNL     1     -13.319  22.056 -14.522  1.00  0.00     0.084 C 
HETATM   42  C27 UNL     1     -14.307  22.673 -13.562  1.00  0.00     0.025 C 
HETATM   43  C28 UNL     1     -15.319  21.608 -13.152  1.00  0.00     0.002 C 
HETATM   44  C29 UNL     1     -14.643  20.578 -12.246  1.00  0.00     0.000 C 
HETATM   45  C30 UNL     1     -13.176  20.483 -12.660  1.00  0.00     0.002 C 
HETATM   46  C31 UNL     1     -13.125  20.598 -14.184  1.00  0.00     0.025 C 
ENDBRANCH  39  41
ENDBRANCH   1  37
TORSDOF 14
ENDMDL
MODEL 5
REMARK VINA RESULT: -9.074973977      1.963      9.024
REMARK  14 active torsions:
REMARK  status: ('A' for Active; 'I' for Inactive)
REMARK    1  A    between atoms: C2_2  and  N1_3 
REMARK    2  A    between atoms: N2_6  and  C5_7 
REMARK    3  A    between atoms: C5_7  and  C6_8 
REMARK    4  A    between atoms: C6_8  and  C7_9 
REMARK    5  A    between atoms: C7_9  and  N3_10 
REMARK       I    between atoms: N3_10  and  C8_12 
REMARK    6  A    between atoms: C8_12  and  C9_14 
REMARK    7  A    between atoms: C9_14  and  C10_15 
REMARK    8  A    between atoms: C10_15  and  N4_16 
REMARK    9  A    between atoms: C10_15  and  C25_35 
REMARK       I    between atoms: N4_16  and  C11_18 
REMARK   10  A    between atoms: C11_18  and  C12_20 
REMARK       I    between atoms: N5_24  and  C16_25 
REMARK   11  A    between atoms: C16_25  and  C17_27 
REMARK   12  A    between atoms: C17_27  and  C18_28 
REMARK   13  A    between atoms: C18_28  and  C19_29 
REMARK       I    between atoms: C25_35  and  N6_37 
REMARK   14  A    between atoms: N6_37  and  C26_39 
ROOT
HETATM    1  C10 UNL     1     -13.028  21.436 -18.778  1.00  0.00     0.185 C 
ENDROOT
BRANCH   1   2
HETATM    2  C9  UNL     1     -12.693  21.299 -20.209  1.00  0.00     0.137 C 
BRANCH   2   3
HETATM    3  C8  UNL     1     -11.303  20.908 -20.525  1.00  0.00     0.220 C 
HETATM    4  N3  UNL     1     -11.005  19.634 -21.090  1.00  0.00    -0.361 N 
ATOM      5  H3  UNL     1     -11.786  19.002 -21.262  1.00  0.00     0.162 HD
HETATM    6  O1  UNL     1     -10.377  21.721 -20.282  1.00  0.00    -0.274 OA
BRANCH   4   7
HETATM    7  C7  UNL     1      -9.704  19.176 -21.434  1.00  0.00     0.124 C 
BRANCH   7   8
HETATM    8  C6  UNL     1      -9.050  18.284 -20.376  1.00  0.00     0.050 C 
BRANCH   8   9
HETATM    9  C5  UNL     1      -7.553  18.484 -20.389  1.00  0.00     0.274 C 
BRANCH   9  10
HETATM   10  N2  UNL     1      -6.910  17.181 -20.397  1.00  0.00     0.094 N 
HETATM   11  C4  UNL     1      -5.727  17.201 -21.248  1.00  0.00     0.293 C 
HETATM   12  C3  UNL     1      -4.457  17.008 -20.482  1.00  0.00     0.157 C 
HETATM   13  N1  UNL     1      -4.351  17.857 -19.323  1.00  0.00    -0.371 N 
HETATM   14  C33 UNL     1      -5.464  17.692 -18.490  1.00  0.00     0.093 C 
HETATM   15  C32 UNL     1      -6.538  16.778 -19.048  1.00  0.00     0.317 C 
BRANCH  13  16
HETATM   16  C2  UNL     1      -3.821  19.116 -19.612  1.00  0.00     0.059 C 
HETATM   17  C1  UNL     1      -3.112  19.861 -18.556  1.00  0.00     0.055 C 
ENDBRANCH  13  16
ENDBRANCH   9  10
ENDBRANCH   8   9
ENDBRANCH   7   8
ENDBRANCH   4   7
ENDBRANCH   2   3
ENDBRANCH   1   2
BRANCH   1  18
HETATM   18  N4  UNL     1     -11.953  21.287 -17.830  1.00  0.00    -0.346 N 
HETATM   19  C11 UNL     1     -12.006  20.364 -16.763  1.00  0.00     0.241 C 
HETATM   20  O2  UNL     1     -13.047  19.604 -16.627  1.00  0.00    -0.271 OA
ATOM     21  H4  UNL     1     -11.123  21.871 -17.933  1.00  0.00     0.163 HD
BRANCH  19  22
HETATM   22  C12 UNL     1     -10.969  20.184 -15.773  1.00  0.00     0.179 C 
HETATM   23  C13 UNL     1      -9.633  20.781 -16.225  1.00  0.00     0.037 C 
HETATM   24  C14 UNL     1      -9.116  19.655 -17.133  1.00  0.00     0.022 C 
HETATM   25  C15 UNL     1      -9.789  18.399 -16.606  1.00  0.00     0.127 C 
HETATM   26  N5  UNL     1     -10.563  18.845 -15.467  1.00  0.00    -0.339 N 
HETATM   27  C16 UNL     1     -10.817  18.115 -14.301  1.00  0.00     0.220 C 
HETATM   28  O3  UNL     1     -11.478  18.650 -13.371  1.00  0.00    -0.273 OA
BRANCH  27  29
HETATM   29  C17 UNL     1     -10.356  16.723 -14.074  1.00  0.00     0.103 C 
BRANCH  29  30
HETATM   30  C18 UNL     1      -8.945  16.703 -13.483  1.00  0.00     0.014 C 
BRANCH  30  31
HETATM   31  C19 UNL     1      -8.073  15.713 -14.229  1.00  0.00    -0.014 C 
HETATM   32  C20 UNL     1      -6.897  16.369 -14.877  1.00  0.00     0.004 C 
HETATM   33  C21 UNL     1      -5.920  15.459 -15.519  1.00  0.00     0.000 C 
HETATM   34  C22 UNL     1      -6.384  14.025 -15.317  1.00  0.00     0.000 C 
HETATM   35  C23 UNL     1      -6.471  13.831 -13.810  1.00  0.00     0.000 C 
HETATM   36  C24 UNL     1      -7.709  14.554 -13.345  1.00  0.00     0.004 C 
ENDBRANCH  30  31
ENDBRANCH  29  30
ENDBRANCH  27  29
ENDBRANCH  19  22
ENDBRANCH   1  18
BRANCH   1  37
HETATM   37  C25 UNL     1     -13.671  22.789 -18.546  1.00  0.00     0.241 C 
HETATM   38  O4  UNL     1     -13.118  23.606 -17.794  1.00  0.00    -0.271 OA
HETATM   39  N6  UNL     1     -14.899  23.070 -19.209  1.00  0.00    -0.355 N 
ATOM     40  H6  UNL     1     -15.321  22.370 -19.820  1.00  0.00     0.162 HD
BRANCH  39  41
HETATM   41  C26 UNL     1     -15.550  24.351 -19.016  1.00  0.00     0.084 C 
HETATM   42  C27 UNL     1     -15.374  25.293 -20.181  1.00  0.00     0.025 C 
HETATM   43  C28 UNL     1     -16.588  25.170 -21.097  1.00  0.00     0.002 C 
HETATM   44  C29 UNL     1     -17.811  25.784 -20.415  1.00  0.00     0.000 C 
HETATM   45  C30 UNL     1     -17.649  25.596 -18.907  1.00  0.00     0.002 C 
HETATM   46  C31 UNL     1     -17.018  24.221 -18.687  1.00  0.00     0.025 C 
ENDBRANCH  39  41
ENDBRANCH   1  37
TORSDOF 14
ENDMDL
