MODEL 1
REMARK VINA RESULT: -9.504108098      0.000      0.000
REMARK  14 active torsions:
REMARK  status: ('A' for Active; 'I' for Inactive)
REMARK    1  A    between atoms: C2_2  and  C3_3 
REMARK    2  A    between atoms: C3_3  and  C4_4 
REMARK    3  A    between atoms: C4_4  and  N1_5 
REMARK       I    between atoms: N1_5  and  C5_7 
REMARK    4  A    between atoms: C5_7  and  C6_9 
REMARK       I    between atoms: N2_11  and  C8_12 
REMARK    5  A    between atoms: C8_12  and  C9_14 
REMARK    6  A    between atoms: C9_14  and  N3_15 
REMARK    7  A    between atoms: C9_14  and  C22_34 
REMARK       I    between atoms: N3_15  and  C10_17 
REMARK    8  A    between atoms: C10_17  and  C11_19 
REMARK    9  A    between atoms: C11_19  and  C12_20 
REMARK   10  A    between atoms: C11_19  and  N4_24 
REMARK   11  A    between atoms: C12_20  and  C13_21 
REMARK   12  A    between atoms: C13_21  and  C14_22 
REMARK       I    between atoms: N4_24  and  C16_26 
REMARK   13  A    between atoms: C16_26  and  C17_28 
REMARK   14  A    between atoms: C22_34  and  C24_36 
ROOT
HETATM    1  C9  UNL     1     -13.711  21.887 -16.035  1.00  0.00     0.180 C 
ENDROOT
BRANCH   1   2
HETATM    2  C8  UNL     1     -13.536  20.632 -16.774  1.00  0.00     0.243 C 
HETATM    3  N2  UNL     1     -12.372  20.219 -17.459  1.00  0.00    -0.349 N 
HETATM    4  C7  UNL     1     -11.100  20.854 -17.718  1.00  0.00     0.147 C 
HETATM    5  C26 UNL     1     -12.249  18.877 -18.087  1.00  0.00     0.132 C 
HETATM    6  C6  UNL     1     -10.068  19.739 -17.495  1.00  0.00     0.088 C 
HETATM    7  C27 UNL     1     -10.817  18.497 -17.747  1.00  0.00     0.027 C 
HETATM    8  C33 UNL     1      -9.417  19.913 -16.176  1.00  0.00     0.294 C 
HETATM    9  C28 UNL     1     -10.912  17.512 -16.611  1.00  0.00     0.043 C 
HETATM   10  C29 UNL     1      -9.666  17.575 -15.814  1.00  0.00     0.223 C 
HETATM   11  C30 UNL     1      -9.696  16.708 -14.572  1.00  0.00     0.037 C 
HETATM   12  N5  UNL     1      -9.655  18.908 -15.196  1.00  0.00     0.094 N 
HETATM   13  C31 UNL     1      -8.607  17.364 -13.736  1.00  0.00     0.032 C 
HETATM   14  C32 UNL     1      -8.484  18.760 -14.326  1.00  0.00     0.273 C 
HETATM   15  O2  UNL     1     -14.561  19.864 -16.777  1.00  0.00    -0.271 OA
BRANCH   6  16
HETATM   16  C5  UNL     1      -8.997  19.864 -18.555  1.00  0.00     0.230 C 
HETATM   17  N1  UNL     1      -8.209  18.781 -18.989  1.00  0.00    -0.360 N 
ATOM     18  H1  UNL     1      -8.359  17.863 -18.571  1.00  0.00     0.162 HD
HETATM   19  O1  UNL     1      -8.812  20.987 -19.064  1.00  0.00    -0.273 OA
BRANCH  17  20
HETATM   20  C4  UNL     1      -7.198  18.928 -20.002  1.00  0.00     0.122 C 
BRANCH  20  21
HETATM   21  C3  UNL     1      -7.593  18.276 -21.306  1.00  0.00     0.019 C 
BRANCH  21  22
HETATM   22  C2  UNL     1      -8.930  18.782 -21.803  1.00  0.00    -0.003 C 
HETATM   23  C1  UNL     1      -8.726  20.196 -22.302  1.00  0.00     0.005 C 
ENDBRANCH  21  22
ENDBRANCH  20  21
ENDBRANCH  17  20
ENDBRANCH   6  16
ENDBRANCH   1   2
BRANCH   1  24
HETATM   24  N3  UNL     1     -14.748  22.759 -16.593  1.00  0.00    -0.342 N 
HETATM   25  C10 UNL     1     -14.616  23.446 -17.777  1.00  0.00     0.264 C 
HETATM   26  O3  UNL     1     -13.493  23.268 -18.405  1.00  0.00    -0.266 OA
ATOM     27  H3  UNL     1     -15.618  22.861 -16.073  1.00  0.00     0.163 HD
BRANCH  25  28
HETATM   28  C11 UNL     1     -15.519  24.350 -18.466  1.00  0.00     0.080 C 
BRANCH  28  29
HETATM   29  C12 UNL     1     -15.012  25.283 -19.484  1.00  0.00     0.063 C 
BRANCH  29  30
HETATM   30  C13 UNL     1     -15.225  24.888 -20.910  1.00  0.00     0.006 C 
BRANCH  30  31
HETATM   31  C14 UNL     1     -16.716  24.756 -21.226  1.00  0.00    -0.004 C 
HETATM   32  C15 UNL     1     -17.404  26.058 -20.945  1.00  0.00     0.005 C 
ENDBRANCH  30  31
ENDBRANCH  29  30
ENDBRANCH  28  29
BRANCH  28  33
HETATM   33  N4  UNL     1     -16.546  24.914 -17.602  1.00  0.00    -0.326 N 
HETATM   34  C16 UNL     1     -17.876  24.472 -17.527  1.00  0.00     0.226 C 
HETATM   35  O4  UNL     1     -18.241  23.507 -18.239  1.00  0.00    -0.273 OA
ATOM     36  H4  UNL     1     -16.277  25.694 -17.002  1.00  0.00     0.168 HD
BRANCH  34  37
HETATM   37  C17 UNL     1     -18.856  25.119 -16.631  1.00  0.00     0.082 C 
HETATM   38  C18 UNL     1     -19.026  26.603 -16.987  1.00  0.00     0.040 C 
HETATM   39  C19 UNL     1     -20.212  27.108 -16.229  1.00  0.00     0.168 C 
HETATM   40  O5  UNL     1     -20.312  26.493 -14.993  1.00  0.00    -0.391 OA
HETATM   41  C20 UNL     1     -19.038  26.256 -14.468  1.00  0.00     0.168 C 
HETATM   42  C21 UNL     1     -18.324  25.141 -15.195  1.00  0.00     0.040 C 
ENDBRANCH  34  37
ENDBRANCH  28  33
ENDBRANCH  25  28
ENDBRANCH   1  24
BRANCH   1  43
HETATM   43  C22 UNL     1     -14.081  21.540 -14.602  1.00  0.00     0.013 C 
HETATM   44  C23 UNL     1     -14.647  22.751 -13.877  1.00  0.00     0.012 C 
BRANCH  43  45
HETATM   45  C24 UNL     1     -12.931  20.922 -13.861  1.00  0.00     0.002 C 
HETATM   46  C25 UNL     1     -13.275  20.660 -12.424  1.00  0.00     0.005 C 
ENDBRANCH  43  45
ENDBRANCH   1  43
TORSDOF 14
ENDMDL
MODEL 2
REMARK VINA RESULT: -9.235511880      2.973     10.126
REMARK  14 active torsions:
REMARK  status: ('A' for Active; 'I' for Inactive)
REMARK    1  A    between atoms: C2_2  and  C3_3 
REMARK    2  A    between atoms: C3_3  and  C4_4 
REMARK    3  A    between atoms: C4_4  and  N1_5 
REMARK       I    between atoms: N1_5  and  C5_7 
REMARK    4  A    between atoms: C5_7  and  C6_9 
REMARK       I    between atoms: N2_11  and  C8_12 
REMARK    5  A    between atoms: C8_12  and  C9_14 
REMARK    6  A    between atoms: C9_14  and  N3_15 
REMARK    7  A    between atoms: C9_14  and  C22_34 
REMARK       I    between atoms: N3_15  and  C10_17 
REMARK    8  A    between atoms: C10_17  and  C11_19 
REMARK    9  A    between atoms: C11_19  and  C12_20 
REMARK   10  A    between atoms: C11_19  and  N4_24 
REMARK   11  A    between atoms: C12_20  and  C13_21 
REMARK   12  A    between atoms: C13_21  and  C14_22 
REMARK       I    between atoms: N4_24  and  C16_26 
REMARK   13  A    between atoms: C16_26  and  C17_28 
REMARK   14  A    between atoms: C22_34  and  C24_36 
ROOT
HETATM    1  C9  UNL     1      -9.825  18.838 -16.168  1.00  0.00     0.180 C 
ENDROOT
BRANCH   1   2
HETATM    2  C8  UNL     1     -10.166  20.264 -16.174  1.00  0.00     0.243 C 
HETATM    3  N2  UNL     1     -11.193  20.876 -16.927  1.00  0.00    -0.349 N 
HETATM    4  C7  UNL     1     -12.120  20.381 -17.918  1.00  0.00     0.147 C 
HETATM    5  C26 UNL     1     -11.538  22.315 -16.783  1.00  0.00     0.132 C 
HETATM    6  C6  UNL     1     -13.453  21.056 -17.559  1.00  0.00     0.088 C 
HETATM    7  C27 UNL     1     -13.057  22.285 -16.853  1.00  0.00     0.027 C 
HETATM    8  C33 UNL     1     -14.331  20.092 -16.857  1.00  0.00     0.294 C 
HETATM    9  C28 UNL     1     -13.535  22.443 -15.432  1.00  0.00     0.043 C 
HETATM   10  C29 UNL     1     -14.867  21.809 -15.300  1.00  0.00     0.223 C 
HETATM   11  C30 UNL     1     -15.398  21.803 -13.881  1.00  0.00     0.037 C 
HETATM   12  N5  UNL     1     -14.645  20.370 -15.496  1.00  0.00     0.094 N 
HETATM   13  C31 UNL     1     -16.422  20.682 -13.961  1.00  0.00     0.032 C 
HETATM   14  C32 UNL     1     -15.986  19.873 -15.173  1.00  0.00     0.273 C 
HETATM   15  O2  UNL     1      -9.440  20.993 -15.411  1.00  0.00    -0.271 OA
BRANCH   6  16
HETATM   16  C5  UNL     1     -14.144  21.456 -18.843  1.00  0.00     0.230 C 
HETATM   17  N1  UNL     1     -14.009  22.727 -19.430  1.00  0.00    -0.360 N 
ATOM     18  H1  UNL     1     -13.419  23.422 -18.972  1.00  0.00     0.162 HD
HETATM   19  O1  UNL     1     -14.867  20.607 -19.402  1.00  0.00    -0.273 OA
BRANCH  17  20
HETATM   20  C4  UNL     1     -14.677  23.080 -20.654  1.00  0.00     0.122 C 
BRANCH  20  21
HETATM   21  C3  UNL     1     -15.162  24.511 -20.653  1.00  0.00     0.019 C 
BRANCH  21  22
HETATM   22  C2  UNL     1     -16.671  24.590 -20.736  1.00  0.00    -0.003 C 
HETATM   23  C1  UNL     1     -17.027  25.963 -21.265  1.00  0.00     0.005 C 
ENDBRANCH  21  22
ENDBRANCH  20  21
ENDBRANCH  17  20
ENDBRANCH   6  16
ENDBRANCH   1   2
BRANCH   1  24
HETATM   24  N3  UNL     1      -8.572  18.530 -16.862  1.00  0.00    -0.342 N 
HETATM   25  C10 UNL     1      -8.506  18.047 -18.148  1.00  0.00     0.264 C 
HETATM   26  O3  UNL     1      -9.649  17.885 -18.743  1.00  0.00    -0.266 OA
ATOM     27  H3  UNL     1      -7.697  18.683 -16.362  1.00  0.00     0.163 HD
BRANCH  25  28
HETATM   28  C11 UNL     1      -7.372  17.681 -18.978  1.00  0.00     0.080 C 
BRANCH  28  29
HETATM   29  C12 UNL     1      -7.574  17.211 -20.357  1.00  0.00     0.063 C 
BRANCH  29  30
HETATM   30  C13 UNL     1      -7.390  18.228 -21.436  1.00  0.00     0.006 C 
BRANCH  30  31
HETATM   31  C14 UNL     1      -8.735  18.801 -21.886  1.00  0.00    -0.004 C 
HETATM   32  C15 UNL     1      -8.856  20.220 -21.415  1.00  0.00     0.005 C 
ENDBRANCH  30  31
ENDBRANCH  29  30
ENDBRANCH  28  29
BRANCH  28  33
HETATM   33  N4  UNL     1      -6.331  16.966 -18.253  1.00  0.00    -0.326 N 
HETATM   34  C16 UNL     1      -6.520  15.788 -17.513  1.00  0.00     0.226 C 
HETATM   35  O4  UNL     1      -7.663  15.276 -17.459  1.00  0.00    -0.273 OA
ATOM     36  H4  UNL     1      -5.388  17.352 -18.287  1.00  0.00     0.168 HD
BRANCH  34  37
HETATM   37  C17 UNL     1      -5.404  15.141 -16.792  1.00  0.00     0.082 C 
HETATM   38  C18 UNL     1      -5.909  14.430 -15.529  1.00  0.00     0.040 C 
HETATM   39  C19 UNL     1      -4.785  13.587 -15.017  1.00  0.00     0.168 C 
HETATM   40  O5  UNL     1      -3.561  14.195 -15.244  1.00  0.00    -0.391 OA
HETATM   41  C20 UNL     1      -3.680  15.581 -15.108  1.00  0.00     0.168 C 
HETATM   42  C21 UNL     1      -4.435  16.201 -16.261  1.00  0.00     0.040 C 
ENDBRANCH  34  37
ENDBRANCH  28  33
ENDBRANCH  25  28
ENDBRANCH   1  24
BRANCH   1  43
HETATM   43  C22 UNL     1      -9.706  18.390 -14.720  1.00  0.00     0.013 C 
HETATM   44  C23 UNL     1      -8.270  18.027 -14.378  1.00  0.00     0.012 C 
BRANCH  43  45
HETATM   45  C24 UNL     1     -10.663  17.278 -14.399  1.00  0.00     0.002 C 
HETATM   46  C25 UNL     1      -9.963  16.109 -13.772  1.00  0.00     0.005 C 
ENDBRANCH  43  45
ENDBRANCH   1  43
TORSDOF 14
ENDMDL
MODEL 3
REMARK VINA RESULT: -9.220003829      2.358      4.895
REMARK  14 active torsions:
REMARK  status: ('A' for Active; 'I' for Inactive)
REMARK    1  A    between atoms: C2_2  and  C3_3 
REMARK    2  A    between atoms: C3_3  and  C4_4 
REMARK    3  A    between atoms: C4_4  and  N1_5 
REMARK       I    between atoms: N1_5  and  C5_7 
REMARK    4  A    between atoms: C5_7  and  C6_9 
REMARK       I    between atoms: N2_11  and  C8_12 
REMARK    5  A    between atoms: C8_12  and  C9_14 
REMARK    6  A    between atoms: C9_14  and  N3_15 
REMARK    7  A    between atoms: C9_14  and  C22_34 
REMARK       I    between atoms: N3_15  and  C10_17 
REMARK    8  A    between atoms: C10_17  and  C11_19 
REMARK    9  A    between atoms: C11_19  and  C12_20 
REMARK   10  A    between atoms: C11_19  and  N4_24 
REMARK   11  A    between atoms: C12_20  and  C13_21 
REMARK   12  A    between atoms: C13_21  and  C14_22 
REMARK       I    between atoms: N4_24  and  C16_26 
REMARK   13  A    between atoms: C16_26  and  C17_28 
REMARK   14  A    between atoms: C22_34  and  C24_36 
ROOT
HETATM    1  C9  UNL     1     -14.724  22.267 -17.228  1.00  0.00     0.180 C 
ENDROOT
BRANCH   1   2
HETATM    2  C8  UNL     1     -13.335  22.717 -17.107  1.00  0.00     0.243 C 
HETATM    3  N2  UNL     1     -12.257  21.975 -16.574  1.00  0.00    -0.349 N 
HETATM    4  C7  UNL     1     -12.166  20.675 -15.949  1.00  0.00     0.147 C 
HETATM    5  C26 UNL     1     -10.857  22.473 -16.595  1.00  0.00     0.132 C 
HETATM    6  C6  UNL     1     -10.896  20.055 -16.547  1.00  0.00     0.088 C 
HETATM    7  C27 UNL     1     -10.077  21.214 -16.938  1.00  0.00     0.027 C 
HETATM    8  C33 UNL     1     -11.261  19.068 -17.590  1.00  0.00     0.294 C 
HETATM    9  C28 UNL     1      -9.717  21.339 -18.396  1.00  0.00     0.043 C 
HETATM   10  C29 UNL     1      -9.552  19.983 -18.968  1.00  0.00     0.223 C 
HETATM   11  C30 UNL     1      -9.303  19.982 -20.463  1.00  0.00     0.037 C 
HETATM   12  N5  UNL     1     -10.886  19.369 -18.930  1.00  0.00     0.094 N 
HETATM   13  C31 UNL     1      -9.710  18.561 -20.821  1.00  0.00     0.032 C 
HETATM   14  C32 UNL     1     -10.604  18.134 -19.667  1.00  0.00     0.273 C 
HETATM   15  O2  UNL     1     -13.116  23.904 -17.535  1.00  0.00    -0.271 OA
BRANCH   6  16
HETATM   16  C5  UNL     1     -10.166  19.314 -15.451  1.00  0.00     0.230 C 
HETATM   17  N1  UNL     1      -8.764  19.207 -15.390  1.00  0.00    -0.360 N 
ATOM     18  H1  UNL     1      -8.204  19.647 -16.120  1.00  0.00     0.162 HD
HETATM   19  O1  UNL     1     -10.851  18.774 -14.559  1.00  0.00    -0.273 OA
BRANCH  17  20
HETATM   20  C4  UNL     1      -8.095  18.498 -14.332  1.00  0.00     0.122 C 
BRANCH  20  21
HETATM   21  C3  UNL     1      -7.850  17.048 -14.678  1.00  0.00     0.019 C 
BRANCH  21  22
HETATM   22  C2  UNL     1      -8.722  16.121 -13.859  1.00  0.00    -0.003 C 
HETATM   23  C1  UNL     1      -7.881  14.923 -13.476  1.00  0.00     0.005 C 
ENDBRANCH  21  22
ENDBRANCH  20  21
ENDBRANCH  17  20
ENDBRANCH   6  16
ENDBRANCH   1   2
BRANCH   1  24
HETATM   24  N3  UNL     1     -15.708  23.335 -17.032  1.00  0.00    -0.342 N 
HETATM   25  C10 UNL     1     -16.806  23.226 -16.210  1.00  0.00     0.264 C 
HETATM   26  O3  UNL     1     -16.924  22.095 -15.584  1.00  0.00    -0.266 OA
ATOM     27  H3  UNL     1     -15.570  24.211 -17.535  1.00  0.00     0.163 HD
BRANCH  25  28
HETATM   28  C11 UNL     1     -17.874  24.162 -15.909  1.00  0.00     0.080 C 
BRANCH  28  29
HETATM   29  C12 UNL     1     -18.701  24.726 -16.987  1.00  0.00     0.063 C 
BRANCH  29  30
HETATM   30  C13 UNL     1     -18.420  26.145 -17.363  1.00  0.00     0.006 C 
BRANCH  30  31
HETATM   31  C14 UNL     1     -17.414  26.220 -18.512  1.00  0.00    -0.004 C 
HETATM   32  C15 UNL     1     -17.939  25.450 -19.688  1.00  0.00     0.005 C 
ENDBRANCH  30  31
ENDBRANCH  29  30
ENDBRANCH  28  29
BRANCH  28  33
HETATM   33  N4  UNL     1     -17.534  25.112 -14.861  1.00  0.00    -0.326 N 
HETATM   34  C16 UNL     1     -18.003  25.063 -13.538  1.00  0.00     0.226 C 
HETATM   35  O4  UNL     1     -18.769  24.133 -13.195  1.00  0.00    -0.273 OA
ATOM     36  H4  UNL     1     -16.904  25.876 -15.107  1.00  0.00     0.168 HD
BRANCH  34  37
HETATM   37  C17 UNL     1     -17.618  26.086 -12.544  1.00  0.00     0.082 C 
HETATM   38  C18 UNL     1     -16.137  25.949 -12.164  1.00  0.00     0.040 C 
HETATM   39  C19 UNL     1     -15.766  27.167 -11.379  1.00  0.00     0.168 C 
HETATM   40  O5  UNL     1     -16.827  27.601 -10.602  1.00  0.00    -0.391 OA
HETATM   41  C20 UNL     1     -17.559  26.508 -10.131  1.00  0.00     0.168 C 
HETATM   42  C21 UNL     1     -18.363  25.848 -11.227  1.00  0.00     0.040 C 
ENDBRANCH  34  37
ENDBRANCH  28  33
ENDBRANCH  25  28
ENDBRANCH   1  24
BRANCH   1  43
HETATM   43  C22 UNL     1     -14.909  21.679 -18.618  1.00  0.00     0.013 C 
HETATM   44  C23 UNL     1     -14.702  20.173 -18.606  1.00  0.00     0.012 C 
BRANCH  43  45
HETATM   45  C24 UNL     1     -14.038  22.363 -19.633  1.00  0.00     0.002 C 
HETATM   46  C25 UNL     1     -14.821  23.329 -20.472  1.00  0.00     0.005 C 
ENDBRANCH  43  45
ENDBRANCH   1  43
TORSDOF 14
ENDMDL
MODEL 4
REMARK VINA RESULT: -9.138307149      2.963     10.362
REMARK  14 active torsions:
REMARK  status: ('A' for Active; 'I' for Inactive)
REMARK    1  A    between atoms: C2_2  and  C3_3 
REMARK    2  A    between atoms: C3_3  and  C4_4 
REMARK    3  A    between atoms: C4_4  and  N1_5 
REMARK       I    between atoms: N1_5  and  C5_7 
REMARK    4  A    between atoms: C5_7  and  C6_9 
REMARK       I    between atoms: N2_11  and  C8_12 
REMARK    5  A    between atoms: C8_12  and  C9_14 
REMARK    6  A    between atoms: C9_14  and  N3_15 
REMARK    7  A    between atoms: C9_14  and  C22_34 
REMARK       I    between atoms: N3_15  and  C10_17 
REMARK    8  A    between atoms: C10_17  and  C11_19 
REMARK    9  A    between atoms: C11_19  and  C12_20 
REMARK   10  A    between atoms: C11_19  and  N4_24 
REMARK   11  A    between atoms: C12_20  and  C13_21 
REMARK   12  A    between atoms: C13_21  and  C14_22 
REMARK       I    between atoms: N4_24  and  C16_26 
REMARK   13  A    between atoms: C16_26  and  C17_28 
REMARK   14  A    between atoms: C22_34  and  C24_36 
ROOT
HETATM    1  C9  UNL     1     -10.104  19.265 -17.902  1.00  0.00     0.180 C 
ENDROOT
BRANCH   1   2
HETATM    2  C8  UNL     1     -10.394  20.627 -17.446  1.00  0.00     0.243 C 
HETATM    3  N2  UNL     1     -11.519  21.406 -17.798  1.00  0.00    -0.349 N 
HETATM    4  C7  UNL     1     -12.625  21.192 -18.702  1.00  0.00     0.147 C 
HETATM    5  C26 UNL     1     -11.786  22.739 -17.195  1.00  0.00     0.132 C 
HETATM    6  C6  UNL     1     -13.849  21.712 -17.933  1.00  0.00     0.088 C 
HETATM    7  C27 UNL     1     -13.293  22.700 -16.994  1.00  0.00     0.027 C 
HETATM    8  C33 UNL     1     -14.618  20.572 -17.381  1.00  0.00     0.294 C 
HETATM    9  C28 UNL     1     -13.502  22.442 -15.524  1.00  0.00     0.043 C 
HETATM   10  C29 UNL     1     -14.809  21.770 -15.335  1.00  0.00     0.223 C 
HETATM   11  C30 UNL     1     -15.075  21.354 -13.902  1.00  0.00     0.037 C 
HETATM   12  N5  UNL     1     -14.672  20.449 -15.964  1.00  0.00     0.094 N 
HETATM   13  C31 UNL     1     -16.133  20.280 -14.107  1.00  0.00     0.032 C 
HETATM   14  C32 UNL     1     -15.948  19.855 -15.555  1.00  0.00     0.273 C 
HETATM   15  O2  UNL     1      -9.520  21.126 -16.654  1.00  0.00    -0.271 OA
BRANCH   6  16
HETATM   16  C5  UNL     1     -14.746  22.443 -18.904  1.00  0.00     0.230 C 
HETATM   17  N1  UNL     1     -14.264  23.138 -20.029  1.00  0.00    -0.360 N 
ATOM     18  H1  UNL     1     -13.259  23.157 -20.204  1.00  0.00     0.162 HD
HETATM   19  O1  UNL     1     -15.975  22.422 -18.689  1.00  0.00    -0.273 OA
BRANCH  17  20
HETATM   20  C4  UNL     1     -15.142  23.824 -20.940  1.00  0.00     0.122 C 
BRANCH  20  21
HETATM   21  C3  UNL     1     -15.441  25.236 -20.496  1.00  0.00     0.019 C 
BRANCH  21  22
HETATM   22  C2  UNL     1     -16.734  25.749 -21.094  1.00  0.00    -0.003 C 
HETATM   23  C1  UNL     1     -17.838  25.477 -20.096  1.00  0.00     0.005 C 
ENDBRANCH  21  22
ENDBRANCH  20  21
ENDBRANCH  17  20
ENDBRANCH   6  16
ENDBRANCH   1   2
BRANCH   1  24
HETATM   24  N3  UNL     1      -8.713  18.857 -17.690  1.00  0.00    -0.342 N 
HETATM   25  C10 UNL     1      -7.989  18.102 -18.583  1.00  0.00     0.264 C 
HETATM   26  O3  UNL     1      -8.618  17.767 -19.669  1.00  0.00    -0.266 OA
ATOM     27  H3  UNL     1      -8.254  19.151 -16.828  1.00  0.00     0.163 HD
BRANCH  25  28
HETATM   28  C11 UNL     1      -6.627  17.602 -18.534  1.00  0.00     0.080 C 
BRANCH  28  29
HETATM   29  C12 UNL     1      -5.917  17.241 -19.771  1.00  0.00     0.063 C 
BRANCH  29  30
HETATM   30  C13 UNL     1      -4.511  17.732 -19.895  1.00  0.00     0.006 C 
BRANCH  30  31
HETATM   31  C14 UNL     1      -4.362  19.129 -19.292  1.00  0.00    -0.004 C 
HETATM   32  C15 UNL     1      -3.198  19.145 -18.347  1.00  0.00     0.005 C 
ENDBRANCH  30  31
ENDBRANCH  29  30
ENDBRANCH  28  29
BRANCH  28  33
HETATM   33  N4  UNL     1      -6.382  16.696 -17.422  1.00  0.00    -0.326 N 
HETATM   34  C16 UNL     1      -6.969  15.431 -17.262  1.00  0.00     0.226 C 
HETATM   35  O4  UNL     1      -7.765  15.011 -18.134  1.00  0.00    -0.273 OA
ATOM     36  H4  UNL     1      -5.730  17.005 -16.701  1.00  0.00     0.168 HD
BRANCH  34  37
HETATM   37  C17 UNL     1      -6.673  14.586 -16.086  1.00  0.00     0.082 C 
HETATM   38  C18 UNL     1      -7.176  15.248 -14.796  1.00  0.00     0.040 C 
HETATM   39  C19 UNL     1      -7.087  14.225 -13.709  1.00  0.00     0.168 C 
HETATM   40  O5  UNL     1      -5.992  13.397 -13.892  1.00  0.00    -0.391 OA
HETATM   41  C20 UNL     1      -4.925  14.120 -14.433  1.00  0.00     0.168 C 
HETATM   42  C21 UNL     1      -5.159  14.477 -15.882  1.00  0.00     0.040 C 
ENDBRANCH  34  37
ENDBRANCH  28  33
ENDBRANCH  25  28
ENDBRANCH   1  24
BRANCH   1  43
HETATM   43  C22 UNL     1     -11.015  18.311 -17.145  1.00  0.00     0.013 C 
HETATM   44  C23 UNL     1     -12.141  17.811 -18.035  1.00  0.00     0.012 C 
BRANCH  43  45
HETATM   45  C24 UNL     1     -11.527  18.921 -15.871  1.00  0.00     0.002 C 
HETATM   46  C25 UNL     1     -10.826  18.360 -14.669  1.00  0.00     0.005 C 
ENDBRANCH  43  45
ENDBRANCH   1  43
TORSDOF 14
ENDMDL
MODEL 5
REMARK VINA RESULT: -9.120160287      1.154      1.704
REMARK  14 active torsions:
REMARK  status: ('A' for Active; 'I' for Inactive)
REMARK    1  A    between atoms: C2_2  and  C3_3 
REMARK    2  A    between atoms: C3_3  and  C4_4 
REMARK    3  A    between atoms: C4_4  and  N1_5 
REMARK       I    between atoms: N1_5  and  C5_7 
REMARK    4  A    between atoms: C5_7  and  C6_9 
REMARK       I    between atoms: N2_11  and  C8_12 
REMARK    5  A    between atoms: C8_12  and  C9_14 
REMARK    6  A    between atoms: C9_14  and  N3_15 
REMARK    7  A    between atoms: C9_14  and  C22_34 
REMARK       I    between atoms: N3_15  and  C10_17 
REMARK    8  A    between atoms: C10_17  and  C11_19 
REMARK    9  A    between atoms: C11_19  and  C12_20 
REMARK   10  A    between atoms: C11_19  and  N4_24 
REMARK   11  A    between atoms: C12_20  and  C13_21 
REMARK   12  A    between atoms: C13_21  and  C14_22 
REMARK       I    between atoms: N4_24  and  C16_26 
REMARK   13  A    between atoms: C16_26  and  C17_28 
REMARK   14  A    between atoms: C22_34  and  C24_36 
ROOT
HETATM    1  C9  UNL     1     -14.408  21.869 -15.929  1.00  0.00     0.180 C 
ENDROOT
BRANCH   1   2
HETATM    2  C8  UNL     1     -14.201  20.611 -16.652  1.00  0.00     0.243 C 
HETATM    3  N2  UNL     1     -13.073  20.267 -17.429  1.00  0.00    -0.349 N 
HETATM    4  C7  UNL     1     -11.882  20.989 -17.815  1.00  0.00     0.147 C 
HETATM    5  C26 UNL     1     -12.902  18.920 -18.036  1.00  0.00     0.132 C 
HETATM    6  C6  UNL     1     -10.751  19.962 -17.661  1.00  0.00     0.088 C 
HETATM    7  C27 UNL     1     -11.420  18.661 -17.818  1.00  0.00     0.027 C 
HETATM    8  C33 UNL     1     -10.002  20.222 -16.410  1.00  0.00     0.294 C 
HETATM    9  C28 UNL     1     -11.339  17.704 -16.656  1.00  0.00     0.043 C 
HETATM   10  C29 UNL     1     -10.036  17.884 -15.975  1.00  0.00     0.223 C 
HETATM   11  C30 UNL     1      -9.890  17.054 -14.716  1.00  0.00     0.037 C 
HETATM   12  N5  UNL     1     -10.075  19.232 -15.390  1.00  0.00     0.094 N 
HETATM   13  C31 UNL     1      -8.786  17.814 -13.996  1.00  0.00     0.032 C 
HETATM   14  C32 UNL     1      -8.824  19.198 -14.625  1.00  0.00     0.273 C 
HETATM   15  O2  UNL     1     -15.160  19.768 -16.547  1.00  0.00    -0.271 OA
BRANCH   6  16
HETATM   16  C5  UNL     1      -9.790  20.136 -18.815  1.00  0.00     0.230 C 
HETATM   17  N1  UNL     1     -10.206  20.350 -20.142  1.00  0.00    -0.360 N 
ATOM     18  H1  UNL     1     -11.205  20.388 -20.346  1.00  0.00     0.162 HD
HETATM   19  O1  UNL     1      -8.568  20.087 -18.566  1.00  0.00    -0.273 OA
BRANCH  17  20
HETATM   20  C4  UNL     1      -9.269  20.516 -21.221  1.00  0.00     0.122 C 
BRANCH  20  21
HETATM   21  C3  UNL     1      -9.053  19.237 -21.995  1.00  0.00     0.019 C 
BRANCH  21  22
HETATM   22  C2  UNL     1      -7.762  18.554 -21.598  1.00  0.00    -0.003 C 
HETATM   23  C1  UNL     1      -8.126  17.283 -20.862  1.00  0.00     0.005 C 
ENDBRANCH  21  22
ENDBRANCH  20  21
ENDBRANCH  17  20
ENDBRANCH   6  16
ENDBRANCH   1   2
BRANCH   1  24
HETATM   24  N3  UNL     1     -15.677  22.530 -16.248  1.00  0.00    -0.342 N 
HETATM   25  C10 UNL     1     -15.922  23.191 -17.428  1.00  0.00     0.264 C 
HETATM   26  O3  UNL     1     -14.944  23.191 -18.282  1.00  0.00    -0.266 OA
ATOM     27  H3  UNL     1     -16.422  22.497 -15.553  1.00  0.00     0.163 HD
BRANCH  25  28
HETATM   28  C11 UNL     1     -17.095  23.902 -17.903  1.00  0.00     0.080 C 
BRANCH  28  29
HETATM   29  C12 UNL     1     -17.301  24.131 -19.342  1.00  0.00     0.063 C 
BRANCH  29  30
HETATM   30  C13 UNL     1     -17.915  25.438 -19.723  1.00  0.00     0.006 C 
BRANCH  30  31
HETATM   31  C14 UNL     1     -17.184  26.062 -20.913  1.00  0.00    -0.004 C 
HETATM   32  C15 UNL     1     -15.850  25.398 -21.084  1.00  0.00     0.005 C 
ENDBRANCH  30  31
ENDBRANCH  29  30
ENDBRANCH  28  29
BRANCH  28  33
HETATM   33  N4  UNL     1     -17.469  25.030 -17.063  1.00  0.00    -0.326 N 
HETATM   34  C16 UNL     1     -18.116  24.937 -15.820  1.00  0.00     0.226 C 
HETATM   35  O4  UNL     1     -18.400  23.805 -15.361  1.00  0.00    -0.273 OA
ATOM     36  H4  UNL     1     -17.242  25.965 -17.403  1.00  0.00     0.168 HD
BRANCH  34  37
HETATM   37  C17 UNL     1     -18.474  26.141 -15.043  1.00  0.00     0.082 C 
HETATM   38  C18 UNL     1     -18.674  25.797 -13.561  1.00  0.00     0.040 C 
HETATM   39  C19 UNL     1     -18.761  27.089 -12.813  1.00  0.00     0.168 C 
HETATM   40  O5  UNL     1     -19.388  28.063 -13.573  1.00  0.00    -0.391 OA
HETATM   41  C20 UNL     1     -20.399  27.491 -14.351  1.00  0.00     0.168 C 
HETATM   42  C21 UNL     1     -19.841  26.669 -15.489  1.00  0.00     0.040 C 
ENDBRANCH  34  37
ENDBRANCH  28  33
ENDBRANCH  25  28
ENDBRANCH   1  24
BRANCH   1  43
HETATM   43  C22 UNL     1     -14.374  21.566 -14.440  1.00  0.00     0.013 C 
HETATM   44  C23 UNL     1     -14.762  22.790 -13.625  1.00  0.00     0.012 C 
BRANCH  43  45
HETATM   45  C24 UNL     1     -13.050  20.999 -14.015  1.00  0.00     0.002 C 
HETATM   46  C25 UNL     1     -13.082  20.527 -12.591  1.00  0.00     0.005 C 
ENDBRANCH  43  45
ENDBRANCH   1  43
TORSDOF 14
ENDMDL
