MODEL 1
REMARK VINA RESULT: -8.846070242      0.000      0.000
REMARK  18 active torsions:
REMARK  status: ('A' for Active; 'I' for Inactive)
REMARK    1  A    between atoms: C2_2  and  C3_3 
REMARK    2  A    between atoms: C6_7  and  C8_9 
REMARK    3  A    between atoms: C8_9  and  C9_10 
REMARK    4  A    between atoms: C8_9  and  C29_43 
REMARK    5  A    between atoms: C9_10  and  O1_11 
REMARK    6  A    between atoms: C9_10  and  N2_13 
REMARK    7  A    between atoms: N3_16  and  C12_17 
REMARK    8  A    between atoms: C12_17  and  O2_18 
REMARK    9  A    between atoms: C12_17  and  C13_20 
REMARK   10  A    between atoms: C13_20  and  C14_21 
REMARK   11  A    between atoms: C13_20  and  N4_25 
REMARK   12  A    between atoms: C14_21  and  C15_22 
REMARK   13  A    between atoms: C20_29  and  C21_30 
REMARK       I    between atoms: C21_30  and  N5_32 
REMARK   14  A    between atoms: N5_32  and  C22_34 
REMARK   15  A    between atoms: C22_34  and  C23_35 
REMARK   16  A    between atoms: C22_34  and  C26_40 
REMARK   17  A    between atoms: C23_35  and  C24_36 
REMARK   18  A    between atoms: C24_36  and  C25_37 
ROOT
HETATM    1  N2  UNL     1     -12.226  21.051 -18.210  1.00  0.00    -0.345 N 
HETATM    2  C10 UNL     1     -12.872  21.610 -19.430  1.00  0.00     0.146 C 
HETATM    3  C11 UNL     1     -13.749  22.751 -18.954  1.00  0.00     0.144 C 
HETATM    4  N3  UNL     1     -14.834  22.155 -18.238  1.00  0.00    -0.360 N 
HETATM    5  C19 UNL     1     -14.620  20.805 -17.721  1.00  0.00     0.159 C 
HETATM    6  C20 UNL     1     -13.166  20.661 -17.226  1.00  0.00     0.196 C 
ENDROOT
BRANCH   1   7
HETATM    7  C9  UNL     1     -10.847  20.962 -18.271  1.00  0.00     0.147 C 
BRANCH   7   8
HETATM    8  C8  UNL     1      -9.802  20.023 -18.639  1.00  0.00     0.022 C 
BRANCH   8   9
HETATM    9  C6  UNL     1      -9.729  18.696 -18.052  1.00  0.00     0.015 C 
HETATM   10  N1  UNL     1      -8.938  18.461 -16.980  1.00  0.00    -0.379 N 
HETATM   11  C3  UNL     1      -8.996  18.613 -15.634  1.00  0.00     0.085 C 
HETATM   12  C5  UNL     1      -7.939  17.447 -16.917  1.00  0.00     0.125 C 
HETATM   13  C4  UNL     1      -8.543  17.122 -15.557  1.00  0.00     0.045 C 
HETATM   14  C7  UNL     1     -11.042  17.942 -17.930  1.00  0.00     0.068 C 
BRANCH  11  15
HETATM   15  C2  UNL     1     -10.210  18.727 -14.794  1.00  0.00     0.021 C 
HETATM   16  C1  UNL     1     -10.527  17.487 -13.989  1.00  0.00     0.007 C 
ENDBRANCH  11  15
ENDBRANCH   8   9
BRANCH   8  17
HETATM   17  C29 UNL     1      -9.532  20.097 -20.129  1.00  0.00    -0.018 C 
HETATM   18  C30 UNL     1      -8.187  19.442 -20.452  1.00  0.00     0.019 C 
HETATM   19  C31 UNL     1     -10.506  19.192 -20.929  1.00  0.00     0.019 C 
HETATM   20  C32 UNL     1      -9.622  21.403 -20.788  1.00  0.00     0.019 C 
ENDBRANCH   8  17
ENDBRANCH   7   8
BRANCH   7  21
HETATM   21  O1  UNL     1     -10.292  22.105 -17.856  1.00  0.00    -0.346 OA
ATOM     22  H1  UNL     1     -10.823  22.482 -17.165  1.00  0.00     0.219 HD
ENDBRANCH   7  21
ENDBRANCH   1   7
BRANCH   6  23
HETATM   23  C21 UNL     1     -13.169  21.286 -15.915  1.00  0.00     0.242 C 
HETATM   24  O3  UNL     1     -12.159  21.692 -15.358  1.00  0.00    -0.271 OA
HETATM   25  N5  UNL     1     -14.404  21.463 -15.173  1.00  0.00    -0.354 N 
ATOM     26  H5  UNL     1     -15.271  21.140 -15.601  1.00  0.00     0.162 HD
BRANCH  25  27
HETATM   27  C22 UNL     1     -14.477  22.061 -13.883  1.00  0.00     0.088 C 
BRANCH  27  28
HETATM   28  C23 UNL     1     -15.013  23.456 -13.965  1.00  0.00     0.034 C 
BRANCH  28  29
HETATM   29  C24 UNL     1     -16.248  23.664 -13.138  1.00  0.00     0.101 C 
BRANCH  29  30
HETATM   30  C25 UNL     1     -17.332  24.280 -13.929  1.00  0.00     0.231 C 
HETATM   31  N6  UNL     1     -17.759  25.602 -13.677  1.00  0.00    -0.062 NA
HETATM   32  O4  UNL     1     -17.884  23.626 -14.837  1.00  0.00    -0.277 OA
ENDBRANCH  29  30
ENDBRANCH  28  29
ENDBRANCH  27  28
BRANCH  27  33
HETATM   33  C26 UNL     1     -15.441  21.313 -12.960  1.00  0.00     0.000 C 
HETATM   34  C27 UNL     1     -16.213  20.350 -13.874  1.00  0.00     0.011 C 
HETATM   35  C28 UNL     1     -14.593  20.532 -11.987  1.00  0.00     0.011 C 
ENDBRANCH  27  33
ENDBRANCH  25  27
ENDBRANCH   6  23
BRANCH   4  36
HETATM   36  C12 UNL     1     -16.048  22.771 -18.012  1.00  0.00     0.136 C 
BRANCH  36  37
HETATM   37  O2  UNL     1     -16.670  22.356 -16.936  1.00  0.00    -0.348 OA
ATOM     38  H2  UNL     1     -17.418  21.796 -17.109  1.00  0.00     0.219 HD
ENDBRANCH  36  37
BRANCH  36  39
HETATM   39  C13 UNL     1     -16.803  23.800 -18.727  1.00  0.00     0.151 C 
BRANCH  39  40
HETATM   40  C14 UNL     1     -15.973  24.962 -19.099  1.00  0.00     0.037 C 
BRANCH  40  41
HETATM   41  C15 UNL     1     -15.905  25.284 -20.576  1.00  0.00    -0.020 C 
HETATM   42  C16 UNL     1     -15.386  24.132 -21.411  1.00  0.00     0.009 C 
HETATM   43  C17 UNL     1     -17.073  25.986 -21.153  1.00  0.00     0.009 C 
ENDBRANCH  40  41
ENDBRANCH  39  40
BRANCH  39  44
HETATM   44  N4  UNL     1     -18.069  24.100 -18.104  1.00  0.00    -0.414 N 
HETATM   45  C18 UNL     1     -18.296  25.441 -17.711  1.00  0.00     0.140 C 
ATOM     46  H4  UNL     1     -18.772  23.377 -17.954  1.00  0.00     0.153 HD
ENDBRANCH  39  44
ENDBRANCH  36  39
ENDBRANCH   4  36
TORSDOF 18
ENDMDL
MODEL 2
REMARK VINA RESULT: -8.796701079      1.011      1.701
REMARK  18 active torsions:
REMARK  status: ('A' for Active; 'I' for Inactive)
REMARK    1  A    between atoms: C2_2  and  C3_3 
REMARK    2  A    between atoms: C6_7  and  C8_9 
REMARK    3  A    between atoms: C8_9  and  C9_10 
REMARK    4  A    between atoms: C8_9  and  C29_43 
REMARK    5  A    between atoms: C9_10  and  O1_11 
REMARK    6  A    between atoms: C9_10  and  N2_13 
REMARK    7  A    between atoms: N3_16  and  C12_17 
REMARK    8  A    between atoms: C12_17  and  O2_18 
REMARK    9  A    between atoms: C12_17  and  C13_20 
REMARK   10  A    between atoms: C13_20  and  C14_21 
REMARK   11  A    between atoms: C13_20  and  N4_25 
REMARK   12  A    between atoms: C14_21  and  C15_22 
REMARK   13  A    between atoms: C20_29  and  C21_30 
REMARK       I    between atoms: C21_30  and  N5_32 
REMARK   14  A    between atoms: N5_32  and  C22_34 
REMARK   15  A    between atoms: C22_34  and  C23_35 
REMARK   16  A    between atoms: C22_34  and  C26_40 
REMARK   17  A    between atoms: C23_35  and  C24_36 
REMARK   18  A    between atoms: C24_36  and  C25_37 
ROOT
HETATM    1  N2  UNL     1     -12.520  21.350 -18.464  1.00  0.00    -0.345 N 
HETATM    2  C10 UNL     1     -13.088  21.878 -19.735  1.00  0.00     0.146 C 
HETATM    3  C11 UNL     1     -13.947  23.065 -19.350  1.00  0.00     0.144 C 
HETATM    4  N3  UNL     1     -15.084  22.535 -18.663  1.00  0.00    -0.360 N 
HETATM    5  C19 UNL     1     -14.941  21.202 -18.081  1.00  0.00     0.159 C 
HETATM    6  C20 UNL     1     -13.517  21.033 -17.511  1.00  0.00     0.196 C 
ENDROOT
BRANCH   1   7
HETATM    7  C9  UNL     1     -11.143  21.215 -18.454  1.00  0.00     0.147 C 
BRANCH   7   8
HETATM    8  C8  UNL     1     -10.113  20.246 -18.786  1.00  0.00     0.022 C 
BRANCH   8   9
HETATM    9  C6  UNL     1     -10.091  18.922 -18.189  1.00  0.00     0.015 C 
HETATM   10  N1  UNL     1      -9.264  18.646 -17.155  1.00  0.00    -0.379 N 
HETATM   11  C3  UNL     1      -9.245  18.811 -15.810  1.00  0.00     0.085 C 
HETATM   12  C5  UNL     1      -8.327  17.573 -17.132  1.00  0.00     0.125 C 
HETATM   13  C4  UNL     1      -8.881  17.295 -15.740  1.00  0.00     0.045 C 
HETATM   14  C7  UNL     1     -11.440  18.252 -17.995  1.00  0.00     0.068 C 
BRANCH  11  15
HETATM   15  C2  UNL     1     -10.407  19.006 -14.912  1.00  0.00     0.021 C 
HETATM   16  C1  UNL     1     -10.674  17.845 -13.982  1.00  0.00     0.007 C 
ENDBRANCH  11  15
ENDBRANCH   8   9
BRANCH   8  17
HETATM   17  C29 UNL     1      -9.795  20.304 -20.267  1.00  0.00    -0.018 C 
HETATM   18  C30 UNL     1      -8.411  19.707 -20.532  1.00  0.00     0.019 C 
HETATM   19  C31 UNL     1     -10.698  19.339 -21.079  1.00  0.00     0.019 C 
HETATM   20  C32 UNL     1      -9.924  21.591 -20.956  1.00  0.00     0.019 C 
ENDBRANCH   8  17
ENDBRANCH   7   8
BRANCH   7  21
HETATM   21  O1  UNL     1     -10.573  22.331 -17.990  1.00  0.00    -0.346 OA
ATOM     22  H1  UNL     1     -11.036  22.624 -17.214  1.00  0.00     0.219 HD
ENDBRANCH   7  21
ENDBRANCH   1   7
BRANCH   6  23
HETATM   23  C21 UNL     1     -13.560  21.713 -16.229  1.00  0.00     0.242 C 
HETATM   24  O3  UNL     1     -12.589  22.250 -15.716  1.00  0.00    -0.271 OA
HETATM   25  N5  UNL     1     -14.792  21.791 -15.464  1.00  0.00    -0.354 N 
ATOM     26  H5  UNL     1     -15.628  21.358 -15.855  1.00  0.00     0.162 HD
BRANCH  25  27
HETATM   27  C22 UNL     1     -14.902  22.436 -14.199  1.00  0.00     0.088 C 
BRANCH  27  28
HETATM   28  C23 UNL     1     -16.080  23.358 -14.166  1.00  0.00     0.034 C 
BRANCH  28  29
HETATM   29  C24 UNL     1     -16.160  24.170 -12.906  1.00  0.00     0.101 C 
BRANCH  29  30
HETATM   30  C25 UNL     1     -17.342  25.054 -12.906  1.00  0.00     0.231 C 
HETATM   31  N6  UNL     1     -18.644  24.531 -13.070  1.00  0.00    -0.062 NA
HETATM   32  O4  UNL     1     -17.196  26.284 -12.757  1.00  0.00    -0.277 OA
ENDBRANCH  29  30
ENDBRANCH  28  29
ENDBRANCH  27  28
BRANCH  27  33
HETATM   33  C26 UNL     1     -15.141  21.436 -13.066  1.00  0.00     0.000 C 
HETATM   34  C27 UNL     1     -16.016  20.331 -13.678  1.00  0.00     0.011 C 
HETATM   35  C28 UNL     1     -13.792  20.876 -12.689  1.00  0.00     0.011 C 
ENDBRANCH  27  33
ENDBRANCH  25  27
ENDBRANCH   6  23
BRANCH   4  36
HETATM   36  C12 UNL     1     -16.286  23.199 -18.522  1.00  0.00     0.136 C 
BRANCH  36  37
HETATM   37  O2  UNL     1     -17.102  22.654 -17.653  1.00  0.00    -0.348 OA
ATOM     38  H2  UNL     1     -17.870  23.178 -17.458  1.00  0.00     0.219 HD
ENDBRANCH  36  37
BRANCH  36  39
HETATM   39  C13 UNL     1     -16.855  24.394 -19.144  1.00  0.00     0.151 C 
BRANCH  39  40
HETATM   40  C14 UNL     1     -18.099  24.841 -18.490  1.00  0.00     0.037 C 
BRANCH  40  41
HETATM   41  C15 UNL     1     -18.042  26.187 -17.802  1.00  0.00    -0.020 C 
HETATM   42  C16 UNL     1     -18.781  27.272 -18.556  1.00  0.00     0.009 C 
HETATM   43  C17 UNL     1     -18.268  26.191 -16.339  1.00  0.00     0.009 C 
ENDBRANCH  40  41
ENDBRANCH  39  40
BRANCH  39  44
HETATM   44  N4  UNL     1     -16.891  24.313 -20.584  1.00  0.00    -0.414 N 
HETATM   45  C18 UNL     1     -16.818  25.529 -21.304  1.00  0.00     0.140 C 
ATOM     46  H4  UNL     1     -16.966  23.416 -21.064  1.00  0.00     0.153 HD
ENDBRANCH  39  44
ENDBRANCH  36  39
ENDBRANCH   4  36
TORSDOF 18
ENDMDL
MODEL 3
REMARK VINA RESULT: -8.720409492      0.958      1.366
REMARK  18 active torsions:
REMARK  status: ('A' for Active; 'I' for Inactive)
REMARK    1  A    between atoms: C2_2  and  C3_3 
REMARK    2  A    between atoms: C6_7  and  C8_9 
REMARK    3  A    between atoms: C8_9  and  C9_10 
REMARK    4  A    between atoms: C8_9  and  C29_43 
REMARK    5  A    between atoms: C9_10  and  O1_11 
REMARK    6  A    between atoms: C9_10  and  N2_13 
REMARK    7  A    between atoms: N3_16  and  C12_17 
REMARK    8  A    between atoms: C12_17  and  O2_18 
REMARK    9  A    between atoms: C12_17  and  C13_20 
REMARK   10  A    between atoms: C13_20  and  C14_21 
REMARK   11  A    between atoms: C13_20  and  N4_25 
REMARK   12  A    between atoms: C14_21  and  C15_22 
REMARK   13  A    between atoms: C20_29  and  C21_30 
REMARK       I    between atoms: C21_30  and  N5_32 
REMARK   14  A    between atoms: N5_32  and  C22_34 
REMARK   15  A    between atoms: C22_34  and  C23_35 
REMARK   16  A    between atoms: C22_34  and  C26_40 
REMARK   17  A    between atoms: C23_35  and  C24_36 
REMARK   18  A    between atoms: C24_36  and  C25_37 
ROOT
HETATM    1  N2  UNL     1     -11.927  20.718 -18.184  1.00  0.00    -0.345 N 
HETATM    2  C10 UNL     1     -12.430  21.268 -19.472  1.00  0.00     0.146 C 
HETATM    3  C11 UNL     1     -13.236  22.501 -19.115  1.00  0.00     0.144 C 
HETATM    4  N3  UNL     1     -14.419  22.034 -18.459  1.00  0.00    -0.360 N 
HETATM    5  C19 UNL     1     -14.362  20.698 -17.869  1.00  0.00     0.159 C 
HETATM    6  C20 UNL     1     -12.966  20.457 -17.258  1.00  0.00     0.196 C 
ENDROOT
BRANCH   1   7
HETATM    7  C9  UNL     1     -10.560  20.511 -18.134  1.00  0.00     0.147 C 
BRANCH   7   8
HETATM    8  C8  UNL     1      -9.575  19.479 -18.406  1.00  0.00     0.022 C 
BRANCH   8   9
HETATM    9  C6  UNL     1      -9.526  18.249 -17.634  1.00  0.00     0.015 C 
HETATM   10  N1  UNL     1      -8.780  18.173 -16.508  1.00  0.00    -0.379 N 
HETATM   11  C3  UNL     1      -8.892  18.514 -15.201  1.00  0.00     0.085 C 
HETATM   12  C5  UNL     1      -7.785  17.184 -16.261  1.00  0.00     0.125 C 
HETATM   13  C4  UNL     1      -8.444  17.052 -14.894  1.00  0.00     0.045 C 
HETATM   14  C7  UNL     1     -10.843  17.513 -17.459  1.00  0.00     0.068 C 
BRANCH  11  15
HETATM   15  C2  UNL     1     -10.141  18.740 -14.436  1.00  0.00     0.021 C 
HETATM   16  C1  UNL     1     -10.702  17.497 -13.783  1.00  0.00     0.007 C 
ENDBRANCH  11  15
ENDBRANCH   8   9
BRANCH   8  17
HETATM   17  C29 UNL     1      -9.378  19.322 -19.901  1.00  0.00    -0.018 C 
HETATM   18  C30 UNL     1      -9.062  20.680 -20.534  1.00  0.00     0.019 C 
HETATM   19  C31 UNL     1      -8.083  18.531 -20.224  1.00  0.00     0.019 C 
HETATM   20  C32 UNL     1     -10.423  18.642 -20.672  1.00  0.00     0.019 C 
ENDBRANCH   8  17
ENDBRANCH   7   8
BRANCH   7  21
HETATM   21  O1  UNL     1      -9.942  21.610 -17.692  1.00  0.00    -0.346 OA
ATOM     22  H1  UNL     1     -10.525  22.092 -17.117  1.00  0.00     0.219 HD
ENDBRANCH   7  21
ENDBRANCH   1   7
BRANCH   6  23
HETATM   23  C21 UNL     1     -13.010  21.145 -15.980  1.00  0.00     0.242 C 
HETATM   24  O3  UNL     1     -12.020  21.591 -15.418  1.00  0.00    -0.271 OA
HETATM   25  N5  UNL     1     -14.266  21.341 -15.278  1.00  0.00    -0.354 N 
ATOM     26  H5  UNL     1     -15.118  20.987 -15.712  1.00  0.00     0.162 HD
BRANCH  25  27
HETATM   27  C22 UNL     1     -14.378  22.000 -14.021  1.00  0.00     0.088 C 
BRANCH  27  28
HETATM   28  C23 UNL     1     -14.984  23.360 -14.178  1.00  0.00     0.034 C 
BRANCH  28  29
HETATM   29  C24 UNL     1     -16.128  23.609 -13.238  1.00  0.00     0.101 C 
BRANCH  29  30
HETATM   30  C25 UNL     1     -17.384  23.865 -13.972  1.00  0.00     0.231 C 
HETATM   31  N6  UNL     1     -17.508  23.542 -15.340  1.00  0.00    -0.062 NA
HETATM   32  O4  UNL     1     -18.355  24.375 -13.377  1.00  0.00    -0.277 OA
ENDBRANCH  29  30
ENDBRANCH  28  29
ENDBRANCH  27  28
BRANCH  27  33
HETATM   33  C26 UNL     1     -15.311  21.252 -13.066  1.00  0.00     0.000 C 
HETATM   34  C27 UNL     1     -16.103  20.278 -13.951  1.00  0.00     0.011 C 
HETATM   35  C28 UNL     1     -14.429  20.483 -12.113  1.00  0.00     0.011 C 
ENDBRANCH  27  33
ENDBRANCH  25  27
ENDBRANCH   6  23
BRANCH   4  36
HETATM   36  C12 UNL     1     -15.588  22.760 -18.354  1.00  0.00     0.136 C 
BRANCH  36  37
HETATM   37  O2  UNL     1     -16.541  22.152 -17.693  1.00  0.00    -0.348 OA
ATOM     38  H2  UNL     1     -16.287  21.853 -16.828  1.00  0.00     0.219 HD
ENDBRANCH  36  37
BRANCH  36  39
HETATM   39  C13 UNL     1     -15.999  24.080 -18.832  1.00  0.00     0.151 C 
BRANCH  39  40
HETATM   40  C14 UNL     1     -16.074  24.158 -20.303  1.00  0.00     0.037 C 
BRANCH  40  41
HETATM   41  C15 UNL     1     -17.178  25.025 -20.867  1.00  0.00    -0.020 C 
HETATM   42  C16 UNL     1     -18.203  25.431 -19.829  1.00  0.00     0.009 C 
HETATM   43  C17 UNL     1     -16.762  26.113 -21.780  1.00  0.00     0.009 C 
ENDBRANCH  40  41
ENDBRANCH  39  40
BRANCH  39  44
HETATM   44  N4  UNL     1     -15.296  25.157 -18.177  1.00  0.00    -0.414 N 
HETATM   45  C18 UNL     1     -14.271  25.802 -18.910  1.00  0.00     0.140 C 
ATOM     46  H4  UNL     1     -15.528  25.442 -17.226  1.00  0.00     0.153 HD
ENDBRANCH  39  44
ENDBRANCH  36  39
ENDBRANCH   4  36
TORSDOF 18
ENDMDL
MODEL 4
REMARK VINA RESULT: -8.445857138      2.381      9.890
REMARK  18 active torsions:
REMARK  status: ('A' for Active; 'I' for Inactive)
REMARK    1  A    between atoms: C2_2  and  C3_3 
REMARK    2  A    between atoms: C6_7  and  C8_9 
REMARK    3  A    between atoms: C8_9  and  C9_10 
REMARK    4  A    between atoms: C8_9  and  C29_43 
REMARK    5  A    between atoms: C9_10  and  O1_11 
REMARK    6  A    between atoms: C9_10  and  N2_13 
REMARK    7  A    between atoms: N3_16  and  C12_17 
REMARK    8  A    between atoms: C12_17  and  O2_18 
REMARK    9  A    between atoms: C12_17  and  C13_20 
REMARK   10  A    between atoms: C13_20  and  C14_21 
REMARK   11  A    between atoms: C13_20  and  N4_25 
REMARK   12  A    between atoms: C14_21  and  C15_22 
REMARK   13  A    between atoms: C20_29  and  C21_30 
REMARK       I    between atoms: C21_30  and  N5_32 
REMARK   14  A    between atoms: N5_32  and  C22_34 
REMARK   15  A    between atoms: C22_34  and  C23_35 
REMARK   16  A    between atoms: C22_34  and  C26_40 
REMARK   17  A    between atoms: C23_35  and  C24_36 
REMARK   18  A    between atoms: C24_36  and  C25_37 
ROOT
HETATM    1  N2  UNL     1     -11.968  19.784 -16.006  1.00  0.00    -0.345 N 
HETATM    2  C10 UNL     1     -11.714  18.806 -14.913  1.00  0.00     0.146 C 
HETATM    3  C11 UNL     1     -10.267  18.380 -15.058  1.00  0.00     0.144 C 
HETATM    4  N3  UNL     1     -10.198  17.586 -16.247  1.00  0.00    -0.360 N 
HETATM    5  C19 UNL     1     -11.266  17.772 -17.227  1.00  0.00     0.159 C 
HETATM    6  C20 UNL     1     -11.665  19.260 -17.287  1.00  0.00     0.196 C 
ENDROOT
BRANCH   1   7
HETATM    7  C9  UNL     1     -12.494  20.995 -15.594  1.00  0.00     0.147 C 
BRANCH   7   8
HETATM    8  C8  UNL     1     -13.777  21.631 -15.353  1.00  0.00     0.022 C 
BRANCH   8   9
HETATM    9  C6  UNL     1     -14.867  21.537 -16.309  1.00  0.00     0.015 C 
HETATM   10  N1  UNL     1     -15.323  22.642 -16.944  1.00  0.00    -0.379 N 
HETATM   11  C3  UNL     1     -14.983  23.398 -18.016  1.00  0.00     0.085 C 
HETATM   12  C5  UNL     1     -16.683  23.064 -16.957  1.00  0.00     0.125 C 
HETATM   13  C4  UNL     1     -16.473  23.248 -18.455  1.00  0.00     0.045 C 
HETATM   14  C7  UNL     1     -14.830  20.348 -17.254  1.00  0.00     0.068 C 
BRANCH  11  15
HETATM   15  C2  UNL     1     -14.159  22.992 -19.178  1.00  0.00     0.021 C 
HETATM   16  C1  UNL     1     -14.690  23.468 -20.511  1.00  0.00     0.007 C 
ENDBRANCH  11  15
ENDBRANCH   8   9
BRANCH   8  17
HETATM   17  C29 UNL     1     -14.169  21.485 -13.896  1.00  0.00    -0.018 C 
HETATM   18  C30 UNL     1     -14.635  22.833 -13.339  1.00  0.00     0.019 C 
HETATM   19  C31 UNL     1     -15.457  20.634 -13.736  1.00  0.00     0.019 C 
HETATM   20  C32 UNL     1     -13.208  20.870 -12.975  1.00  0.00     0.019 C 
ENDBRANCH   8  17
ENDBRANCH   7   8
BRANCH   7  21
HETATM   21  O1  UNL     1     -11.511  21.862 -15.335  1.00  0.00    -0.346 OA
ATOM     22  H1  UNL     1     -10.969  21.966 -16.107  1.00  0.00     0.219 HD
ENDBRANCH   7  21
ENDBRANCH   1   7
BRANCH   6  23
HETATM   23  C21 UNL     1     -10.642  19.873 -18.115  1.00  0.00     0.242 C 
HETATM   24  O3  UNL     1     -10.223  21.009 -17.942  1.00  0.00    -0.271 OA
HETATM   25  N5  UNL     1     -10.049  19.154 -19.228  1.00  0.00    -0.354 N 
ATOM     26  H5  UNL     1     -10.368  18.202 -19.408  1.00  0.00     0.162 HD
BRANCH  25  27
HETATM   27  C22 UNL     1      -9.048  19.697 -20.082  1.00  0.00     0.088 C 
BRANCH  27  28
HETATM   28  C23 UNL     1      -8.013  18.670 -20.420  1.00  0.00     0.034 C 
BRANCH  28  29
HETATM   29  C24 UNL     1      -6.802  18.738 -19.536  1.00  0.00     0.101 C 
BRANCH  29  30
HETATM   30  C25 UNL     1      -6.132  17.426 -19.434  1.00  0.00     0.231 C 
HETATM   31  N6  UNL     1      -4.769  17.329 -19.078  1.00  0.00    -0.062 NA
HETATM   32  O4  UNL     1      -6.776  16.383 -19.666  1.00  0.00    -0.277 OA
ENDBRANCH  29  30
ENDBRANCH  28  29
ENDBRANCH  27  28
BRANCH  27  33
HETATM   33  C26 UNL     1      -9.626  20.143 -21.427  1.00  0.00     0.000 C 
HETATM   34  C27 UNL     1      -9.997  21.622 -21.238  1.00  0.00     0.011 C 
HETATM   35  C28 UNL     1      -8.515  20.015 -22.440  1.00  0.00     0.011 C 
ENDBRANCH  27  33
ENDBRANCH  25  27
ENDBRANCH   6  23
BRANCH   4  36
HETATM   36  C12 UNL     1      -9.198  16.673 -16.514  1.00  0.00     0.136 C 
BRANCH  36  37
HETATM   37  O2  UNL     1      -9.016  16.433 -17.790  1.00  0.00    -0.348 OA
ATOM     38  H2  UNL     1      -9.240  15.549 -18.057  1.00  0.00     0.219 HD
ENDBRANCH  36  37
BRANCH  36  39
HETATM   39  C13 UNL     1      -8.287  15.902 -15.670  1.00  0.00     0.151 C 
BRANCH  39  40
HETATM   40  C14 UNL     1      -7.281  15.154 -16.448  1.00  0.00     0.037 C 
BRANCH  40  41
HETATM   41  C15 UNL     1      -5.837  15.380 -16.057  1.00  0.00    -0.020 C 
HETATM   42  C16 UNL     1      -5.577  16.774 -15.526  1.00  0.00     0.009 C 
HETATM   43  C17 UNL     1      -5.184  14.296 -15.289  1.00  0.00     0.009 C 
ENDBRANCH  40  41
ENDBRANCH  39  40
BRANCH  39  44
HETATM   44  N4  UNL     1      -8.972  15.157 -14.641  1.00  0.00    -0.414 N 
HETATM   45  C18 UNL     1      -8.363  15.104 -13.364  1.00  0.00     0.140 C 
ATOM     46  H4  UNL     1      -9.858  14.687 -14.826  1.00  0.00     0.153 HD
ENDBRANCH  39  44
ENDBRANCH  36  39
ENDBRANCH   4  36
TORSDOF 18
ENDMDL
MODEL 5
REMARK VINA RESULT: -8.426606082      2.162      9.829
REMARK  18 active torsions:
REMARK  status: ('A' for Active; 'I' for Inactive)
REMARK    1  A    between atoms: C2_2  and  C3_3 
REMARK    2  A    between atoms: C6_7  and  C8_9 
REMARK    3  A    between atoms: C8_9  and  C9_10 
REMARK    4  A    between atoms: C8_9  and  C29_43 
REMARK    5  A    between atoms: C9_10  and  O1_11 
REMARK    6  A    between atoms: C9_10  and  N2_13 
REMARK    7  A    between atoms: N3_16  and  C12_17 
REMARK    8  A    between atoms: C12_17  and  O2_18 
REMARK    9  A    between atoms: C12_17  and  C13_20 
REMARK   10  A    between atoms: C13_20  and  C14_21 
REMARK   11  A    between atoms: C13_20  and  N4_25 
REMARK   12  A    between atoms: C14_21  and  C15_22 
REMARK   13  A    between atoms: C20_29  and  C21_30 
REMARK       I    between atoms: C21_30  and  N5_32 
REMARK   14  A    between atoms: N5_32  and  C22_34 
REMARK   15  A    between atoms: C22_34  and  C23_35 
REMARK   16  A    between atoms: C22_34  and  C26_40 
REMARK   17  A    between atoms: C23_35  and  C24_36 
REMARK   18  A    between atoms: C24_36  and  C25_37 
ROOT
HETATM    1  N2  UNL     1     -11.909  20.137 -16.197  1.00  0.00    -0.345 N 
HETATM    2  C10 UNL     1     -11.587  19.291 -15.016  1.00  0.00     0.146 C 
HETATM    3  C11 UNL     1     -10.115  18.950 -15.132  1.00  0.00     0.144 C 
HETATM    4  N3  UNL     1      -9.996  18.050 -16.238  1.00  0.00    -0.360 N 
HETATM    5  C19 UNL     1     -11.076  18.067 -17.222  1.00  0.00     0.159 C 
HETATM    6  C20 UNL     1     -11.575  19.512 -17.423  1.00  0.00     0.196 C 
ENDROOT
BRANCH   1   7
HETATM    7  C9  UNL     1     -12.515  21.345 -15.900  1.00  0.00     0.147 C 
BRANCH   7   8
HETATM    8  C8  UNL     1     -13.834  21.904 -15.659  1.00  0.00     0.022 C 
BRANCH   8   9
HETATM    9  C6  UNL     1     -14.908  21.771 -16.629  1.00  0.00     0.015 C 
HETATM   10  N1  UNL     1     -15.446  22.866 -17.213  1.00  0.00    -0.379 N 
HETATM   11  C3  UNL     1     -15.162  23.699 -18.244  1.00  0.00     0.085 C 
HETATM   12  C5  UNL     1     -16.836  23.179 -17.219  1.00  0.00     0.125 C 
HETATM   13  C4  UNL     1     -16.632  23.453 -18.704  1.00  0.00     0.045 C 
HETATM   14  C7  UNL     1     -14.771  20.637 -17.630  1.00  0.00     0.068 C 
BRANCH  11  15
HETATM   15  C2  UNL     1     -14.302  23.417 -19.416  1.00  0.00     0.021 C 
HETATM   16  C1  UNL     1     -14.921  23.792 -20.744  1.00  0.00     0.007 C 
ENDBRANCH  11  15
ENDBRANCH   8   9
BRANCH   8  17
HETATM   17  C29 UNL     1     -14.232  21.704 -14.210  1.00  0.00    -0.018 C 
HETATM   18  C30 UNL     1     -14.798  23.005 -13.635  1.00  0.00     0.019 C 
HETATM   19  C31 UNL     1     -15.457  20.760 -14.081  1.00  0.00     0.019 C 
HETATM   20  C32 UNL     1     -13.240  21.142 -13.288  1.00  0.00     0.019 C 
ENDBRANCH   8  17
ENDBRANCH   7   8
BRANCH   7  21
HETATM   21  O1  UNL     1     -11.598  22.312 -15.805  1.00  0.00    -0.346 OA
ATOM     22  H1  UNL     1     -11.151  22.407 -16.637  1.00  0.00     0.219 HD
ENDBRANCH   7  21
ENDBRANCH   1   7
BRANCH   6  23
HETATM   23  C21 UNL     1     -10.599  20.109 -18.317  1.00  0.00     0.242 C 
HETATM   24  O3  UNL     1     -10.475  21.315 -18.475  1.00  0.00    -0.271 OA
HETATM   25  N5  UNL     1      -9.694  19.282 -19.096  1.00  0.00    -0.354 N 
ATOM     26  H5  UNL     1      -9.761  18.270 -18.993  1.00  0.00     0.162 HD
BRANCH  25  27
HETATM   27  C22 UNL     1      -8.719  19.801 -19.994  1.00  0.00     0.088 C 
BRANCH  27  28
HETATM   28  C23 UNL     1      -7.337  19.406 -19.575  1.00  0.00     0.034 C 
BRANCH  28  29
HETATM   29  C24 UNL     1      -6.867  18.132 -20.214  1.00  0.00     0.101 C 
BRANCH  29  30
HETATM   30  C25 UNL     1      -5.963  17.380 -19.321  1.00  0.00     0.231 C 
HETATM   31  N6  UNL     1      -6.222  16.033 -18.987  1.00  0.00    -0.062 NA
HETATM   32  O4  UNL     1      -4.952  17.939 -18.851  1.00  0.00    -0.277 OA
ENDBRANCH  29  30
ENDBRANCH  28  29
ENDBRANCH  27  28
BRANCH  27  33
HETATM   33  C26 UNL     1      -8.887  19.238 -21.407  1.00  0.00     0.000 C 
HETATM   34  C27 UNL     1     -10.293  18.621 -21.433  1.00  0.00     0.011 C 
HETATM   35  C28 UNL     1      -8.821  20.413 -22.352  1.00  0.00     0.011 C 
ENDBRANCH  27  33
ENDBRANCH  25  27
ENDBRANCH   6  23
BRANCH   4  36
HETATM   36  C12 UNL     1      -8.937  17.184 -16.425  1.00  0.00     0.136 C 
BRANCH  36  37
HETATM   37  O2  UNL     1      -8.945  16.566 -17.580  1.00  0.00    -0.348 OA
ATOM     38  H2  UNL     1      -8.308  16.896 -18.204  1.00  0.00     0.219 HD
ENDBRANCH  36  37
BRANCH  36  39
HETATM   39  C13 UNL     1      -7.794  16.800 -15.598  1.00  0.00     0.151 C 
BRANCH  39  40
HETATM   40  C14 UNL     1      -8.055  16.953 -14.154  1.00  0.00     0.037 C 
BRANCH  40  41
HETATM   41  C15 UNL     1      -8.576  15.726 -13.439  1.00  0.00    -0.020 C 
HETATM   42  C16 UNL     1     -10.081  15.582 -13.525  1.00  0.00     0.009 C 
HETATM   43  C17 UNL     1      -7.824  14.469 -13.653  1.00  0.00     0.009 C 
ENDBRANCH  40  41
ENDBRANCH  39  40
BRANCH  39  44
HETATM   44  N4  UNL     1      -6.547  17.346 -16.076  1.00  0.00    -0.414 N 
HETATM   45  C18 UNL     1      -5.354  16.761 -15.589  1.00  0.00     0.140 C 
ATOM     46  H4  UNL     1      -6.526  18.121 -16.739  1.00  0.00     0.153 HD
ENDBRANCH  39  44
ENDBRANCH  36  39
ENDBRANCH   4  36
TORSDOF 18
ENDMDL
