MODEL 1
REMARK VINA RESULT: -9.097534068      0.000      0.000
REMARK  18 active torsions:
REMARK  status: ('A' for Active; 'I' for Inactive)
REMARK    1  A    between atoms: C2_2  and  C4_4 
REMARK    2  A    between atoms: C4_4  and  C5_5 
REMARK    3  A    between atoms: C5_5  and  N1_6 
REMARK    4  A    between atoms: C5_5  and  C20_28 
REMARK       I    between atoms: N1_6  and  C6_8 
REMARK    5  A    between atoms: C6_8  and  C7_10 
REMARK    6  A    between atoms: C7_10  and  C8_11 
REMARK    7  A    between atoms: C7_10  and  N2_18 
REMARK    8  A    between atoms: C8_11  and  C9_12 
REMARK    9  A    between atoms: N2_18  and  C15_20 
REMARK   10  A    between atoms: C15_20  and  O2_21 
REMARK   11  A    between atoms: C16_23  and  N3_24 
REMARK       I    between atoms: C20_28  and  N4_30 
REMARK   12  A    between atoms: N4_30  and  C21_32 
REMARK   13  A    between atoms: C21_32  and  C22_33 
REMARK   14  A    between atoms: C21_32  and  C27_40 
REMARK   15  A    between atoms: C22_33  and  O5_35 
REMARK   16  A    between atoms: O5_35  and  C23_36 
REMARK   17  A    between atoms: C27_40  and  O7_42 
REMARK   18  A    between atoms: O7_42  and  C28_43 
ROOT
HETATM    1  C5  UNL     1     -14.565  21.795 -15.585  1.00  0.00     0.177 C 
ENDROOT
BRANCH   1   2
HETATM    2  C4  UNL     1     -14.261  22.347 -14.221  1.00  0.00     0.038 C 
BRANCH   2   3
HETATM    3  C2  UNL     1     -14.558  21.636 -12.980  1.00  0.00    -0.020 C 
HETATM    4  C1  UNL     1     -15.654  20.593 -13.156  1.00  0.00     0.009 C 
HETATM    5  C3  UNL     1     -13.327  20.825 -12.501  1.00  0.00     0.009 C 
ENDBRANCH   2   3
ENDBRANCH   1   2
BRANCH   1   6
HETATM    6  N1  UNL     1     -13.264  21.307 -16.059  1.00  0.00    -0.346 N 
HETATM    7  C6  UNL     1     -13.158  20.195 -16.917  1.00  0.00     0.244 C 
HETATM    8  O1  UNL     1     -14.200  19.711 -17.377  1.00  0.00    -0.271 OA
ATOM      9  H1  UNL     1     -12.414  21.785 -15.759  1.00  0.00     0.163 HD
BRANCH   7  10
HETATM   10  C7  UNL     1     -11.802  19.576 -17.249  1.00  0.00     0.199 C 
BRANCH  10  11
HETATM   11  C8  UNL     1     -11.596  18.536 -16.259  1.00  0.00     0.010 C 
BRANCH  11  12
HETATM   12  C9  UNL     1     -10.616  18.589 -15.157  1.00  0.00    -0.081 C 
HETATM   13  C10 UNL     1     -10.616  17.437 -14.225  1.00  0.00     0.034 C 
HETATM   14  C11 UNL     1      -9.370  16.802 -13.812  1.00  0.00     0.004 C 
HETATM   15  C12 UNL     1      -8.079  17.466 -14.238  1.00  0.00     0.001 C 
HETATM   16  C13 UNL     1      -8.321  18.972 -14.383  1.00  0.00     0.004 C 
HETATM   17  C14 UNL     1      -9.251  19.093 -15.573  1.00  0.00     0.034 C 
ENDBRANCH  11  12
ENDBRANCH  10  11
BRANCH  10  18
HETATM   18  N2  UNL     1     -11.753  19.319 -18.637  1.00  0.00    -0.353 N 
ATOM     19  H2  UNL     1     -11.827  18.324 -18.847  1.00  0.00     0.162 HD
BRANCH  18  20
HETATM   20  C15 UNL     1     -11.631  20.087 -19.783  1.00  0.00     0.160 C 
HETATM   21  C16 UNL     1     -10.587  20.281 -20.764  1.00  0.00     0.256 C 
BRANCH  20  22
HETATM   22  O2  UNL     1     -12.676  20.845 -20.100  1.00  0.00    -0.345 OA
ATOM     23  H2  UNL     1     -12.617  21.325 -20.918  1.00  0.00     0.219 HD
ENDBRANCH  20  22
BRANCH  21  24
HETATM   24  N3  UNL     1      -9.370  19.599 -20.799  1.00  0.00    -0.055 N 
HETATM   25  C17 UNL     1      -8.657  20.060 -22.020  1.00  0.00     0.277 C 
HETATM   26  C18 UNL     1      -8.531  20.159 -19.683  1.00  0.00     0.277 C 
HETATM   27  C19 UNL     1      -9.263  18.208 -20.703  1.00  0.00     0.277 C 
ENDBRANCH  21  24
ENDBRANCH  18  20
ENDBRANCH  10  18
ENDBRANCH   7  10
ENDBRANCH   1   6
BRANCH   1  28
HETATM   28  C20 UNL     1     -15.164  22.818 -16.517  1.00  0.00     0.241 C 
HETATM   29  O3  UNL     1     -14.593  23.248 -17.532  1.00  0.00    -0.271 OA
HETATM   30  N4  UNL     1     -16.432  23.258 -16.157  1.00  0.00    -0.337 N 
ATOM     31  H4  UNL     1     -16.765  22.790 -15.315  1.00  0.00     0.163 HD
BRANCH  30  32
HETATM   32  C21 UNL     1     -17.389  24.186 -16.650  1.00  0.00     0.285 C 
BRANCH  32  33
HETATM   33  C22 UNL     1     -18.131  23.528 -17.801  1.00  0.00     0.292 C 
HETATM   34  O4  UNL     1     -19.045  22.709 -17.627  1.00  0.00    -0.262 OA
BRANCH  33  35
HETATM   35  O5  UNL     1     -17.770  23.887 -19.062  1.00  0.00    -0.314 OA
BRANCH  35  36
HETATM   36  C23 UNL     1     -16.965  24.949 -19.472  1.00  0.00     0.132 C 
HETATM   37  C24 UNL     1     -16.371  24.564 -20.915  1.00  0.00     0.032 C 
HETATM   38  C25 UNL     1     -16.763  25.945 -21.369  1.00  0.00     0.005 C 
HETATM   39  C26 UNL     1     -17.707  26.060 -20.172  1.00  0.00     0.032 C 
ENDBRANCH  35  36
ENDBRANCH  33  35
ENDBRANCH  32  33
BRANCH  32  40
HETATM   40  C27 UNL     1     -18.293  24.624 -15.567  1.00  0.00     0.292 C 
HETATM   41  O6  UNL     1     -19.257  25.350 -15.894  1.00  0.00    -0.262 OA
BRANCH  40  42
HETATM   42  O7  UNL     1     -18.130  24.277 -14.238  1.00  0.00    -0.309 OA
BRANCH  42  43
HETATM   43  C28 UNL     1     -17.855  25.183 -13.188  1.00  0.00     0.060 C 
HETATM   44  C29 UNL     1     -16.561  24.739 -12.548  1.00  0.00     0.045 C 
HETATM   45  C30 UNL     1     -18.920  25.023 -12.085  1.00  0.00     0.045 C 
HETATM   46  C31 UNL     1     -17.779  26.612 -13.614  1.00  0.00     0.045 C 
ENDBRANCH  42  43
ENDBRANCH  40  42
ENDBRANCH  32  40
ENDBRANCH  30  32
ENDBRANCH   1  28
TORSDOF 18
ENDMDL
MODEL 2
REMARK VINA RESULT: -9.077944489      1.846      4.671
REMARK  18 active torsions:
REMARK  status: ('A' for Active; 'I' for Inactive)
REMARK    1  A    between atoms: C2_2  and  C4_4 
REMARK    2  A    between atoms: C4_4  and  C5_5 
REMARK    3  A    between atoms: C5_5  and  N1_6 
REMARK    4  A    between atoms: C5_5  and  C20_28 
REMARK       I    between atoms: N1_6  and  C6_8 
REMARK    5  A    between atoms: C6_8  and  C7_10 
REMARK    6  A    between atoms: C7_10  and  C8_11 
REMARK    7  A    between atoms: C7_10  and  N2_18 
REMARK    8  A    between atoms: C8_11  and  C9_12 
REMARK    9  A    between atoms: N2_18  and  C15_20 
REMARK   10  A    between atoms: C15_20  and  O2_21 
REMARK   11  A    between atoms: C16_23  and  N3_24 
REMARK       I    between atoms: C20_28  and  N4_30 
REMARK   12  A    between atoms: N4_30  and  C21_32 
REMARK   13  A    between atoms: C21_32  and  C22_33 
REMARK   14  A    between atoms: C21_32  and  C27_40 
REMARK   15  A    between atoms: C22_33  and  O5_35 
REMARK   16  A    between atoms: O5_35  and  C23_36 
REMARK   17  A    between atoms: C27_40  and  O7_42 
REMARK   18  A    between atoms: O7_42  and  C28_43 
ROOT
HETATM    1  C5  UNL     1     -12.802  21.676 -16.973  1.00  0.00     0.177 C 
ENDROOT
BRANCH   1   2
HETATM    2  C4  UNL     1     -12.479  22.195 -18.346  1.00  0.00     0.038 C 
BRANCH   2   3
HETATM    3  C2  UNL     1     -12.537  21.372 -19.553  1.00  0.00    -0.020 C 
HETATM    4  C1  UNL     1     -13.659  21.797 -20.492  1.00  0.00     0.009 C 
HETATM    5  C3  UNL     1     -11.246  21.537 -20.394  1.00  0.00     0.009 C 
ENDBRANCH   2   3
ENDBRANCH   1   2
BRANCH   1   6
HETATM    6  N1  UNL     1     -11.897  20.531 -16.815  1.00  0.00    -0.346 N 
HETATM    7  C6  UNL     1     -10.584  20.687 -16.327  1.00  0.00     0.244 C 
HETATM    8  O1  UNL     1     -10.247  21.800 -15.904  1.00  0.00    -0.271 OA
ATOM      9  H1  UNL     1     -12.226  19.598 -17.064  1.00  0.00     0.163 HD
BRANCH   7  10
HETATM   10  C7  UNL     1      -9.589  19.530 -16.347  1.00  0.00     0.199 C 
BRANCH  10  11
HETATM   11  C8  UNL     1      -9.111  19.404 -14.983  1.00  0.00     0.010 C 
BRANCH  11  12
HETATM   12  C9  UNL     1      -8.705  18.143 -14.334  1.00  0.00    -0.081 C 
HETATM   13  C10 UNL     1      -9.796  17.321 -13.760  1.00  0.00     0.034 C 
HETATM   14  C11 UNL     1      -9.856  15.882 -13.989  1.00  0.00     0.004 C 
HETATM   15  C12 UNL     1      -8.679  15.242 -14.691  1.00  0.00     0.001 C 
HETATM   16  C13 UNL     1      -7.418  16.056 -14.386  1.00  0.00     0.004 C 
HETATM   17  C14 UNL     1      -7.641  17.378 -15.091  1.00  0.00     0.034 C 
ENDBRANCH  11  12
ENDBRANCH  10  11
BRANCH  10  18
HETATM   18  N2  UNL     1     -10.169  18.449 -17.048  1.00  0.00    -0.353 N 
ATOM     19  H2  UNL     1     -10.371  17.658 -16.436  1.00  0.00     0.162 HD
BRANCH  18  20
HETATM   20  C15 UNL     1     -10.530  18.200 -18.361  1.00  0.00     0.160 C 
HETATM   21  C16 UNL     1      -9.826  18.207 -19.623  1.00  0.00     0.256 C 
BRANCH  20  22
HETATM   22  O2  UNL     1     -11.805  17.886 -18.573  1.00  0.00    -0.345 OA
ATOM     23  H2  UNL     1     -12.256  18.384 -19.245  1.00  0.00     0.219 HD
ENDBRANCH  20  22
BRANCH  21  24
HETATM   24  N3  UNL     1      -8.456  18.422 -19.786  1.00  0.00    -0.055 N 
HETATM   25  C17 UNL     1      -7.762  17.307 -19.090  1.00  0.00     0.277 C 
HETATM   26  C18 UNL     1      -8.149  18.162 -21.237  1.00  0.00     0.277 C 
HETATM   27  C19 UNL     1      -7.822  19.627 -19.467  1.00  0.00     0.277 C 
ENDBRANCH  21  24
ENDBRANCH  18  20
ENDBRANCH  10  18
ENDBRANCH   7  10
ENDBRANCH   1   6
BRANCH   1  28
HETATM   28  C20 UNL     1     -14.249  21.286 -16.814  1.00  0.00     0.241 C 
HETATM   29  O3  UNL     1     -14.632  20.127 -16.586  1.00  0.00    -0.271 OA
HETATM   30  N4  UNL     1     -15.151  22.335 -16.941  1.00  0.00    -0.337 N 
ATOM     31  H4  UNL     1     -14.672  23.221 -17.103  1.00  0.00     0.163 HD
BRANCH  30  32
HETATM   32  C21 UNL     1     -16.561  22.504 -16.905  1.00  0.00     0.285 C 
BRANCH  32  33
HETATM   33  C22 UNL     1     -16.918  23.187 -15.596  1.00  0.00     0.292 C 
HETATM   34  O4  UNL     1     -18.074  23.538 -15.318  1.00  0.00    -0.262 OA
BRANCH  33  35
HETATM   35  O5  UNL     1     -15.913  23.391 -14.703  1.00  0.00    -0.314 OA
BRANCH  35  36
HETATM   36  C23 UNL     1     -15.708  22.784 -13.465  1.00  0.00     0.132 C 
HETATM   37  C24 UNL     1     -16.088  21.231 -13.630  1.00  0.00     0.032 C 
HETATM   38  C25 UNL     1     -14.800  20.910 -12.920  1.00  0.00     0.005 C 
HETATM   39  C26 UNL     1     -14.294  22.321 -13.223  1.00  0.00     0.032 C 
ENDBRANCH  35  36
ENDBRANCH  33  35
ENDBRANCH  32  33
BRANCH  32  40
HETATM   40  C27 UNL     1     -17.024  23.261 -18.085  1.00  0.00     0.292 C 
HETATM   41  O6  UNL     1     -18.260  23.394 -18.223  1.00  0.00    -0.262 OA
BRANCH  40  42
HETATM   42  O7  UNL     1     -16.177  23.818 -19.026  1.00  0.00    -0.309 OA
BRANCH  42  43
HETATM   43  C28 UNL     1     -15.935  25.202 -19.186  1.00  0.00     0.060 C 
HETATM   44  C29 UNL     1     -16.021  25.499 -20.664  1.00  0.00     0.045 C 
HETATM   45  C30 UNL     1     -14.474  25.511 -18.802  1.00  0.00     0.045 C 
HETATM   46  C31 UNL     1     -16.859  26.081 -18.408  1.00  0.00     0.045 C 
ENDBRANCH  42  43
ENDBRANCH  40  42
ENDBRANCH  32  40
ENDBRANCH  30  32
ENDBRANCH   1  28
TORSDOF 18
ENDMDL
MODEL 3
REMARK VINA RESULT: -9.046486522      1.207      1.823
REMARK  18 active torsions:
REMARK  status: ('A' for Active; 'I' for Inactive)
REMARK    1  A    between atoms: C2_2  and  C4_4 
REMARK    2  A    between atoms: C4_4  and  C5_5 
REMARK    3  A    between atoms: C5_5  and  N1_6 
REMARK    4  A    between atoms: C5_5  and  C20_28 
REMARK       I    between atoms: N1_6  and  C6_8 
REMARK    5  A    between atoms: C6_8  and  C7_10 
REMARK    6  A    between atoms: C7_10  and  C8_11 
REMARK    7  A    between atoms: C7_10  and  N2_18 
REMARK    8  A    between atoms: C8_11  and  C9_12 
REMARK    9  A    between atoms: N2_18  and  C15_20 
REMARK   10  A    between atoms: C15_20  and  O2_21 
REMARK   11  A    between atoms: C16_23  and  N3_24 
REMARK       I    between atoms: C20_28  and  N4_30 
REMARK   12  A    between atoms: N4_30  and  C21_32 
REMARK   13  A    between atoms: C21_32  and  C22_33 
REMARK   14  A    between atoms: C21_32  and  C27_40 
REMARK   15  A    between atoms: C22_33  and  O5_35 
REMARK   16  A    between atoms: O5_35  and  C23_36 
REMARK   17  A    between atoms: C27_40  and  O7_42 
REMARK   18  A    between atoms: O7_42  and  C28_43 
ROOT
HETATM    1  C5  UNL     1     -14.323  21.897 -15.738  1.00  0.00     0.177 C 
ENDROOT
BRANCH   1   2
HETATM    2  C4  UNL     1     -14.261  22.409 -14.327  1.00  0.00     0.038 C 
BRANCH   2   3
HETATM    3  C2  UNL     1     -14.723  21.646 -13.170  1.00  0.00    -0.020 C 
HETATM    4  C1  UNL     1     -15.761  20.595 -13.546  1.00  0.00     0.009 C 
HETATM    5  C3  UNL     1     -13.561  20.833 -12.546  1.00  0.00     0.009 C 
ENDBRANCH   2   3
ENDBRANCH   1   2
BRANCH   1   6
HETATM    6  N1  UNL     1     -12.912  21.751 -16.116  1.00  0.00    -0.346 N 
HETATM    7  C6  UNL     1     -12.429  20.581 -16.734  1.00  0.00     0.244 C 
HETATM    8  O1  UNL     1     -13.250  19.721 -17.079  1.00  0.00    -0.271 OA
ATOM      9  H1  UNL     1     -12.265  22.515 -15.925  1.00  0.00     0.163 HD
BRANCH   7  10
HETATM   10  C7  UNL     1     -10.934  20.357 -16.948  1.00  0.00     0.199 C 
BRANCH  10  11
HETATM   11  C8  UNL     1     -10.320  20.559 -15.649  1.00  0.00     0.010 C 
BRANCH  11  12
HETATM   12  C9  UNL     1      -9.909  19.487 -14.723  1.00  0.00    -0.081 C 
HETATM   13  C10 UNL     1     -10.959  18.513 -14.342  1.00  0.00     0.034 C 
HETATM   14  C11 UNL     1     -10.695  17.078 -14.348  1.00  0.00     0.004 C 
HETATM   15  C12 UNL     1      -9.269  16.638 -14.595  1.00  0.00     0.001 C 
HETATM   16  C13 UNL     1      -8.319  17.729 -14.094  1.00  0.00     0.004 C 
HETATM   17  C14 UNL     1      -8.552  18.895 -15.034  1.00  0.00     0.034 C 
ENDBRANCH  11  12
ENDBRANCH  10  11
BRANCH  10  18
HETATM   18  N2  UNL     1     -10.759  19.167 -17.689  1.00  0.00    -0.353 N 
ATOM     19  H2  UNL     1     -10.448  18.392 -17.105  1.00  0.00     0.162 HD
BRANCH  18  20
HETATM   20  C15 UNL     1     -10.908  18.796 -19.015  1.00  0.00     0.160 C 
HETATM   21  C16 UNL     1     -10.308  19.223 -20.259  1.00  0.00     0.256 C 
BRANCH  20  22
HETATM   22  O2  UNL     1     -11.795  17.837 -19.264  1.00  0.00    -0.345 OA
ATOM     23  H2  UNL     1     -12.365  17.973 -20.011  1.00  0.00     0.219 HD
ENDBRANCH  20  22
BRANCH  21  24
HETATM   24  N3  UNL     1      -9.282  20.162 -20.384  1.00  0.00    -0.055 N 
HETATM   25  C17 UNL     1      -8.082  19.574 -19.732  1.00  0.00     0.277 C 
HETATM   26  C18 UNL     1      -8.900  20.190 -21.840  1.00  0.00     0.277 C 
HETATM   27  C19 UNL     1      -9.409  21.498 -19.992  1.00  0.00     0.277 C 
ENDBRANCH  21  24
ENDBRANCH  18  20
ENDBRANCH  10  18
ENDBRANCH   7  10
ENDBRANCH   1   6
BRANCH   1  28
HETATM   28  C20 UNL     1     -15.071  22.818 -16.668  1.00  0.00     0.241 C 
HETATM   29  O3  UNL     1     -14.664  23.140 -17.797  1.00  0.00    -0.271 OA
HETATM   30  N4  UNL     1     -16.277  23.293 -16.169  1.00  0.00    -0.337 N 
ATOM     31  H4  UNL     1     -16.473  22.915 -15.243  1.00  0.00     0.163 HD
BRANCH  30  32
HETATM   32  C21 UNL     1     -17.311  24.165 -16.605  1.00  0.00     0.285 C 
BRANCH  32  33
HETATM   33  C22 UNL     1     -18.046  23.487 -17.748  1.00  0.00     0.292 C 
HETATM   34  O4  UNL     1     -18.973  22.684 -17.566  1.00  0.00    -0.262 OA
BRANCH  33  35
HETATM   35  O5  UNL     1     -17.664  23.808 -19.014  1.00  0.00    -0.314 OA
BRANCH  35  36
HETATM   36  C23 UNL     1     -16.964  24.930 -19.457  1.00  0.00     0.132 C 
HETATM   37  C24 UNL     1     -16.309  24.550 -20.875  1.00  0.00     0.032 C 
HETATM   38  C25 UNL     1     -16.832  25.865 -21.391  1.00  0.00     0.005 C 
HETATM   39  C26 UNL     1     -17.803  25.930 -20.212  1.00  0.00     0.032 C 
ENDBRANCH  35  36
ENDBRANCH  33  35
ENDBRANCH  32  33
BRANCH  32  40
HETATM   40  C27 UNL     1     -18.205  24.513 -15.482  1.00  0.00     0.292 C 
HETATM   41  O6  UNL     1     -17.953  23.989 -14.375  1.00  0.00    -0.262 OA
BRANCH  40  42
HETATM   42  O7  UNL     1     -19.282  25.373 -15.591  1.00  0.00    -0.309 OA
BRANCH  42  43
HETATM   43  C28 UNL     1     -19.210  26.783 -15.517  1.00  0.00     0.060 C 
HETATM   44  C29 UNL     1     -20.623  27.291 -15.362  1.00  0.00     0.045 C 
HETATM   45  C30 UNL     1     -18.734  27.340 -16.874  1.00  0.00     0.045 C 
HETATM   46  C31 UNL     1     -18.332  27.297 -14.424  1.00  0.00     0.045 C 
ENDBRANCH  42  43
ENDBRANCH  40  42
ENDBRANCH  32  40
ENDBRANCH  30  32
ENDBRANCH   1  28
TORSDOF 18
ENDMDL
MODEL 4
REMARK VINA RESULT: -8.926688893      2.335      5.658
REMARK  18 active torsions:
REMARK  status: ('A' for Active; 'I' for Inactive)
REMARK    1  A    between atoms: C2_2  and  C4_4 
REMARK    2  A    between atoms: C4_4  and  C5_5 
REMARK    3  A    between atoms: C5_5  and  N1_6 
REMARK    4  A    between atoms: C5_5  and  C20_28 
REMARK       I    between atoms: N1_6  and  C6_8 
REMARK    5  A    between atoms: C6_8  and  C7_10 
REMARK    6  A    between atoms: C7_10  and  C8_11 
REMARK    7  A    between atoms: C7_10  and  N2_18 
REMARK    8  A    between atoms: C8_11  and  C9_12 
REMARK    9  A    between atoms: N2_18  and  C15_20 
REMARK   10  A    between atoms: C15_20  and  O2_21 
REMARK   11  A    between atoms: C16_23  and  N3_24 
REMARK       I    between atoms: C20_28  and  N4_30 
REMARK   12  A    between atoms: N4_30  and  C21_32 
REMARK   13  A    between atoms: C21_32  and  C22_33 
REMARK   14  A    between atoms: C21_32  and  C27_40 
REMARK   15  A    between atoms: C22_33  and  O5_35 
REMARK   16  A    between atoms: O5_35  and  C23_36 
REMARK   17  A    between atoms: C27_40  and  O7_42 
REMARK   18  A    between atoms: O7_42  and  C28_43 
ROOT
HETATM    1  C5  UNL     1     -13.575  20.636 -16.934  1.00  0.00     0.177 C 
ENDROOT
BRANCH   1   2
HETATM    2  C4  UNL     1     -13.366  20.939 -18.391  1.00  0.00     0.038 C 
BRANCH   2   3
HETATM    3  C2  UNL     1     -12.573  22.067 -18.874  1.00  0.00    -0.020 C 
HETATM    4  C1  UNL     1     -11.207  22.146 -18.205  1.00  0.00     0.009 C 
HETATM    5  C3  UNL     1     -12.256  21.912 -20.382  1.00  0.00     0.009 C 
ENDBRANCH   2   3
ENDBRANCH   1   2
BRANCH   1   6
HETATM    6  N1  UNL     1     -12.963  19.312 -16.765  1.00  0.00    -0.346 N 
HETATM    7  C6  UNL     1     -11.764  19.137 -16.047  1.00  0.00     0.244 C 
HETATM    8  O1  UNL     1     -11.299  20.110 -15.440  1.00  0.00    -0.271 OA
ATOM      9  H1  UNL     1     -13.417  18.497 -17.179  1.00  0.00     0.163 HD
BRANCH   7  10
HETATM   10  C7  UNL     1     -11.033  17.796 -16.039  1.00  0.00     0.199 C 
BRANCH  10  11
HETATM   11  C8  UNL     1     -10.633  17.562 -17.413  1.00  0.00     0.010 C 
BRANCH  11  12
HETATM   12  C9  UNL     1     -10.136  18.593 -18.344  1.00  0.00    -0.081 C 
HETATM   13  C10 UNL     1      -8.716  18.987 -18.188  1.00  0.00     0.034 C 
HETATM   14  C11 UNL     1      -7.837  19.111 -19.345  1.00  0.00     0.004 C 
HETATM   15  C12 UNL     1      -8.470  18.986 -20.713  1.00  0.00     0.001 C 
HETATM   16  C13 UNL     1      -9.926  19.454 -20.631  1.00  0.00     0.004 C 
HETATM   17  C14 UNL     1     -10.610  18.412 -19.770  1.00  0.00     0.034 C 
ENDBRANCH  11  12
ENDBRANCH  10  11
BRANCH  10  18
HETATM   18  N2  UNL     1     -10.108  17.795 -14.971  1.00  0.00    -0.353 N 
ATOM     19  H2  UNL     1     -10.555  17.609 -14.074  1.00  0.00     0.162 HD
BRANCH  18  20
HETATM   20  C15 UNL     1      -8.742  17.985 -14.844  1.00  0.00     0.160 C 
HETATM   21  C16 UNL     1      -7.589  17.114 -14.904  1.00  0.00     0.256 C 
BRANCH  20  22
HETATM   22  O2  UNL     1      -8.338  19.229 -14.605  1.00  0.00    -0.345 OA
ATOM     23  H2  UNL     1      -7.747  19.347 -13.871  1.00  0.00     0.219 HD
ENDBRANCH  20  22
BRANCH  21  24
HETATM   24  N3  UNL     1      -7.617  15.753 -15.208  1.00  0.00    -0.055 N 
HETATM   25  C17 UNL     1      -7.695  15.647 -16.689  1.00  0.00     0.277 C 
HETATM   26  C18 UNL     1      -6.245  15.215 -14.900  1.00  0.00     0.277 C 
HETATM   27  C19 UNL     1      -8.522  14.853 -14.636  1.00  0.00     0.277 C 
ENDBRANCH  21  24
ENDBRANCH  18  20
ENDBRANCH  10  18
ENDBRANCH   7  10
ENDBRANCH   1   6
BRANCH   1  28
HETATM   28  C20 UNL     1     -15.027  20.649 -16.530  1.00  0.00     0.241 C 
HETATM   29  O3  UNL     1     -15.624  19.664 -16.064  1.00  0.00    -0.271 OA
HETATM   30  N4  UNL     1     -15.670  21.866 -16.716  1.00  0.00    -0.337 N 
ATOM     31  H4  UNL     1     -15.034  22.572 -17.083  1.00  0.00     0.163 HD
BRANCH  30  32
HETATM   32  C21 UNL     1     -16.978  22.389 -16.530  1.00  0.00     0.285 C 
BRANCH  32  33
HETATM   33  C22 UNL     1     -17.081  22.899 -15.103  1.00  0.00     0.292 C 
HETATM   34  O4  UNL     1     -17.563  24.006 -14.821  1.00  0.00    -0.262 OA
BRANCH  33  35
HETATM   35  O5  UNL     1     -16.638  22.079 -14.113  1.00  0.00    -0.314 OA
BRANCH  35  36
HETATM   36  C23 UNL     1     -15.644  22.314 -13.164  1.00  0.00     0.132 C 
HETATM   37  C24 UNL     1     -14.978  20.894 -12.813  1.00  0.00     0.032 C 
HETATM   38  C25 UNL     1     -13.637  21.560 -12.973  1.00  0.00     0.005 C 
HETATM   39  C26 UNL     1     -14.306  22.699 -13.744  1.00  0.00     0.032 C 
ENDBRANCH  35  36
ENDBRANCH  33  35
ENDBRANCH  32  33
BRANCH  32  40
HETATM   40  C27 UNL     1     -17.265  23.438 -17.530  1.00  0.00     0.292 C 
HETATM   41  O6  UNL     1     -18.351  23.352 -18.145  1.00  0.00    -0.262 OA
BRANCH  40  42
HETATM   42  O7  UNL     1     -16.410  24.488 -17.814  1.00  0.00    -0.309 OA
BRANCH  42  43
HETATM   43  C28 UNL     1     -15.870  24.776 -19.088  1.00  0.00     0.060 C 
HETATM   44  C29 UNL     1     -14.583  25.533 -18.863  1.00  0.00     0.045 C 
HETATM   45  C30 UNL     1     -16.794  25.770 -19.820  1.00  0.00     0.045 C 
HETATM   46  C31 UNL     1     -15.642  23.574 -19.945  1.00  0.00     0.045 C 
ENDBRANCH  42  43
ENDBRANCH  40  42
ENDBRANCH  32  40
ENDBRANCH  30  32
ENDBRANCH   1  28
TORSDOF 18
ENDMDL
MODEL 5
REMARK VINA RESULT: -8.859839200      1.926      4.968
REMARK  18 active torsions:
REMARK  status: ('A' for Active; 'I' for Inactive)
REMARK    1  A    between atoms: C2_2  and  C4_4 
REMARK    2  A    between atoms: C4_4  and  C5_5 
REMARK    3  A    between atoms: C5_5  and  N1_6 
REMARK    4  A    between atoms: C5_5  and  C20_28 
REMARK       I    between atoms: N1_6  and  C6_8 
REMARK    5  A    between atoms: C6_8  and  C7_10 
REMARK    6  A    between atoms: C7_10  and  C8_11 
REMARK    7  A    between atoms: C7_10  and  N2_18 
REMARK    8  A    between atoms: C8_11  and  C9_12 
REMARK    9  A    between atoms: N2_18  and  C15_20 
REMARK   10  A    between atoms: C15_20  and  O2_21 
REMARK   11  A    between atoms: C16_23  and  N3_24 
REMARK       I    between atoms: C20_28  and  N4_30 
REMARK   12  A    between atoms: N4_30  and  C21_32 
REMARK   13  A    between atoms: C21_32  and  C22_33 
REMARK   14  A    between atoms: C21_32  and  C27_40 
REMARK   15  A    between atoms: C22_33  and  O5_35 
REMARK   16  A    between atoms: O5_35  and  C23_36 
REMARK   17  A    between atoms: C27_40  and  O7_42 
REMARK   18  A    between atoms: O7_42  and  C28_43 
ROOT
HETATM    1  C5  UNL     1     -16.210  22.270 -15.278  1.00  0.00     0.177 C 
ENDROOT
BRANCH   1   2
HETATM    2  C4  UNL     1     -15.292  22.735 -14.183  1.00  0.00     0.038 C 
BRANCH   2   3
HETATM    3  C2  UNL     1     -14.931  21.913 -13.031  1.00  0.00    -0.020 C 
HETATM    4  C1  UNL     1     -15.691  20.593 -12.998  1.00  0.00     0.009 C 
HETATM    5  C3  UNL     1     -13.439  21.497 -13.096  1.00  0.00     0.009 C 
ENDBRANCH   2   3
ENDBRANCH   1   2
BRANCH   1   6
HETATM    6  N1  UNL     1     -15.302  21.999 -16.399  1.00  0.00    -0.346 N 
HETATM    7  C6  UNL     1     -14.883  20.691 -16.712  1.00  0.00     0.244 C 
HETATM    8  O1  UNL     1     -15.405  19.749 -16.103  1.00  0.00    -0.271 OA
ATOM      9  H1  UNL     1     -14.964  22.778 -16.965  1.00  0.00     0.163 HD
BRANCH   7  10
HETATM   10  C7  UNL     1     -13.793  20.435 -17.750  1.00  0.00     0.199 C 
BRANCH  10  11
HETATM   11  C8  UNL     1     -12.974  21.632 -17.759  1.00  0.00     0.010 C 
BRANCH  11  12
HETATM   12  C9  UNL     1     -11.879  21.910 -18.707  1.00  0.00    -0.081 C 
HETATM   13  C10 UNL     1     -10.505  21.845 -18.157  1.00  0.00     0.034 C 
HETATM   14  C11 UNL     1      -9.441  21.142 -18.866  1.00  0.00     0.004 C 
HETATM   15  C12 UNL     1      -9.755  20.630 -20.255  1.00  0.00     0.001 C 
HETATM   16  C13 UNL     1     -10.820  21.531 -20.887  1.00  0.00     0.004 C 
HETATM   17  C14 UNL     1     -12.069  21.274 -20.067  1.00  0.00     0.034 C 
ENDBRANCH  11  12
ENDBRANCH  10  11
BRANCH  10  18
HETATM   18  N2  UNL     1     -13.251  19.150 -17.524  1.00  0.00    -0.353 N 
ATOM     19  H2  UNL     1     -13.875  18.560 -16.975  1.00  0.00     0.162 HD
BRANCH  18  20
HETATM   20  C15 UNL     1     -12.080  18.495 -17.867  1.00  0.00     0.160 C 
HETATM   21  C16 UNL     1     -10.828  18.241 -17.191  1.00  0.00     0.256 C 
BRANCH  20  22
HETATM   22  O2  UNL     1     -12.035  17.964 -19.085  1.00  0.00    -0.345 OA
ATOM     23  H2  UNL     1     -11.872  18.566 -19.802  1.00  0.00     0.219 HD
ENDBRANCH  20  22
BRANCH  21  24
HETATM   24  N3  UNL     1     -10.535  18.584 -15.870  1.00  0.00    -0.055 N 
HETATM   25  C17 UNL     1     -10.828  17.385 -15.041  1.00  0.00     0.277 C 
HETATM   26  C18 UNL     1      -9.038  18.704 -15.778  1.00  0.00     0.277 C 
HETATM   27  C19 UNL     1     -11.053  19.718 -15.236  1.00  0.00     0.277 C 
ENDBRANCH  21  24
ENDBRANCH  18  20
ENDBRANCH  10  18
ENDBRANCH   7  10
ENDBRANCH   1   6
BRANCH   1  28
HETATM   28  C20 UNL     1     -17.268  23.285 -15.633  1.00  0.00     0.241 C 
HETATM   29  O3  UNL     1     -18.065  23.769 -14.813  1.00  0.00    -0.271 OA
HETATM   30  N4  UNL     1     -17.292  23.654 -16.972  1.00  0.00    -0.337 N 
ATOM     31  H4  UNL     1     -16.559  23.183 -17.502  1.00  0.00     0.163 HD
BRANCH  30  32
HETATM   32  C21 UNL     1     -18.064  24.513 -17.800  1.00  0.00     0.285 C 
BRANCH  32  33
HETATM   33  C22 UNL     1     -17.912  25.931 -17.276  1.00  0.00     0.292 C 
HETATM   34  O4  UNL     1     -17.036  26.706 -17.687  1.00  0.00    -0.262 OA
BRANCH  33  35
HETATM   35  O5  UNL     1     -18.799  26.346 -16.332  1.00  0.00    -0.314 OA
BRANCH  35  36
HETATM   36  C23 UNL     1     -18.610  27.267 -15.303  1.00  0.00     0.132 C 
HETATM   37  C24 UNL     1     -19.370  28.618 -15.730  1.00  0.00     0.032 C 
HETATM   38  C25 UNL     1     -19.961  28.643 -14.345  1.00  0.00     0.005 C 
HETATM   39  C26 UNL     1     -19.613  27.163 -14.181  1.00  0.00     0.032 C 
ENDBRANCH  35  36
ENDBRANCH  33  35
ENDBRANCH  32  33
BRANCH  32  40
HETATM   40  C27 UNL     1     -17.652  24.382 -19.212  1.00  0.00     0.292 C 
HETATM   41  O6  UNL     1     -18.416  24.872 -20.072  1.00  0.00    -0.262 OA
BRANCH  40  42
HETATM   42  O7  UNL     1     -16.487  23.758 -19.621  1.00  0.00    -0.309 OA
BRANCH  42  43
HETATM   43  C28 UNL     1     -15.289  24.421 -19.972  1.00  0.00     0.060 C 
HETATM   44  C29 UNL     1     -15.678  25.673 -20.723  1.00  0.00     0.045 C 
HETATM   45  C30 UNL     1     -14.516  23.567 -20.997  1.00  0.00     0.045 C 
HETATM   46  C31 UNL     1     -14.403  24.745 -18.814  1.00  0.00     0.045 C 
ENDBRANCH  42  43
ENDBRANCH  40  42
ENDBRANCH  32  40
ENDBRANCH  30  32
ENDBRANCH   1  28
TORSDOF 18
ENDMDL
