MODEL 1
REMARK VINA RESULT: -8.171221450      0.000      0.000
REMARK  5 active torsions:
REMARK  status: ('A' for Active; 'I' for Inactive)
REMARK    1  A    between atoms: C3_5  and  O1_6 
REMARK    2  A    between atoms: O1_6  and  C4_7 
REMARK    3  A    between atoms: C9_19  and  C10_20 
REMARK    4  A    between atoms: C10_20  and  O3_22 
REMARK    5  A    between atoms: O3_22  and  C11_23 
ROOT
HETATM    1  C1  UNL     1     -17.002  36.656   3.169  1.00  0.00     0.071 C 
HETATM    2  C2  UNL     1     -17.094  35.900   1.880  1.00  0.00     0.041 A 
HETATM    3  N1  UNL     1     -16.046  35.398   1.170  1.00  0.00    -0.323 N 
ATOM      4  H1  UNL     1     -15.062  35.474   1.426  1.00  0.00     0.169 HD
HETATM    5  C3  UNL     1     -16.525  34.784   0.073  1.00  0.00     0.231 A 
HETATM    6  N3  UNL     1     -17.852  34.907   0.104  1.00  0.00    -0.315 N 
ATOM      7  H3  UNL     1     -18.482  34.535  -0.606  1.00  0.00     0.170 HD
HETATM    8  C9  UNL     1     -18.253  35.589   1.202  1.00  0.00     0.134 A 
ENDROOT
BRANCH   5   9
HETATM    9  O1  UNL     1     -15.710  34.161  -0.871  1.00  0.00    -0.262 OA
BRANCH   9  10
HETATM   10  C4  UNL     1     -15.518  34.622  -2.141  1.00  0.00     0.155 A 
HETATM   11  C5  UNL     1     -16.578  35.084  -2.873  1.00  0.00     0.082 A 
HETATM   12  C6  UNL     1     -16.387  35.555  -4.169  1.00  0.00     0.064 A 
HETATM   13 CL1  UNL     1     -17.718  36.150  -5.124  1.00  0.00    -0.082 Cl
HETATM   14  C7  UNL     1     -15.108  35.538  -4.677  1.00  0.00     0.112 A 
HETATM   15 CL2  UNL     1     -14.809  36.128  -6.322  1.00  0.00    -0.078 Cl
HETATM   16  C8  UNL     1     -14.063  35.074  -3.932  1.00  0.00     0.213 A 
HETATM   17  F1  UNL     1     -12.807  35.065  -4.447  1.00  0.00    -0.184 F 
HETATM   18  N2  UNL     1     -14.300  34.629  -2.684  1.00  0.00    -0.312 N 
ATOM     19  H2  UNL     1     -13.515  34.283  -2.131  1.00  0.00     0.170 HD
ENDBRANCH   9  10
ENDBRANCH   5   9
BRANCH   8  20
HETATM   20  C10 UNL     1     -19.617  35.929   1.594  1.00  0.00     0.312 C 
HETATM   21  O2  UNL     1     -20.172  35.424   2.601  1.00  0.00    -0.258 OA
BRANCH  20  22
HETATM   22  O3  UNL     1     -20.315  36.828   0.840  1.00  0.00    -0.306 OA
BRANCH  22  23
HETATM   23  C11 UNL     1     -19.974  38.187   0.675  1.00  0.00     0.060 C 
HETATM   24  C12 UNL     1     -18.841  38.419  -0.269  1.00  0.00     0.046 C 
HETATM   25  C13 UNL     1     -19.656  38.809   2.037  1.00  0.00     0.046 C 
HETATM   26  C14 UNL     1     -21.199  38.891   0.134  1.00  0.00     0.046 C 
ENDBRANCH  22  23
ENDBRANCH  20  22
ENDBRANCH   8  20
TORSDOF 5
ENDMDL
MODEL 2
REMARK VINA RESULT: -8.049098792      4.039      5.692
REMARK  5 active torsions:
REMARK  status: ('A' for Active; 'I' for Inactive)
REMARK    1  A    between atoms: C3_5  and  O1_6 
REMARK    2  A    between atoms: O1_6  and  C4_7 
REMARK    3  A    between atoms: C9_19  and  C10_20 
REMARK    4  A    between atoms: C10_20  and  O3_22 
REMARK    5  A    between atoms: O3_22  and  C11_23 
ROOT
HETATM    1  C1  UNL     1     -15.679  34.982  -2.678  1.00  0.00     0.071 C 
HETATM    2  C2  UNL     1     -17.030  35.494  -2.281  1.00  0.00     0.041 A 
HETATM    3  N1  UNL     1     -18.022  35.879  -3.130  1.00  0.00    -0.323 N 
ATOM      4  H1  UNL     1     -17.970  35.869  -4.149  1.00  0.00     0.169 HD
HETATM    5  C3  UNL     1     -19.081  36.275  -2.403  1.00  0.00     0.231 A 
HETATM    6  N3  UNL     1     -18.747  36.138  -1.119  1.00  0.00    -0.315 N 
ATOM      7  H3  UNL     1     -19.361  36.364  -0.337  1.00  0.00     0.170 HD
HETATM    8  C9  UNL     1     -17.488  35.658  -0.991  1.00  0.00     0.134 A 
ENDROOT
BRANCH   5   9
HETATM    9  O1  UNL     1     -20.270  36.732  -2.971  1.00  0.00    -0.262 OA
BRANCH   9  10
HETATM   10  C4  UNL     1     -20.442  37.985  -3.482  1.00  0.00     0.155 A 
HETATM   11  C5  UNL     1     -20.602  38.163  -4.829  1.00  0.00     0.082 A 
HETATM   12  C6  UNL     1     -20.779  39.439  -5.355  1.00  0.00     0.064 A 
HETATM   13 CL1  UNL     1     -20.985  39.695  -7.067  1.00  0.00    -0.082 Cl
HETATM   14  C7  UNL     1     -20.787  40.500  -4.478  1.00  0.00     0.112 A 
HETATM   15 CL2  UNL     1     -21.009  42.148  -5.096  1.00  0.00    -0.078 Cl
HETATM   16  C8  UNL     1     -20.626  40.304  -3.138  1.00  0.00     0.213 A 
HETATM   17  F1  UNL     1     -20.637  41.360  -2.285  1.00  0.00    -0.184 F 
HETATM   18  N2  UNL     1     -20.458  39.049  -2.678  1.00  0.00    -0.312 N 
ATOM     19  H2  UNL     1     -20.339  38.908  -1.675  1.00  0.00     0.170 HD
ENDBRANCH   9  10
ENDBRANCH   5   9
BRANCH   8  20
HETATM   20  C10 UNL     1     -16.762  35.373   0.241  1.00  0.00     0.312 C 
HETATM   21  O2  UNL     1     -16.190  34.273   0.445  1.00  0.00    -0.258 OA
BRANCH  20  22
HETATM   22  O3  UNL     1     -16.700  36.334   1.209  1.00  0.00    -0.306 OA
BRANCH  22  23
HETATM   23  C11 UNL     1     -17.598  36.454   2.290  1.00  0.00     0.060 C 
HETATM   24  C12 UNL     1     -18.530  35.297   2.439  1.00  0.00     0.046 C 
HETATM   25  C13 UNL     1     -18.394  37.755   2.161  1.00  0.00     0.046 C 
HETATM   26  C14 UNL     1     -16.765  36.561   3.550  1.00  0.00     0.046 C 
ENDBRANCH  22  23
ENDBRANCH  20  22
ENDBRANCH   8  20
TORSDOF 5
ENDMDL
MODEL 3
REMARK VINA RESULT: -7.961685307      1.365      1.799
REMARK  5 active torsions:
REMARK  status: ('A' for Active; 'I' for Inactive)
REMARK    1  A    between atoms: C3_5  and  O1_6 
REMARK    2  A    between atoms: O1_6  and  C4_7 
REMARK    3  A    between atoms: C9_19  and  C10_20 
REMARK    4  A    between atoms: C10_20  and  O3_22 
REMARK    5  A    between atoms: O3_22  and  C11_23 
ROOT
HETATM    1  C1  UNL     1     -16.949  36.507   3.134  1.00  0.00     0.071 C 
HETATM    2  C2  UNL     1     -17.099  35.845   1.799  1.00  0.00     0.041 A 
HETATM    3  N1  UNL     1     -16.086  35.370   1.022  1.00  0.00    -0.323 N 
ATOM      4  H1  UNL     1     -15.093  35.407   1.252  1.00  0.00     0.169 HD
HETATM    5  C3  UNL     1     -16.612  34.846  -0.098  1.00  0.00     0.231 A 
HETATM    6  N3  UNL     1     -17.935  34.996  -0.016  1.00  0.00    -0.315 N 
ATOM      7  H3  UNL     1     -18.595  34.689  -0.730  1.00  0.00     0.170 HD
HETATM    8  C9  UNL     1     -18.285  35.609   1.139  1.00  0.00     0.134 A 
ENDROOT
BRANCH   5   9
HETATM    9  O1  UNL     1     -15.842  34.272  -1.108  1.00  0.00    -0.262 OA
BRANCH   9  10
HETATM   10  C4  UNL     1     -15.639  34.839  -2.333  1.00  0.00     0.155 A 
HETATM   11  C5  UNL     1     -14.450  34.659  -2.987  1.00  0.00     0.082 A 
HETATM   12  C6  UNL     1     -14.239  35.235  -4.235  1.00  0.00     0.064 A 
HETATM   13 CL1  UNL     1     -12.735  35.022  -5.091  1.00  0.00    -0.082 Cl
HETATM   14  C7  UNL     1     -15.259  35.982  -4.780  1.00  0.00     0.112 A 
HETATM   15 CL2  UNL     1     -15.042  36.738  -6.369  1.00  0.00    -0.078 Cl
HETATM   16  C8  UNL     1     -16.437  36.151  -4.113  1.00  0.00     0.213 A 
HETATM   17  F1  UNL     1     -17.435  36.890  -4.663  1.00  0.00    -0.184 F 
HETATM   18  N2  UNL     1     -16.593  35.573  -2.907  1.00  0.00    -0.312 N 
ATOM     19  H2  UNL     1     -17.476  35.701  -2.413  1.00  0.00     0.170 HD
ENDBRANCH   9  10
ENDBRANCH   5   9
BRANCH   8  20
HETATM   20  C10 UNL     1     -19.627  35.952   1.596  1.00  0.00     0.312 C 
HETATM   21  O2  UNL     1     -20.154  35.410   2.601  1.00  0.00    -0.258 OA
BRANCH  20  22
HETATM   22  O3  UNL     1     -20.338  36.894   0.910  1.00  0.00    -0.306 OA
BRANCH  22  23
HETATM   23  C11 UNL     1     -19.962  38.246   0.764  1.00  0.00     0.060 C 
HETATM   24  C12 UNL     1     -18.871  38.470  -0.229  1.00  0.00     0.046 C 
HETATM   25  C13 UNL     1     -19.559  38.820   2.125  1.00  0.00     0.046 C 
HETATM   26  C14 UNL     1     -21.190  39.002   0.303  1.00  0.00     0.046 C 
ENDBRANCH  22  23
ENDBRANCH  20  22
ENDBRANCH   8  20
TORSDOF 5
ENDMDL
MODEL 4
REMARK VINA RESULT: -7.876792989      3.981      5.519
REMARK  5 active torsions:
REMARK  status: ('A' for Active; 'I' for Inactive)
REMARK    1  A    between atoms: C3_5  and  O1_6 
REMARK    2  A    between atoms: O1_6  and  C4_7 
REMARK    3  A    between atoms: C9_19  and  C10_20 
REMARK    4  A    between atoms: C10_20  and  O3_22 
REMARK    5  A    between atoms: O3_22  and  C11_23 
ROOT
HETATM    1  C1  UNL     1     -15.344  34.700  -2.408  1.00  0.00     0.071 C 
HETATM    2  C2  UNL     1     -16.725  35.250  -2.223  1.00  0.00     0.041 A 
HETATM    3  N1  UNL     1     -17.612  35.538  -3.215  1.00  0.00    -0.323 N 
ATOM      4  H1  UNL     1     -17.447  35.416  -4.214  1.00  0.00     0.169 HD
HETATM    5  C3  UNL     1     -18.741  36.010  -2.659  1.00  0.00     0.231 A 
HETATM    6  N3  UNL     1     -18.554  36.015  -1.338  1.00  0.00    -0.315 N 
ATOM      7  H3  UNL     1     -19.248  36.326  -0.659  1.00  0.00     0.170 HD
HETATM    8  C9  UNL     1     -17.322  35.554  -1.018  1.00  0.00     0.134 A 
ENDROOT
BRANCH   5   9
HETATM    9  O1  UNL     1     -19.854  36.400  -3.402  1.00  0.00    -0.262 OA
BRANCH   9  10
HETATM   10  C4  UNL     1     -20.131  37.691  -3.747  1.00  0.00     0.155 A 
HETATM   11  C5  UNL     1     -20.436  38.611  -2.780  1.00  0.00     0.082 A 
HETATM   12  C6  UNL     1     -20.720  39.928  -3.126  1.00  0.00     0.064 A 
HETATM   13 CL1  UNL     1     -21.111  41.121  -1.917  1.00  0.00    -0.082 Cl
HETATM   14  C7  UNL     1     -20.681  40.265  -4.461  1.00  0.00     0.112 A 
HETATM   15 CL2  UNL     1     -21.033  41.931  -4.956  1.00  0.00    -0.078 Cl
HETATM   16  C8  UNL     1     -20.375  39.335  -5.410  1.00  0.00     0.213 A 
HETATM   17  F1  UNL     1     -20.340  39.682  -6.723  1.00  0.00    -0.184 F 
HETATM   18  N2  UNL     1     -20.108  38.072  -5.024  1.00  0.00    -0.312 N 
ATOM     19  H2  UNL     1     -19.879  37.380  -5.738  1.00  0.00     0.170 HD
ENDBRANCH   9  10
ENDBRANCH   5   9
BRANCH   8  20
HETATM   20  C10 UNL     1     -16.741  35.407   0.311  1.00  0.00     0.312 C 
HETATM   21  O2  UNL     1     -16.180  34.347   0.686  1.00  0.00    -0.258 OA
BRANCH  20  22
HETATM   22  O3  UNL     1     -16.809  36.458   1.181  1.00  0.00    -0.306 OA
BRANCH  22  23
HETATM   23  C11 UNL     1     -17.785  36.617   2.186  1.00  0.00     0.060 C 
HETATM   24  C12 UNL     1     -18.684  35.436   2.353  1.00  0.00     0.046 C 
HETATM   25  C13 UNL     1     -18.616  37.872   1.907  1.00  0.00     0.046 C 
HETATM   26  C14 UNL     1     -17.050  36.845   3.489  1.00  0.00     0.046 C 
ENDBRANCH  22  23
ENDBRANCH  20  22
ENDBRANCH   8  20
TORSDOF 5
ENDMDL
MODEL 5
REMARK VINA RESULT: -7.840201578      2.002      3.531
REMARK  5 active torsions:
REMARK  status: ('A' for Active; 'I' for Inactive)
REMARK    1  A    between atoms: C3_5  and  O1_6 
REMARK    2  A    between atoms: O1_6  and  C4_7 
REMARK    3  A    between atoms: C9_19  and  C10_20 
REMARK    4  A    between atoms: C10_20  and  O3_22 
REMARK    5  A    between atoms: O3_22  and  C11_23 
ROOT
HETATM    1  C1  UNL     1     -21.383  38.918  -1.028  1.00  0.00     0.071 C 
HETATM    2  C2  UNL     1     -20.334  37.899  -1.353  1.00  0.00     0.041 A 
HETATM    3  N1  UNL     1     -20.166  37.278  -2.553  1.00  0.00    -0.323 N 
ATOM      4  H1  UNL     1     -20.736  37.428  -3.385  1.00  0.00     0.169 HD
HETATM    5  C3  UNL     1     -19.124  36.434  -2.457  1.00  0.00     0.231 A 
HETATM    6  N3  UNL     1     -18.655  36.531  -1.213  1.00  0.00    -0.315 N 
ATOM      7  H3  UNL     1     -17.861  36.001  -0.854  1.00  0.00     0.170 HD
HETATM    8  C9  UNL     1     -19.370  37.424  -0.491  1.00  0.00     0.134 A 
ENDROOT
BRANCH   5   9
HETATM    9  O1  UNL     1     -18.685  35.640  -3.516  1.00  0.00    -0.262 OA
BRANCH   9  10
HETATM   10  C4  UNL     1     -17.381  35.535  -3.905  1.00  0.00     0.155 A 
HETATM   11  C5  UNL     1     -17.011  35.892  -5.173  1.00  0.00     0.082 A 
HETATM   12  C6  UNL     1     -15.683  35.787  -5.575  1.00  0.00     0.064 A 
HETATM   13 CL1  UNL     1     -15.182  36.234  -7.183  1.00  0.00    -0.082 Cl
HETATM   14  C7  UNL     1     -14.769  35.316  -4.659  1.00  0.00     0.112 A 
HETATM   15 CL2  UNL     1     -13.063  35.163  -5.119  1.00  0.00    -0.078 Cl
HETATM   16  C8  UNL     1     -15.157  34.965  -3.399  1.00  0.00     0.213 A 
HETATM   17  F1  UNL     1     -14.244  34.503  -2.505  1.00  0.00    -0.184 F 
HETATM   18  N2  UNL     1     -16.454  35.085  -3.059  1.00  0.00    -0.312 N 
ATOM     19  H2  UNL     1     -16.739  34.822  -2.115  1.00  0.00     0.170 HD
ENDBRANCH   9  10
ENDBRANCH   5   9
BRANCH   8  20
HETATM   20  C10 UNL     1     -19.172  37.809   0.903  1.00  0.00     0.312 C 
HETATM   21  O2  UNL     1     -20.082  38.337   1.590  1.00  0.00    -0.258 OA
BRANCH  20  22
HETATM   22  O3  UNL     1     -17.955  37.589   1.482  1.00  0.00    -0.306 OA
BRANCH  22  23
HETATM   23  C11 UNL     1     -17.593  36.424   2.190  1.00  0.00     0.060 C 
HETATM   24  C12 UNL     1     -18.720  35.471   2.410  1.00  0.00     0.046 C 
HETATM   25  C13 UNL     1     -16.962  36.809   3.531  1.00  0.00     0.046 C 
HETATM   26  C14 UNL     1     -16.527  35.723   1.376  1.00  0.00     0.046 C 
ENDBRANCH  22  23
ENDBRANCH  20  22
ENDBRANCH   8  20
TORSDOF 5
ENDMDL
