MODEL 1
REMARK VINA RESULT: -9.477789785      0.000      0.000
REMARK  3 active torsions:
REMARK  status: ('A' for Active; 'I' for Inactive)
REMARK    1  A    between atoms: C3_3  and  O1_4 
REMARK    2  A    between atoms: O1_4  and  C4_5 
REMARK    3  A    between atoms: N3_21  and  C14_23 
ROOT
HETATM    1  C1  UNL     1     -15.503  34.561  -2.277  1.00  0.00     0.056 C 
HETATM    2  C2  UNL     1     -16.215  35.676  -2.962  1.00  0.00     0.025 A 
HETATM    3  C3  UNL     1     -17.337  36.197  -2.445  1.00  0.00     0.200 A 
HETATM    4  O2  UNL     1     -17.910  37.163  -3.167  1.00  0.00    -0.271 OA
HETATM    5  C10 UNL     1     -17.467  37.617  -4.299  1.00  0.00     0.182 A 
HETATM    6  N1  UNL     1     -18.172  38.671  -4.999  1.00  0.00    -0.073 NA
HETATM    7  C11 UNL     1     -16.322  37.106  -4.851  1.00  0.00     0.119 A 
HETATM    8  C12 UNL     1     -15.885  37.653  -6.107  1.00  0.00     0.106 C 
HETATM    9  N2  UNL     1     -15.554  38.107  -7.116  1.00  0.00    -0.191 NA
HETATM   10  C13 UNL     1     -15.643  36.108  -4.203  1.00  0.00     0.064 A 
HETATM   11  N3  UNL     1     -14.617  35.576  -4.595  1.00  0.00    -0.384 N 
ATOM     12  H3  UNL     1     -14.357  34.876  -3.900  1.00  0.00     0.160 HD
ENDROOT
BRANCH  11  13
HETATM   13  C14 UNL     1     -13.665  35.532  -5.590  1.00  0.00     0.073 C 
HETATM   14  C15 UNL     1     -12.385  34.788  -5.179  1.00  0.00     0.031 C 
HETATM   15  C16 UNL     1     -14.216  34.689  -6.756  1.00  0.00     0.031 C 
ENDBRANCH  11  13
BRANCH   3  16
HETATM   16  O1  UNL     1     -17.954  35.878  -1.298  1.00  0.00    -0.282 OA
BRANCH  16  17
HETATM   17  C4  UNL     1     -17.858  36.261  -0.014  1.00  0.00     0.138 A 
HETATM   18  C5  UNL     1     -16.994  35.738   0.895  1.00  0.00     0.154 A 
HETATM   19  F1  UNL     1     -16.116  34.723   0.668  1.00  0.00    -0.203 F 
HETATM   20  C6  UNL     1     -16.947  36.197   2.230  1.00  0.00     0.087 A 
HETATM   21  C7  UNL     1     -17.772  37.185   2.655  1.00  0.00     0.121 A 
HETATM   22  F2  UNL     1     -17.715  37.619   3.951  1.00  0.00    -0.206 F 
HETATM   23  C8  UNL     1     -18.650  37.731   1.777  1.00  0.00     0.069 A 
HETATM   24  C9  UNL     1     -18.694  37.284   0.478  1.00  0.00     0.074 A 
HETATM   25 CL1  UNL     1     -19.856  38.025  -0.572  1.00  0.00    -0.081 Cl
ENDBRANCH  16  17
ENDBRANCH   3  16
TORSDOF 3
ENDMDL
MODEL 2
REMARK VINA RESULT: -9.350851533      1.630      1.922
REMARK  3 active torsions:
REMARK  status: ('A' for Active; 'I' for Inactive)
REMARK    1  A    between atoms: C3_3  and  O1_4 
REMARK    2  A    between atoms: O1_4  and  C4_5 
REMARK    3  A    between atoms: N3_21  and  C14_23 
ROOT
HETATM    1  C1  UNL     1     -15.601  34.605  -2.277  1.00  0.00     0.056 C 
HETATM    2  C2  UNL     1     -16.293  35.712  -2.995  1.00  0.00     0.025 A 
HETATM    3  C3  UNL     1     -17.424  36.244  -2.510  1.00  0.00     0.200 A 
HETATM    4  O2  UNL     1     -17.977  37.201  -3.259  1.00  0.00    -0.271 OA
HETATM    5  C10 UNL     1     -17.509  37.635  -4.389  1.00  0.00     0.182 A 
HETATM    6  N1  UNL     1     -18.195  38.680  -5.121  1.00  0.00    -0.073 NA
HETATM    7  C11 UNL     1     -16.355  37.111  -4.909  1.00  0.00     0.119 A 
HETATM    8  C12 UNL     1     -15.890  37.636  -6.163  1.00  0.00     0.106 C 
HETATM    9  N2  UNL     1     -15.535  38.072  -7.172  1.00  0.00    -0.191 NA
HETATM   10  C13 UNL     1     -15.694  36.121  -4.230  1.00  0.00     0.064 A 
HETATM   11  N3  UNL     1     -14.662  35.579  -4.592  1.00  0.00    -0.384 N 
ATOM     12  H3  UNL     1     -14.419  34.889  -3.881  1.00  0.00     0.160 HD
ENDROOT
BRANCH  11  13
HETATM   13  C14 UNL     1     -13.689  35.515  -5.566  1.00  0.00     0.073 C 
HETATM   14  C15 UNL     1     -12.438  34.737  -5.131  1.00  0.00     0.031 C 
HETATM   15  C16 UNL     1     -14.235  34.693  -6.748  1.00  0.00     0.031 C 
ENDBRANCH  11  13
BRANCH   3  16
HETATM   16  O1  UNL     1     -18.066  35.946  -1.371  1.00  0.00    -0.282 OA
BRANCH  16  17
HETATM   17  C4  UNL     1     -18.481  36.631  -0.292  1.00  0.00     0.138 A 
HETATM   18  C5  UNL     1     -19.583  37.425  -0.248  1.00  0.00     0.154 A 
HETATM   19  F1  UNL     1     -20.421  37.685  -1.289  1.00  0.00    -0.203 F 
HETATM   20  C6  UNL     1     -19.960  38.113   0.927  1.00  0.00     0.087 A 
HETATM   21  C7  UNL     1     -19.228  38.004   2.063  1.00  0.00     0.121 A 
HETATM   22  F2  UNL     1     -19.605  38.676   3.192  1.00  0.00    -0.206 F 
HETATM   23  C8  UNL     1     -18.119  37.222   2.056  1.00  0.00     0.069 A 
HETATM   24  C9  UNL     1     -17.753  36.553   0.912  1.00  0.00     0.074 A 
HETATM   25 CL1  UNL     1     -16.315  35.589   0.987  1.00  0.00    -0.081 Cl
ENDBRANCH  16  17
ENDBRANCH   3  16
TORSDOF 3
ENDMDL
MODEL 3
REMARK VINA RESULT: -9.300295730      2.377      3.376
REMARK  3 active torsions:
REMARK  status: ('A' for Active; 'I' for Inactive)
REMARK    1  A    between atoms: C3_3  and  O1_4 
REMARK    2  A    between atoms: O1_4  and  C4_5 
REMARK    3  A    between atoms: N3_21  and  C14_23 
ROOT
HETATM    1  C1  UNL     1     -17.721  35.982  -2.362  1.00  0.00     0.056 C 
HETATM    2  C2  UNL     1     -18.575  37.191  -2.193  1.00  0.00     0.025 A 
HETATM    3  C3  UNL     1     -19.251  37.401  -1.055  1.00  0.00     0.200 A 
HETATM    4  O2  UNL     1     -20.015  38.497  -1.033  1.00  0.00    -0.271 OA
HETATM    5  C10 UNL     1     -20.142  39.342  -2.009  1.00  0.00     0.182 A 
HETATM    6  N1  UNL     1     -21.003  40.500  -1.876  1.00  0.00    -0.073 NA
HETATM    7  C11 UNL     1     -19.462  39.154  -3.183  1.00  0.00     0.119 A 
HETATM    8  C12 UNL     1     -19.646  40.129  -4.224  1.00  0.00     0.106 C 
HETATM    9  N2  UNL     1     -19.810  40.923  -5.047  1.00  0.00    -0.191 NA
HETATM   10  C13 UNL     1     -18.645  38.064  -3.326  1.00  0.00     0.064 A 
HETATM   11  N3  UNL     1     -17.992  37.792  -4.321  1.00  0.00    -0.384 N 
ATOM     12  H3  UNL     1     -17.489  36.927  -4.122  1.00  0.00     0.160 HD
ENDROOT
BRANCH  11  13
HETATM   13  C14 UNL     1     -17.653  38.172  -5.601  1.00  0.00     0.073 C 
HETATM   14  C15 UNL     1     -16.228  37.763  -6.004  1.00  0.00     0.031 C 
HETATM   15  C16 UNL     1     -18.546  37.401  -6.591  1.00  0.00     0.031 C 
ENDBRANCH  11  13
BRANCH   3  16
HETATM   16  O1  UNL     1     -19.256  36.661   0.063  1.00  0.00    -0.282 OA
BRANCH  16  17
HETATM   17  C4  UNL     1     -18.457  36.531   1.135  1.00  0.00     0.138 A 
HETATM   18  C5  UNL     1     -17.591  35.505   1.343  1.00  0.00     0.154 A 
HETATM   19  F1  UNL     1     -17.416  34.431   0.527  1.00  0.00    -0.203 F 
HETATM   20  C6  UNL     1     -16.778  35.438   2.497  1.00  0.00     0.087 A 
HETATM   21  C7  UNL     1     -16.834  36.405   3.445  1.00  0.00     0.121 A 
HETATM   22  F2  UNL     1     -16.040  36.327   4.556  1.00  0.00    -0.206 F 
HETATM   23  C8  UNL     1     -17.689  37.444   3.273  1.00  0.00     0.069 A 
HETATM   24  C9  UNL     1     -18.480  37.508   2.151  1.00  0.00     0.074 A 
HETATM   25 CL1  UNL     1     -19.554  38.861   2.019  1.00  0.00    -0.081 Cl
ENDBRANCH  16  17
ENDBRANCH   3  16
TORSDOF 3
ENDMDL
MODEL 4
REMARK VINA RESULT: -9.281910795      2.448      4.259
REMARK  3 active torsions:
REMARK  status: ('A' for Active; 'I' for Inactive)
REMARK    1  A    between atoms: C3_3  and  O1_4 
REMARK    2  A    between atoms: O1_4  and  C4_5 
REMARK    3  A    between atoms: N3_21  and  C14_23 
ROOT
HETATM    1  C1  UNL     1     -20.322  39.134  -1.137  1.00  0.00     0.056 C 
HETATM    2  C2  UNL     1     -19.376  38.208  -1.820  1.00  0.00     0.025 A 
HETATM    3  C3  UNL     1     -18.842  37.166  -1.168  1.00  0.00     0.200 A 
HETATM    4  O2  UNL     1     -17.976  36.430  -1.869  1.00  0.00    -0.271 OA
HETATM    5  C10 UNL     1     -17.628  36.650  -3.100  1.00  0.00     0.182 A 
HETATM    6  N1  UNL     1     -16.675  35.784  -3.765  1.00  0.00    -0.073 NA
HETATM    7  C11 UNL     1     -18.158  37.706  -3.792  1.00  0.00     0.119 A 
HETATM    8  C12 UNL     1     -17.732  37.894  -5.153  1.00  0.00     0.106 C 
HETATM    9  N2  UNL     1     -17.374  38.025  -6.243  1.00  0.00    -0.191 NA
HETATM   10  C13 UNL     1     -19.059  38.536  -3.179  1.00  0.00     0.064 A 
HETATM   11  N3  UNL     1     -19.596  39.504  -3.692  1.00  0.00    -0.384 N 
ATOM     12  H3  UNL     1     -20.211  39.915  -2.988  1.00  0.00     0.160 HD
ENDROOT
BRANCH  11  13
HETATM   13  C14 UNL     1     -19.715  40.272  -4.829  1.00  0.00     0.073 C 
HETATM   14  C15 UNL     1     -20.831  39.799  -5.774  1.00  0.00     0.031 C 
HETATM   15  C16 UNL     1     -20.163  41.687  -4.419  1.00  0.00     0.031 C 
ENDBRANCH  11  13
BRANCH   3  16
HETATM   16  O1  UNL     1     -19.068  36.764   0.091  1.00  0.00    -0.282 OA
BRANCH  16  17
HETATM   17  C4  UNL     1     -18.321  36.586   1.194  1.00  0.00     0.138 A 
HETATM   18  C5  UNL     1     -17.493  35.532   1.414  1.00  0.00     0.154 A 
HETATM   19  F1  UNL     1     -17.311  34.472   0.578  1.00  0.00    -0.203 F 
HETATM   20  C6  UNL     1     -16.734  35.414   2.600  1.00  0.00     0.087 A 
HETATM   21  C7  UNL     1     -16.806  36.360   3.569  1.00  0.00     0.121 A 
HETATM   22  F2  UNL     1     -16.065  36.232   4.711  1.00  0.00    -0.206 F 
HETATM   23  C8  UNL     1     -17.625  37.426   3.385  1.00  0.00     0.069 A 
HETATM   24  C9  UNL     1     -18.363  37.539   2.231  1.00  0.00     0.074 A 
HETATM   25 CL1  UNL     1     -19.393  38.924   2.087  1.00  0.00    -0.081 Cl
ENDBRANCH  16  17
ENDBRANCH   3  16
TORSDOF 3
ENDMDL
MODEL 5
REMARK VINA RESULT: -9.221962763      2.558      3.576
REMARK  3 active torsions:
REMARK  status: ('A' for Active; 'I' for Inactive)
REMARK    1  A    between atoms: C3_3  and  O1_4 
REMARK    2  A    between atoms: O1_4  and  C4_5 
REMARK    3  A    between atoms: N3_21  and  C14_23 
ROOT
HETATM    1  C1  UNL     1     -17.497  35.866  -2.746  1.00  0.00     0.056 C 
HETATM    2  C2  UNL     1     -18.355  37.058  -2.499  1.00  0.00     0.025 A 
HETATM    3  C3  UNL     1     -18.981  37.225  -1.326  1.00  0.00     0.200 A 
HETATM    4  O2  UNL     1     -19.755  38.309  -1.234  1.00  0.00    -0.271 OA
HETATM    5  C10 UNL     1     -19.936  39.184  -2.175  1.00  0.00     0.182 A 
HETATM    6  N1  UNL     1     -20.802  40.326  -1.966  1.00  0.00    -0.073 NA
HETATM    7  C11 UNL     1     -19.309  39.042  -3.384  1.00  0.00     0.119 A 
HETATM    8  C12 UNL     1     -19.551  40.046  -4.384  1.00  0.00     0.106 C 
HETATM    9  N2  UNL     1     -19.761  40.864  -5.172  1.00  0.00    -0.191 NA
HETATM   10  C13 UNL     1     -18.487  37.967  -3.600  1.00  0.00     0.064 A 
HETATM   11  N3  UNL     1     -17.877  37.734  -4.631  1.00  0.00    -0.384 N 
ATOM     12  H3  UNL     1     -17.356  36.870  -4.484  1.00  0.00     0.160 HD
ENDROOT
BRANCH  11  13
HETATM   13  C14 UNL     1     -17.602  38.159  -5.912  1.00  0.00     0.073 C 
HETATM   14  C15 UNL     1     -16.172  37.832  -6.372  1.00  0.00     0.031 C 
HETATM   15  C16 UNL     1     -18.488  37.365  -6.891  1.00  0.00     0.031 C 
ENDBRANCH  11  13
BRANCH   3  16
HETATM   16  O1  UNL     1     -18.927  36.449  -0.233  1.00  0.00    -0.282 OA
BRANCH  16  17
HETATM   17  C4  UNL     1     -18.282  36.489   0.945  1.00  0.00     0.138 A 
HETATM   18  C5  UNL     1     -18.459  37.439   1.900  1.00  0.00     0.154 A 
HETATM   19  F1  UNL     1     -19.284  38.518   1.808  1.00  0.00    -0.203 F 
HETATM   20  C6  UNL     1     -17.746  37.413   3.119  1.00  0.00     0.087 A 
HETATM   21  C7  UNL     1     -16.851  36.429   3.381  1.00  0.00     0.121 A 
HETATM   22  F2  UNL     1     -16.168  36.417   4.566  1.00  0.00    -0.206 F 
HETATM   23  C8  UNL     1     -16.647  35.464   2.450  1.00  0.00     0.069 A 
HETATM   24  C9  UNL     1     -17.341  35.490   1.264  1.00  0.00     0.074 A 
HETATM   25 CL1  UNL     1     -17.006  34.228   0.126  1.00  0.00    -0.081 Cl
ENDBRANCH  16  17
ENDBRANCH   3  16
TORSDOF 3
ENDMDL
