MODEL 1
REMARK VINA RESULT: -6.767060375      0.000      0.000
REMARK  8 active torsions:
REMARK  status: ('A' for Active; 'I' for Inactive)
REMARK    1  A    between atoms: C2_2  and  C4_4 
REMARK    2  A    between atoms: C4_4  and  O1_5 
REMARK    3  A    between atoms: C4_4  and  N1_7 
REMARK    4  A    between atoms: N1_7  and  C5_9 
REMARK    5  A    between atoms: C5_9  and  C6_10 
REMARK    6  A    between atoms: C5_9  and  C8_15 
REMARK       I    between atoms: C6_10  and  N2_12 
REMARK       I    between atoms: C8_15  and  N3_17 
REMARK    7  A    between atoms: N3_17  and  N4_19 
REMARK    8  A    between atoms: N4_19  and  C9_21 
ROOT
HETATM    1  C5  UNL     1      14.549  13.926  60.351  1.00  0.00     0.270 C 
ENDROOT
BRANCH   1   2
HETATM    2  N1  UNL     1      14.927  12.792  61.230  1.00  0.00    -0.350 N 
ATOM      3  H1  UNL     1      14.327  12.417  61.965  1.00  0.00     0.163 HD
BRANCH   2   4
HETATM    4  C4  UNL     1      16.244  12.279  60.923  1.00  0.00     0.142 C 
BRANCH   4   5
HETATM    5  C2  UNL     1      16.706  11.218  60.139  1.00  0.00    -0.021 C 
HETATM    6  C1  UNL     1      17.921  11.025  59.747  1.00  0.00     0.023 C 
HETATM    7  C3  UNL     1      15.651  10.185  59.741  1.00  0.00     0.052 C 
ENDBRANCH   4   5
BRANCH   4   8
HETATM    8  O1  UNL     1      17.224  12.957  61.509  1.00  0.00    -0.346 OA
ATOM      9  H1  UNL     1      17.178  12.932  62.458  1.00  0.00     0.219 HD
ENDBRANCH   4   8
ENDBRANCH   2   4
ENDBRANCH   1   2
BRANCH   1  10
HETATM   10  C6  UNL     1      13.687  14.913  60.968  1.00  0.00     0.249 C 
HETATM   11  O2  UNL     1      13.473  14.886  62.237  1.00  0.00    -0.271 OA
HETATM   12  N2  UNL     1      13.015  15.985  60.268  1.00  0.00    -0.363 N 
HETATM   13  C7  UNL     1      12.127  16.876  60.949  1.00  0.00     0.149 C 
ATOM     14  H2  UNL     1      13.178  16.108  59.269  1.00  0.00     0.162 HD
ENDBRANCH   1  10
BRANCH   1  15
HETATM   15  C8  UNL     1      13.752  13.304  59.243  1.00  0.00     0.268 C 
HETATM   16  O3  UNL     1      12.549  12.941  59.506  1.00  0.00    -0.269 OA
HETATM   17  N3  UNL     1      14.294  13.105  57.931  1.00  0.00    -0.266 N 
ATOM     18  H3  UNL     1      15.248  13.397  57.719  1.00  0.00     0.190 HD
BRANCH  17  19
HETATM   19  N4  UNL     1      13.510  12.514  56.952  1.00  0.00    -0.276 N 
ATOM     20  H4  UNL     1      12.633  12.969  56.702  1.00  0.00     0.189 HD
BRANCH  19  21
HETATM   21  C9  UNL     1      13.855  11.317  56.279  1.00  0.00     0.199 C 
HETATM   22  N5  UNL     1      14.754  11.344  55.203  1.00  0.00    -0.068 NA
HETATM   23  S1  UNL     1      13.211   9.879  56.730  1.00  0.00    -0.043 SA
ENDBRANCH  19  21
ENDBRANCH  17  19
ENDBRANCH   1  15
TORSDOF 8
ENDMDL
MODEL 2
REMARK VINA RESULT: -6.531065072      2.523      5.246
REMARK  8 active torsions:
REMARK  status: ('A' for Active; 'I' for Inactive)
REMARK    1  A    between atoms: C2_2  and  C4_4 
REMARK    2  A    between atoms: C4_4  and  O1_5 
REMARK    3  A    between atoms: C4_4  and  N1_7 
REMARK    4  A    between atoms: N1_7  and  C5_9 
REMARK    5  A    between atoms: C5_9  and  C6_10 
REMARK    6  A    between atoms: C5_9  and  C8_15 
REMARK       I    between atoms: C6_10  and  N2_12 
REMARK       I    between atoms: C8_15  and  N3_17 
REMARK    7  A    between atoms: N3_17  and  N4_19 
REMARK    8  A    between atoms: N4_19  and  C9_21 
ROOT
HETATM    1  C5  UNL     1      15.573  13.225  58.089  1.00  0.00     0.270 C 
ENDROOT
BRANCH   1   2
HETATM    2  N1  UNL     1      14.498  13.045  57.082  1.00  0.00    -0.350 N 
ATOM      3  H1  UNL     1      13.589  13.503  57.132  1.00  0.00     0.163 HD
BRANCH   2   4
HETATM    4  C4  UNL     1      14.891  12.143  56.021  1.00  0.00     0.142 C 
BRANCH   4   5
HETATM    5  C2  UNL     1      14.505  10.847  55.668  1.00  0.00    -0.021 C 
HETATM    6  C1  UNL     1      14.998  10.133  54.712  1.00  0.00     0.023 C 
HETATM    7  C3  UNL     1      13.403  10.229  56.530  1.00  0.00     0.052 C 
ENDBRANCH   4   5
BRANCH   4   8
HETATM    8  O1  UNL     1      15.812  12.651  55.210  1.00  0.00    -0.346 OA
ATOM      9  H1  UNL     1      16.670  12.708  55.613  1.00  0.00     0.219 HD
ENDBRANCH   4   8
ENDBRANCH   2   4
ENDBRANCH   1   2
BRANCH   1  10
HETATM   10  C6  UNL     1      16.018  12.003  58.730  1.00  0.00     0.249 C 
HETATM   11  O2  UNL     1      17.251  11.645  58.657  1.00  0.00    -0.271 OA
HETATM   12  N2  UNL     1      15.173  11.106  59.486  1.00  0.00    -0.363 N 
HETATM   13  C7  UNL     1      15.684   9.885  60.028  1.00  0.00     0.149 C 
ATOM     14  H2  UNL     1      14.194  11.349  59.637  1.00  0.00     0.162 HD
ENDBRANCH   1  10
BRANCH   1  15
HETATM   15  C8  UNL     1      14.953  14.065  59.166  1.00  0.00     0.268 C 
HETATM   16  O3  UNL     1      15.605  14.201  60.264  1.00  0.00    -0.269 OA
HETATM   17  N3  UNL     1      13.677  14.696  59.003  1.00  0.00    -0.266 N 
ATOM     18  H3  UNL     1      13.160  14.592  58.129  1.00  0.00     0.190 HD
BRANCH  17  19
HETATM   19  N4  UNL     1      13.152  15.450  60.040  1.00  0.00    -0.276 N 
ATOM     20  H4  UNL     1      13.590  16.348  60.250  1.00  0.00     0.189 HD
BRANCH  19  21
HETATM   21  C9  UNL     1      12.044  15.051  60.826  1.00  0.00     0.199 C 
HETATM   22  N5  UNL     1      11.355  15.989  61.607  1.00  0.00    -0.068 NA
HETATM   23  S1  UNL     1      11.546  13.489  60.852  1.00  0.00    -0.043 SA
ENDBRANCH  19  21
ENDBRANCH  17  19
ENDBRANCH   1  15
TORSDOF 8
ENDMDL
MODEL 3
REMARK VINA RESULT: -6.524196894      2.890      3.647
REMARK  8 active torsions:
REMARK  status: ('A' for Active; 'I' for Inactive)
REMARK    1  A    between atoms: C2_2  and  C4_4 
REMARK    2  A    between atoms: C4_4  and  O1_5 
REMARK    3  A    between atoms: C4_4  and  N1_7 
REMARK    4  A    between atoms: N1_7  and  C5_9 
REMARK    5  A    between atoms: C5_9  and  C6_10 
REMARK    6  A    between atoms: C5_9  and  C8_15 
REMARK       I    between atoms: C6_10  and  N2_12 
REMARK       I    between atoms: C8_15  and  N3_17 
REMARK    7  A    between atoms: N3_17  and  N4_19 
REMARK    8  A    between atoms: N4_19  and  C9_21 
ROOT
HETATM    1  C5  UNL     1      15.549  14.446  62.353  1.00  0.00     0.270 C 
ENDROOT
BRANCH   1   2
HETATM    2  N1  UNL     1      16.259  13.145  62.297  1.00  0.00    -0.350 N 
ATOM      3  H1  UNL     1      16.416  12.547  63.108  1.00  0.00     0.163 HD
BRANCH   2   4
HETATM    4  C4  UNL     1      16.702  12.822  60.959  1.00  0.00     0.142 C 
BRANCH   4   5
HETATM    5  C2  UNL     1      16.839  11.623  60.253  1.00  0.00    -0.021 C 
HETATM    6  C1  UNL     1      17.922  11.163  59.722  1.00  0.00     0.023 C 
HETATM    7  C3  UNL     1      15.568  10.780  60.134  1.00  0.00     0.052 C 
ENDBRANCH   4   5
BRANCH   4   8
HETATM    8  O1  UNL     1      17.055  13.886  60.247  1.00  0.00    -0.346 OA
ATOM      9  H1  UNL     1      16.361  14.531  60.175  1.00  0.00     0.219 HD
ENDBRANCH   4   8
ENDBRANCH   2   4
ENDBRANCH   1   2
BRANCH   1  10
HETATM   10  C6  UNL     1      15.546  15.083  63.655  1.00  0.00     0.249 C 
HETATM   11  O2  UNL     1      15.551  16.366  63.750  1.00  0.00    -0.271 OA
HETATM   12  N2  UNL     1      15.530  14.386  64.921  1.00  0.00    -0.363 N 
HETATM   13  C7  UNL     1      15.597  15.095  66.161  1.00  0.00     0.149 C 
ATOM     14  H2  UNL     1      15.470  13.368  64.931  1.00  0.00     0.162 HD
ENDBRANCH   1  10
BRANCH   1  15
HETATM   15  C8  UNL     1      14.120  14.118  62.041  1.00  0.00     0.268 C 
HETATM   16  O3  UNL     1      13.605  13.093  62.618  1.00  0.00    -0.269 OA
HETATM   17  N3  UNL     1      13.338  14.900  61.130  1.00  0.00    -0.266 N 
ATOM     18  H3  UNL     1      13.744  15.717  60.673  1.00  0.00     0.190 HD
BRANCH  17  19
HETATM   19  N4  UNL     1      12.024  14.538  60.873  1.00  0.00    -0.276 N 
ATOM     20  H4  UNL     1      11.314  14.796  61.559  1.00  0.00     0.189 HD
BRANCH  19  21
HETATM   21  C9  UNL     1      11.609  13.833  59.718  1.00  0.00     0.199 C 
HETATM   22  N5  UNL     1      10.337  14.056  59.171  1.00  0.00    -0.068 NA
HETATM   23  S1  UNL     1      12.593  12.737  58.998  1.00  0.00    -0.043 SA
ENDBRANCH  19  21
ENDBRANCH  17  19
ENDBRANCH   1  15
TORSDOF 8
ENDMDL
MODEL 4
REMARK VINA RESULT: -6.494736868      2.725      5.400
REMARK  8 active torsions:
REMARK  status: ('A' for Active; 'I' for Inactive)
REMARK    1  A    between atoms: C2_2  and  C4_4 
REMARK    2  A    between atoms: C4_4  and  O1_5 
REMARK    3  A    between atoms: C4_4  and  N1_7 
REMARK    4  A    between atoms: N1_7  and  C5_9 
REMARK    5  A    between atoms: C5_9  and  C6_10 
REMARK    6  A    between atoms: C5_9  and  C8_15 
REMARK       I    between atoms: C6_10  and  N2_12 
REMARK       I    between atoms: C8_15  and  N3_17 
REMARK    7  A    between atoms: N3_17  and  N4_19 
REMARK    8  A    between atoms: N4_19  and  C9_21 
ROOT
HETATM    1  C5  UNL     1      14.462  12.357  58.085  1.00  0.00     0.270 C 
ENDROOT
BRANCH   1   2
HETATM    2  N1  UNL     1      13.874  11.029  57.782  1.00  0.00    -0.350 N 
ATOM      3  H1  UNL     1      13.507  10.393  58.491  1.00  0.00     0.163 HD
BRANCH   2   4
HETATM    4  C4  UNL     1      13.880  10.739  56.365  1.00  0.00     0.142 C 
BRANCH   4   5
HETATM    5  C2  UNL     1      13.522   9.619  55.610  1.00  0.00    -0.021 C 
HETATM    6  C1  UNL     1      14.083   9.217  54.518  1.00  0.00     0.023 C 
HETATM    7  C3  UNL     1      12.364   8.789  56.168  1.00  0.00     0.052 C 
ENDBRANCH   4   5
BRANCH   4   8
HETATM    8  O1  UNL     1      14.316  11.749  55.621  1.00  0.00    -0.346 OA
ATOM      9  H1  UNL     1      14.682  12.459  56.136  1.00  0.00     0.219 HD
ENDBRANCH   4   8
ENDBRANCH   2   4
ENDBRANCH   1   2
BRANCH   1  10
HETATM   10  C6  UNL     1      15.605  12.327  58.975  1.00  0.00     0.249 C 
HETATM   11  O2  UNL     1      15.955  13.385  59.617  1.00  0.00    -0.271 OA
HETATM   12  N2  UNL     1      16.429  11.167  59.232  1.00  0.00    -0.363 N 
HETATM   13  C7  UNL     1      17.581  11.246  60.076  1.00  0.00     0.149 C 
ATOM     14  H2  UNL     1      16.183  10.275  58.804  1.00  0.00     0.162 HD
ENDBRANCH   1  10
BRANCH   1  15
HETATM   15  C8  UNL     1      13.381  13.099  58.812  1.00  0.00     0.268 C 
HETATM   16  O3  UNL     1      12.367  12.426  59.220  1.00  0.00    -0.269 OA
HETATM   17  N3  UNL     1      13.451  14.511  59.049  1.00  0.00    -0.266 N 
ATOM     18  H3  UNL     1      14.258  15.046  58.729  1.00  0.00     0.190 HD
BRANCH  17  19
HETATM   19  N4  UNL     1      12.413  15.143  59.717  1.00  0.00    -0.276 N 
ATOM     20  H4  UNL     1      11.573  15.374  59.186  1.00  0.00     0.189 HD
BRANCH  19  21
HETATM   21  C9  UNL     1      12.450  15.485  61.090  1.00  0.00     0.199 C 
HETATM   22  N5  UNL     1      11.313  16.015  61.717  1.00  0.00    -0.068 NA
HETATM   23  S1  UNL     1      13.814  15.282  61.976  1.00  0.00    -0.043 SA
ENDBRANCH  19  21
ENDBRANCH  17  19
ENDBRANCH   1  15
TORSDOF 8
ENDMDL
MODEL 5
REMARK VINA RESULT: -6.428025384      2.917      3.396
REMARK  8 active torsions:
REMARK  status: ('A' for Active; 'I' for Inactive)
REMARK    1  A    between atoms: C2_2  and  C4_4 
REMARK    2  A    between atoms: C4_4  and  O1_5 
REMARK    3  A    between atoms: C4_4  and  N1_7 
REMARK    4  A    between atoms: N1_7  and  C5_9 
REMARK    5  A    between atoms: C5_9  and  C6_10 
REMARK    6  A    between atoms: C5_9  and  C8_15 
REMARK       I    between atoms: C6_10  and  N2_12 
REMARK       I    between atoms: C8_15  and  N3_17 
REMARK    7  A    between atoms: N3_17  and  N4_19 
REMARK    8  A    between atoms: N4_19  and  C9_21 
ROOT
HETATM    1  C5  UNL     1      15.246  14.564  62.335  1.00  0.00     0.270 C 
ENDROOT
BRANCH   1   2
HETATM    2  N1  UNL     1      15.987  13.281  62.398  1.00  0.00    -0.350 N 
ATOM      3  H1  UNL     1      16.068  12.710  63.240  1.00  0.00     0.163 HD
BRANCH   2   4
HETATM    4  C4  UNL     1      16.582  12.931  61.127  1.00  0.00     0.142 C 
BRANCH   4   5
HETATM    5  C2  UNL     1      16.676  11.739  60.403  1.00  0.00    -0.021 C 
HETATM    6  C1  UNL     1      17.738  11.261  59.844  1.00  0.00     0.023 C 
HETATM    7  C3  UNL     1      15.384  10.928  60.298  1.00  0.00     0.052 C 
ENDBRANCH   4   5
BRANCH   4   8
HETATM    8  O1  UNL     1      17.163  13.957  60.515  1.00  0.00    -0.346 OA
ATOM      9  H1  UNL     1      16.582  14.408  59.914  1.00  0.00     0.219 HD
ENDBRANCH   4   8
ENDBRANCH   2   4
ENDBRANCH   1   2
BRANCH   1  10
HETATM   10  C6  UNL     1      15.158  15.278  63.594  1.00  0.00     0.249 C 
HETATM   11  O2  UNL     1      15.295  14.649  64.708  1.00  0.00    -0.271 OA
HETATM   12  N2  UNL     1      14.926  16.699  63.729  1.00  0.00    -0.363 N 
HETATM   13  C7  UNL     1      14.786  17.309  65.015  1.00  0.00     0.149 C 
ATOM     14  H2  UNL     1      14.862  17.277  62.892  1.00  0.00     0.162 HD
ENDBRANCH   1  10
BRANCH   1  15
HETATM   15  C8  UNL     1      13.843  14.180  61.969  1.00  0.00     0.268 C 
HETATM   16  O3  UNL     1      13.394  13.065  62.419  1.00  0.00    -0.269 OA
HETATM   17  N3  UNL     1      13.016  15.009  61.142  1.00  0.00    -0.266 N 
ATOM     18  H3  UNL     1      13.370  15.897  60.787  1.00  0.00     0.190 HD
BRANCH  17  19
HETATM   19  N4  UNL     1      11.731  14.593  60.829  1.00  0.00    -0.276 N 
ATOM     20  H4  UNL     1      10.988  14.788  61.500  1.00  0.00     0.189 HD
BRANCH  19  21
HETATM   21  C9  UNL     1      11.389  13.915  59.634  1.00  0.00     0.199 C 
HETATM   22  N5  UNL     1      10.155  14.156  59.013  1.00  0.00    -0.068 NA
HETATM   23  S1  UNL     1      12.413  12.831  58.954  1.00  0.00    -0.043 SA
ENDBRANCH  19  21
ENDBRANCH  17  19
ENDBRANCH   1  15
TORSDOF 8
ENDMDL
