MODEL 1
REMARK VINA RESULT: -7.857319100      0.000      0.000
REMARK  4 active torsions:
REMARK  status: ('A' for Active; 'I' for Inactive)
REMARK    1  A    between atoms: C2_2  and  N2_6 
REMARK    2  A    between atoms: C5_9  and  N3_10 
REMARK       I    between atoms: N3_10  and  C6_12 
REMARK    3  A    between atoms: C6_12  and  C7_14 
REMARK       I    between atoms: C7_14  and  N4_16 
REMARK    4  A    between atoms: N4_16  and  N5_18 
ROOT
HETATM    1  N3  UNL     1      13.899  14.218  60.405  1.00  0.00    -0.348 N 
ATOM      2  H3  UNL     1      14.258  13.806  61.266  1.00  0.00     0.163 HD
HETATM    3  C6  UNL     1      13.218  15.449  60.504  1.00  0.00     0.311 C 
HETATM    4  O1  UNL     1      12.765  15.982  59.462  1.00  0.00    -0.262 OA
ENDROOT
BRANCH   1   5
HETATM    5  C5  UNL     1      14.124  13.505  59.185  1.00  0.00     0.087 C 
HETATM    6  C4  UNL     1      15.569  13.193  58.982  1.00  0.00     0.045 C 
HETATM    7  C3  UNL     1      15.758  11.859  58.286  1.00  0.00     0.126 C 
HETATM    8  N2  UNL     1      14.772  11.795  57.228  1.00  0.00    -0.371 N 
HETATM    9  C10 UNL     1      13.377  11.794  57.615  1.00  0.00     0.126 C 
HETATM   10  C9  UNL     1      13.238  12.288  59.045  1.00  0.00     0.045 C 
BRANCH   8  11
HETATM   11  C2  UNL     1      15.208  11.734  55.880  1.00  0.00     0.068 C 
HETATM   12  C1  UNL     1      14.901  10.568  55.038  1.00  0.00     0.088 C 
HETATM   13  N1  UNL     1      15.872  12.713  55.412  1.00  0.00    -0.389 N 
ATOM     14  H12 UNL     1      16.186  12.670  54.442  1.00  0.00     0.157 HD
ATOM     15  H11 UNL     1      16.085  13.521  55.995  1.00  0.00     0.157 HD
ENDBRANCH   8  11
ENDBRANCH   1   5
BRANCH   3  16
HETATM   16  C7  UNL     1      13.026  16.119  61.771  1.00  0.00     0.327 C 
HETATM   17  O2  UNL     1      11.863  16.440  62.108  1.00  0.00    -0.261 OA
HETATM   18  N4  UNL     1      14.117  16.414  62.621  1.00  0.00    -0.260 N 
ATOM     19  H4  UNL     1      15.052  16.141  62.321  1.00  0.00     0.190 HD
BRANCH  18  20
HETATM   20  N5  UNL     1      13.978  17.058  63.848  1.00  0.00    -0.273 N 
HETATM   21  C8  UNL     1      15.020  17.414  64.508  1.00  0.00     0.215 C 
HETATM   22  N6  UNL     1      16.300  17.139  63.966  1.00  0.00    -0.065 NA
HETATM   23  N7  UNL     1      14.934  18.073  65.764  1.00  0.00    -0.065 NA
ATOM     24  H5  UNL     1      13.048  17.246  64.223  1.00  0.00     0.189 HD
ENDBRANCH  18  20
ENDBRANCH   3  16
TORSDOF 4
ENDMDL
MODEL 2
REMARK VINA RESULT: -7.516427825      1.802      2.438
REMARK  4 active torsions:
REMARK  status: ('A' for Active; 'I' for Inactive)
REMARK    1  A    between atoms: C2_2  and  N2_6 
REMARK    2  A    between atoms: C5_9  and  N3_10 
REMARK       I    between atoms: N3_10  and  C6_12 
REMARK    3  A    between atoms: C6_12  and  C7_14 
REMARK       I    between atoms: C7_14  and  N4_16 
REMARK    4  A    between atoms: N4_16  and  N5_18 
ROOT
HETATM    1  N3  UNL     1      14.029  13.428  58.549  1.00  0.00    -0.348 N 
ATOM      2  H3  UNL     1      14.874  13.995  58.479  1.00  0.00     0.163 HD
HETATM    3  C6  UNL     1      13.029  13.855  59.447  1.00  0.00     0.311 C 
HETATM    4  O1  UNL     1      11.976  13.180  59.556  1.00  0.00    -0.262 OA
ENDROOT
BRANCH   1   5
HETATM    5  C5  UNL     1      13.945  12.259  57.729  1.00  0.00     0.087 C 
HETATM    6  C4  UNL     1      14.580  12.469  56.395  1.00  0.00     0.045 C 
HETATM    7  C3  UNL     1      15.241  11.202  55.888  1.00  0.00     0.126 C 
HETATM    8  N2  UNL     1      14.332  10.112  56.175  1.00  0.00    -0.371 N 
HETATM    9  C10 UNL     1      14.050   9.828  57.566  1.00  0.00     0.126 C 
HETATM   10  C9  UNL     1      14.447  11.016  58.427  1.00  0.00     0.045 C 
BRANCH   8  11
HETATM   11  C2  UNL     1      13.769   9.380  55.099  1.00  0.00     0.068 C 
HETATM   12  C1  UNL     1      14.502   9.210  53.836  1.00  0.00     0.088 C 
HETATM   13  N1  UNL     1      12.612   8.872  55.249  1.00  0.00    -0.389 N 
ATOM     14  H12 UNL     1      12.207   8.346  54.476  1.00  0.00     0.157 HD
ATOM     15  H11 UNL     1      12.104   8.990  56.125  1.00  0.00     0.157 HD
ENDBRANCH   8  11
ENDBRANCH   1   5
BRANCH   3  16
HETATM   16  C7  UNL     1      13.177  15.050  60.248  1.00  0.00     0.327 C 
HETATM   17  O2  UNL     1      12.806  16.145  59.765  1.00  0.00    -0.261 OA
HETATM   18  N4  UNL     1      13.726  15.001  61.550  1.00  0.00    -0.260 N 
ATOM     19  H4  UNL     1      14.018  14.095  61.918  1.00  0.00     0.190 HD
BRANCH  18  20
HETATM   20  N5  UNL     1      13.887  16.125  62.356  1.00  0.00    -0.273 N 
HETATM   21  C8  UNL     1      14.575  16.047  63.437  1.00  0.00     0.215 C 
HETATM   22  N6  UNL     1      15.158  14.804  63.789  1.00  0.00    -0.065 NA
HETATM   23  N7  UNL     1      14.770  17.163  64.294  1.00  0.00    -0.065 NA
ATOM     24  H5  UNL     1      13.459  17.011  62.087  1.00  0.00     0.189 HD
ENDBRANCH  18  20
ENDBRANCH   3  16
TORSDOF 4
ENDMDL
MODEL 3
REMARK VINA RESULT: -7.331181847      2.716      3.648
REMARK  4 active torsions:
REMARK  status: ('A' for Active; 'I' for Inactive)
REMARK    1  A    between atoms: C2_2  and  N2_6 
REMARK    2  A    between atoms: C5_9  and  N3_10 
REMARK       I    between atoms: N3_10  and  C6_12 
REMARK    3  A    between atoms: C6_12  and  C7_14 
REMARK       I    between atoms: C7_14  and  N4_16 
REMARK    4  A    between atoms: N4_16  and  N5_18 
ROOT
HETATM    1  N3  UNL     1      15.568  12.453  58.971  1.00  0.00    -0.348 N 
ATOM      2  H3  UNL     1      15.763  13.447  58.849  1.00  0.00     0.163 HD
HETATM    3  C6  UNL     1      15.633  11.931  60.280  1.00  0.00     0.311 C 
HETATM    4  O1  UNL     1      15.397  10.712  60.463  1.00  0.00    -0.262 OA
ENDROOT
BRANCH   1   5
HETATM    5  C5  UNL     1      15.249  11.692  57.803  1.00  0.00     0.087 C 
HETATM    6  C4  UNL     1      13.791  11.380  57.724  1.00  0.00     0.045 C 
HETATM    7  C3  UNL     1      13.302  11.367  56.288  1.00  0.00     0.126 C 
HETATM    8  N2  UNL     1      14.308  10.678  55.509  1.00  0.00    -0.371 N 
HETATM    9  C10 UNL     1      15.620  11.283  55.428  1.00  0.00     0.126 C 
HETATM   10  C9  UNL     1      15.784  12.312  56.533  1.00  0.00     0.045 C 
BRANCH   8  11
HETATM   11  C2  UNL     1      13.970   9.459  54.868  1.00  0.00     0.068 C 
HETATM   12  C1  UNL     1      14.822   8.900  53.808  1.00  0.00     0.088 C 
HETATM   13  N1  UNL     1      12.910   8.856  55.230  1.00  0.00    -0.389 N 
ATOM     14  H12 UNL     1      12.666   7.979  54.770  1.00  0.00     0.157 HD
ATOM     15  H11 UNL     1      12.319   9.243  55.965  1.00  0.00     0.157 HD
ENDBRANCH   8  11
ENDBRANCH   1   5
BRANCH   3  16
HETATM   16  C7  UNL     1      15.961  12.758  61.420  1.00  0.00     0.327 C 
HETATM   17  O2  UNL     1      17.135  13.181  61.535  1.00  0.00    -0.261 OA
HETATM   18  N4  UNL     1      14.990  13.090  62.393  1.00  0.00    -0.260 N 
ATOM     19  H4  UNL     1      14.042  12.732  62.273  1.00  0.00     0.190 HD
BRANCH  18  20
HETATM   20  N5  UNL     1      15.262  13.882  63.506  1.00  0.00    -0.273 N 
HETATM   21  C8  UNL     1      14.953  15.127  63.498  1.00  0.00     0.215 C 
HETATM   22  N6  UNL     1      14.338  15.674  62.344  1.00  0.00    -0.065 NA
HETATM   23  N7  UNL     1      15.208  15.978  64.607  1.00  0.00    -0.065 NA
ATOM     24  H5  UNL     1      15.706  13.471  64.327  1.00  0.00     0.189 HD
ENDBRANCH  18  20
ENDBRANCH   3  16
TORSDOF 4
ENDMDL
MODEL 4
REMARK VINA RESULT: -7.303896696      1.086      1.086
REMARK  4 active torsions:
REMARK  status: ('A' for Active; 'I' for Inactive)
REMARK    1  A    between atoms: C2_2  and  N2_6 
REMARK    2  A    between atoms: C5_9  and  N3_10 
REMARK       I    between atoms: N3_10  and  C6_12 
REMARK    3  A    between atoms: C6_12  and  C7_14 
REMARK       I    between atoms: C7_14  and  N4_16 
REMARK    4  A    between atoms: N4_16  and  N5_18 
ROOT
HETATM    1  N3  UNL     1      14.567  13.468  60.764  1.00  0.00    -0.348 N 
ATOM      2  H3  UNL     1      14.840  12.833  61.513  1.00  0.00     0.163 HD
HETATM    3  C6  UNL     1      14.201  14.782  61.123  1.00  0.00     0.311 C 
HETATM    4  O1  UNL     1      13.860  15.589  60.223  1.00  0.00    -0.262 OA
ENDROOT
BRANCH   1   5
HETATM    5  C5  UNL     1      14.582  12.961  59.426  1.00  0.00     0.087 C 
HETATM    6  C4  UNL     1      15.897  12.345  59.081  1.00  0.00     0.045 C 
HETATM    7  C3  UNL     1      15.728  11.159  58.151  1.00  0.00     0.126 C 
HETATM    8  N2  UNL     1      14.741  11.538  57.162  1.00  0.00    -0.371 N 
HETATM    9  C10 UNL     1      13.399  11.812  57.630  1.00  0.00     0.126 C 
HETATM   10  C9  UNL     1      13.413  12.050  59.130  1.00  0.00     0.045 C 
BRANCH   8  11
HETATM   11  C2  UNL     1      15.126  11.624  55.800  1.00  0.00     0.068 C 
HETATM   12  C1  UNL     1      14.953  10.479  54.893  1.00  0.00     0.088 C 
HETATM   13  N1  UNL     1      15.625  12.714  55.376  1.00  0.00    -0.389 N 
ATOM     14  H12 UNL     1      15.902  12.776  54.397  1.00  0.00     0.157 HD
ATOM     15  H11 UNL     1      15.744  13.508  56.005  1.00  0.00     0.157 HD
ENDBRANCH   8  11
ENDBRANCH   1   5
BRANCH   3  16
HETATM   16  C7  UNL     1      14.207  15.232  62.497  1.00  0.00     0.327 C 
HETATM   17  O2  UNL     1      14.343  14.380  63.406  1.00  0.00    -0.261 OA
HETATM   18  N4  UNL     1      14.065  16.600  62.825  1.00  0.00    -0.260 N 
ATOM     19  H4  UNL     1      13.957  17.272  62.064  1.00  0.00     0.190 HD
BRANCH  18  20
HETATM   20  N5  UNL     1      14.065  17.078  64.133  1.00  0.00    -0.273 N 
HETATM   21  C8  UNL     1      15.141  17.559  64.641  1.00  0.00     0.215 C 
HETATM   22  N6  UNL     1      16.317  17.591  63.850  1.00  0.00    -0.065 NA
HETATM   23  N7  UNL     1      15.195  18.059  65.969  1.00  0.00    -0.065 NA
ATOM     24  H5  UNL     1      13.210  17.046  64.687  1.00  0.00     0.189 HD
ENDBRANCH  18  20
ENDBRANCH   3  16
TORSDOF 4
ENDMDL
MODEL 5
REMARK VINA RESULT: -7.272379270      2.756      3.003
REMARK  4 active torsions:
REMARK  status: ('A' for Active; 'I' for Inactive)
REMARK    1  A    between atoms: C2_2  and  N2_6 
REMARK    2  A    between atoms: C5_9  and  N3_10 
REMARK       I    between atoms: N3_10  and  C6_12 
REMARK    3  A    between atoms: C6_12  and  C7_14 
REMARK       I    between atoms: C7_14  and  N4_16 
REMARK    4  A    between atoms: N4_16  and  N5_18 
ROOT
HETATM    1  N3  UNL     1      15.463  13.570  61.202  1.00  0.00    -0.348 N 
ATOM      2  H3  UNL     1      16.360  14.051  61.129  1.00  0.00     0.163 HD
HETATM    3  C6  UNL     1      14.719  13.752  62.386  1.00  0.00     0.311 C 
HETATM    4  O1  UNL     1      13.611  13.174  62.507  1.00  0.00    -0.262 OA
ENDROOT
BRANCH   1   5
HETATM    5  C5  UNL     1      15.053  12.760  60.097  1.00  0.00     0.087 C 
HETATM    6  C4  UNL     1      15.153  13.495  58.802  1.00  0.00     0.045 C 
HETATM    7  C3  UNL     1      15.548  12.570  57.666  1.00  0.00     0.126 C 
HETATM    8  N2  UNL     1      14.785  11.351  57.834  1.00  0.00    -0.371 N 
HETATM    9  C10 UNL     1      15.032  10.569  59.026  1.00  0.00     0.126 C 
HETATM   10  C9  UNL     1      15.748  11.418  60.062  1.00  0.00     0.045 C 
BRANCH   8  11
HETATM   11  C2  UNL     1      13.845  10.982  56.838  1.00  0.00     0.068 C 
HETATM   12  C1  UNL     1      13.457   9.577  56.650  1.00  0.00     0.088 C 
HETATM   13  N1  UNL     1      13.343  11.895  56.109  1.00  0.00    -0.389 N 
ATOM     14  H12 UNL     1      12.667  11.630  55.393  1.00  0.00     0.157 HD
ATOM     15  H11 UNL     1      13.612  12.870  56.239  1.00  0.00     0.157 HD
ENDBRANCH   8  11
ENDBRANCH   1   5
BRANCH   3  16
HETATM   16  C7  UNL     1      15.192  14.587  63.468  1.00  0.00     0.327 C 
HETATM   17  O2  UNL     1      15.348  15.812  63.255  1.00  0.00    -0.261 OA
HETATM   18  N4  UNL     1      15.476  14.048  64.744  1.00  0.00    -0.260 N 
ATOM     19  H4  UNL     1      15.339  13.048  64.888  1.00  0.00     0.190 HD
BRANCH  18  20
HETATM   20  N5  UNL     1      15.933  14.814  65.814  1.00  0.00    -0.273 N 
HETATM   21  C8  UNL     1      15.652  14.468  67.017  1.00  0.00     0.215 C 
HETATM   22  N6  UNL     1      14.874  13.303  67.231  1.00  0.00    -0.065 NA
HETATM   23  N7  UNL     1      16.094  15.214  68.143  1.00  0.00    -0.065 NA
ATOM     24  H5  UNL     1      16.492  15.650  65.640  1.00  0.00     0.189 HD
ENDBRANCH  18  20
ENDBRANCH   3  16
TORSDOF 4
ENDMDL
