MODEL 1
REMARK VINA RESULT: -7.242617734      0.000      0.000
REMARK  5 active torsions:
REMARK  status: ('A' for Active; 'I' for Inactive)
REMARK    1  A    between atoms: C2_2  and  O1_3 
REMARK    2  A    between atoms: C2_2  and  C3_5 
REMARK       I    between atoms: C3_5  and  N1_7 
REMARK    3  A    between atoms: N1_7  and  N2_9 
REMARK       I    between atoms: N2_9  and  C4_11 
REMARK       I    between atoms: C4_11  and  N6_19 
REMARK    4  A    between atoms: N3_12  and  N4_14 
REMARK    5  A    between atoms: N4_14  and  N5_16 
REMARK       I    between atoms: N6_19  and  C5_20 
REMARK       I    between atoms: C5_20  and  N7_22 
ROOT
HETATM    1  N2  UNL     1      15.934  14.814  63.523  1.00  0.00    -0.255 N 
ATOM      2  H2  UNL     1      16.369  15.726  63.663  1.00  0.00     0.191 HD
HETATM    3  C4  UNL     1      15.430  14.541  62.227  1.00  0.00     0.294 C 
HETATM    4  N3  UNL     1      14.436  15.286  61.783  1.00  0.00    -0.244 N 
ATOM      5  H3  UNL     1      14.087  15.070  60.849  1.00  0.00     0.192 HD
HETATM    6  N6  UNL     1      15.901  13.548  61.358  1.00  0.00    -0.313 NA
HETATM    7  C5  UNL     1      16.338  12.627  60.551  1.00  0.00     0.399 C 
HETATM    8  O3  UNL     1      17.260  11.753  60.783  1.00  0.00    -0.230 OA
HETATM    9  N7  UNL     1      15.796  12.480  59.203  1.00  0.00    -0.322 N 
HETATM   10  C6  UNL     1      14.763  13.257  58.559  1.00  0.00     0.129 C 
HETATM   11  C7  UNL     1      15.326  13.365  57.146  1.00  0.00     0.022 C 
HETATM   12  C8  UNL     1      15.923  12.000  56.867  1.00  0.00     0.022 C 
HETATM   13  C9  UNL     1      16.241  11.495  58.253  1.00  0.00     0.129 C 
ENDROOT
BRANCH   1  14
HETATM   14  N1  UNL     1      15.894  13.968  64.619  1.00  0.00    -0.264 N 
HETATM   15  C3  UNL     1      15.760  14.477  65.939  1.00  0.00     0.264 C 
HETATM   16  O2  UNL     1      15.672  15.739  66.098  1.00  0.00    -0.269 OA
ATOM     17  H1  UNL     1      15.963  12.961  64.476  1.00  0.00     0.190 HD
BRANCH  15  18
HETATM   18  C2  UNL     1      15.718  13.639  67.148  1.00  0.00     0.207 C 
HETATM   19  C1  UNL     1      16.790  12.543  66.968  1.00  0.00     0.049 C 
BRANCH  18  20
HETATM   20  O1  UNL     1      14.471  13.123  67.397  1.00  0.00    -0.386 OA
ATOM     21  H1  UNL     1      14.264  13.096  68.325  1.00  0.00     0.210 HD
ENDBRANCH  18  20
ENDBRANCH  15  18
ENDBRANCH   1  14
BRANCH   4  22
HETATM   22  N4  UNL     1      13.825  16.311  62.437  1.00  0.00    -0.246 N 
ATOM     23  H4  UNL     1      14.272  16.659  63.285  1.00  0.00     0.208 HD
BRANCH  22  24
HETATM   24  N5  UNL     1      12.727  16.880  62.073  1.00  0.00    -0.331 N 
ATOM     25  H52 UNL     1      12.287  16.511  61.229  1.00  0.00     0.178 HD
ATOM     26  H51 UNL     1      12.275  17.656  62.556  1.00  0.00     0.178 HD
ENDBRANCH  22  24
ENDBRANCH   4  22
TORSDOF 5
ENDMDL
MODEL 2
REMARK VINA RESULT: -7.209493170      3.371      4.857
REMARK  5 active torsions:
REMARK  status: ('A' for Active; 'I' for Inactive)
REMARK    1  A    between atoms: C2_2  and  O1_3 
REMARK    2  A    between atoms: C2_2  and  C3_5 
REMARK       I    between atoms: C3_5  and  N1_7 
REMARK    3  A    between atoms: N1_7  and  N2_9 
REMARK       I    between atoms: N2_9  and  C4_11 
REMARK       I    between atoms: C4_11  and  N6_19 
REMARK    4  A    between atoms: N3_12  and  N4_14 
REMARK    5  A    between atoms: N4_14  and  N5_16 
REMARK       I    between atoms: N6_19  and  C5_20 
REMARK       I    between atoms: C5_20  and  N7_22 
ROOT
HETATM    1  N2  UNL     1      14.174  14.313  59.368  1.00  0.00    -0.255 N 
ATOM      2  H2  UNL     1      13.380  14.950  59.420  1.00  0.00     0.191 HD
HETATM    3  C4  UNL     1      13.927  13.031  58.818  1.00  0.00     0.294 C 
HETATM    4  N3  UNL     1      13.098  12.234  59.464  1.00  0.00    -0.244 N 
ATOM      5  H3  UNL     1      12.936  11.315  59.052  1.00  0.00     0.192 HD
HETATM    6  N6  UNL     1      14.480  12.527  57.634  1.00  0.00    -0.313 NA
HETATM    7  C5  UNL     1      14.993  12.059  56.535  1.00  0.00     0.399 C 
HETATM    8  O3  UNL     1      15.859  12.632  55.767  1.00  0.00    -0.230 OA
HETATM    9  N7  UNL     1      14.610  10.749  56.016  1.00  0.00    -0.322 N 
HETATM   10  C6  UNL     1      13.673   9.801  56.571  1.00  0.00     0.129 C 
HETATM   11  C7  UNL     1      12.998   9.291  55.303  1.00  0.00     0.022 C 
HETATM   12  C8  UNL     1      14.122   9.168  54.293  1.00  0.00     0.022 C 
HETATM   13  C9  UNL     1      15.125  10.175  54.801  1.00  0.00     0.129 C 
ENDROOT
BRANCH   1  14
HETATM   14  N1  UNL     1      15.386  14.788  59.843  1.00  0.00    -0.264 N 
HETATM   15  C3  UNL     1      16.074  14.132  60.899  1.00  0.00     0.264 C 
HETATM   16  O2  UNL     1      15.550  13.084  61.406  1.00  0.00    -0.269 OA
ATOM     17  H1  UNL     1      15.793  15.625  59.426  1.00  0.00     0.190 HD
BRANCH  15  18
HETATM   18  C2  UNL     1      17.358  14.583  61.456  1.00  0.00     0.207 C 
HETATM   19  C1  UNL     1      17.074  15.071  62.893  1.00  0.00     0.049 C 
BRANCH  18  20
HETATM   20  O1  UNL     1      17.970  15.538  60.684  1.00  0.00    -0.386 OA
ATOM     21  H1  UNL     1      18.567  15.166  60.045  1.00  0.00     0.210 HD
ENDBRANCH  18  20
ENDBRANCH  15  18
ENDBRANCH   1  14
BRANCH   4  22
HETATM   22  N4  UNL     1      12.434  12.505  60.621  1.00  0.00    -0.246 N 
ATOM     23  H4  UNL     1      11.522  12.956  60.543  1.00  0.00     0.208 HD
BRANCH  22  24
HETATM   24  N5  UNL     1      12.862  12.239  61.807  1.00  0.00    -0.331 N 
ATOM     25  H52 UNL     1      12.282  11.611  62.365  1.00  0.00     0.178 HD
ATOM     26  H51 UNL     1      13.720  12.602  62.220  1.00  0.00     0.178 HD
ENDBRANCH  22  24
ENDBRANCH   4  22
TORSDOF 5
ENDMDL
MODEL 3
REMARK VINA RESULT: -7.188486259      2.932      7.052
REMARK  5 active torsions:
REMARK  status: ('A' for Active; 'I' for Inactive)
REMARK    1  A    between atoms: C2_2  and  O1_3 
REMARK    2  A    between atoms: C2_2  and  C3_5 
REMARK       I    between atoms: C3_5  and  N1_7 
REMARK    3  A    between atoms: N1_7  and  N2_9 
REMARK       I    between atoms: N2_9  and  C4_11 
REMARK       I    between atoms: C4_11  and  N6_19 
REMARK    4  A    between atoms: N3_12  and  N4_14 
REMARK    5  A    between atoms: N4_14  and  N5_16 
REMARK       I    between atoms: N6_19  and  C5_20 
REMARK       I    between atoms: C5_20  and  N7_22 
ROOT
HETATM    1  N2  UNL     1      12.634  12.261  58.967  1.00  0.00    -0.255 N 
ATOM      2  H2  UNL     1      11.878  11.610  59.179  1.00  0.00     0.191 HD
HETATM    3  C4  UNL     1      13.039  13.127  60.013  1.00  0.00     0.294 C 
HETATM    4  N3  UNL     1      12.162  14.006  60.458  1.00  0.00    -0.244 N 
ATOM      5  H3  UNL     1      12.476  14.622  61.209  1.00  0.00     0.192 HD
HETATM    6  N6  UNL     1      14.295  13.132  60.632  1.00  0.00    -0.313 NA
HETATM    7  C5  UNL     1      15.462  13.136  61.207  1.00  0.00     0.399 C 
HETATM    8  O3  UNL     1      16.486  12.408  60.910  1.00  0.00    -0.230 OA
HETATM    9  N7  UNL     1      15.750  14.023  62.331  1.00  0.00    -0.322 N 
HETATM   10  C6  UNL     1      14.878  14.982  62.967  1.00  0.00     0.129 C 
HETATM   11  C7  UNL     1      15.260  14.790  64.430  1.00  0.00     0.022 C 
HETATM   12  C8  UNL     1      16.765  14.609  64.412  1.00  0.00     0.022 C 
HETATM   13  C9  UNL     1      17.011  14.071  63.024  1.00  0.00     0.129 C 
ENDROOT
BRANCH   1  14
HETATM   14  N1  UNL     1      13.161  12.210  57.687  1.00  0.00    -0.264 N 
HETATM   15  C3  UNL     1      14.147  11.250  57.333  1.00  0.00     0.264 C 
HETATM   16  O2  UNL     1      14.539  10.426  58.224  1.00  0.00    -0.269 OA
ATOM     17  H1  UNL     1      12.834  12.874  56.985  1.00  0.00     0.190 HD
BRANCH  15  18
HETATM   18  C2  UNL     1      14.753  11.142  55.997  1.00  0.00     0.207 C 
HETATM   19  C1  UNL     1      15.436  12.495  55.707  1.00  0.00     0.049 C 
BRANCH  18  20
HETATM   20  O1  UNL     1      13.850  10.786  55.027  1.00  0.00    -0.386 OA
ATOM     21  H1  UNL     1      14.223  10.202  54.376  1.00  0.00     0.210 HD
ENDBRANCH  18  20
ENDBRANCH  15  18
ENDBRANCH   1  14
BRANCH   4  22
HETATM   22  N4  UNL     1      10.884  14.181  60.024  1.00  0.00    -0.246 N 
ATOM     23  H4  UNL     1      10.134  13.982  60.686  1.00  0.00     0.208 HD
BRANCH  22  24
HETATM   24  N5  UNL     1      10.544  14.579  58.846  1.00  0.00    -0.331 N 
ATOM     25  H52 UNL     1      10.489  13.858  58.126  1.00  0.00     0.178 HD
ATOM     26  H51 UNL     1      10.330  15.542  58.587  1.00  0.00     0.178 HD
ENDBRANCH  22  24
ENDBRANCH   4  22
TORSDOF 5
ENDMDL
MODEL 4
REMARK VINA RESULT: -7.181318201      3.103      6.990
REMARK  5 active torsions:
REMARK  status: ('A' for Active; 'I' for Inactive)
REMARK    1  A    between atoms: C2_2  and  O1_3 
REMARK    2  A    between atoms: C2_2  and  C3_5 
REMARK       I    between atoms: C3_5  and  N1_7 
REMARK    3  A    between atoms: N1_7  and  N2_9 
REMARK       I    between atoms: N2_9  and  C4_11 
REMARK       I    between atoms: C4_11  and  N6_19 
REMARK    4  A    between atoms: N3_12  and  N4_14 
REMARK    5  A    between atoms: N4_14  and  N5_16 
REMARK       I    between atoms: N6_19  and  C5_20 
REMARK       I    between atoms: C5_20  and  N7_22 
ROOT
HETATM    1  N2  UNL     1      13.063  12.086  60.445  1.00  0.00    -0.255 N 
ATOM      2  H2  UNL     1      12.325  11.459  60.766  1.00  0.00     0.191 HD
HETATM    3  C4  UNL     1      13.154  13.345  61.088  1.00  0.00     0.294 C 
HETATM    4  N3  UNL     1      12.139  14.178  60.954  1.00  0.00    -0.244 N 
ATOM      5  H3  UNL     1      12.227  15.080  61.423  1.00  0.00     0.192 HD
HETATM    6  N6  UNL     1      14.228  13.791  61.867  1.00  0.00    -0.313 NA
HETATM    7  C5  UNL     1      15.225  14.205  62.592  1.00  0.00     0.399 C 
HETATM    8  O3  UNL     1      16.337  13.591  62.822  1.00  0.00    -0.230 OA
HETATM    9  N7  UNL     1      15.182  15.497  63.274  1.00  0.00    -0.322 N 
HETATM   10  C6  UNL     1      14.123  16.477  63.278  1.00  0.00     0.129 C 
HETATM   11  C7  UNL     1      14.166  16.939  64.730  1.00  0.00     0.022 C 
HETATM   12  C8  UNL     1      15.642  17.006  65.067  1.00  0.00     0.022 C 
HETATM   13  C9  UNL     1      16.240  16.011  64.103  1.00  0.00     0.129 C 
ENDROOT
BRANCH   1  14
HETATM   14  N1  UNL     1      13.876  11.619  59.425  1.00  0.00    -0.264 N 
HETATM   15  C3  UNL     1      13.493  11.740  58.062  1.00  0.00     0.264 C 
HETATM   16  O2  UNL     1      12.377  12.296  57.792  1.00  0.00    -0.269 OA
ATOM     17  H1  UNL     1      14.766  11.179  59.657  1.00  0.00     0.190 HD
BRANCH  15  18
HETATM   18  C2  UNL     1      14.302  11.263  56.930  1.00  0.00     0.207 C 
HETATM   19  C1  UNL     1      15.703  11.892  57.087  1.00  0.00     0.049 C 
BRANCH  18  20
HETATM   20  O1  UNL     1      13.732  11.537  55.712  1.00  0.00    -0.386 OA
ATOM     21  H1  UNL     1      12.811  11.763  55.780  1.00  0.00     0.210 HD
ENDBRANCH  18  20
ENDBRANCH  15  18
ENDBRANCH   1  14
BRANCH   4  22
HETATM   22  N4  UNL     1      10.988  13.964  60.259  1.00  0.00    -0.246 N 
ATOM     23  H4  UNL     1      10.276  13.384  60.702  1.00  0.00     0.208 HD
BRANCH  22  24
HETATM   24  N5  UNL     1      10.725  14.435  59.088  1.00  0.00    -0.331 N 
ATOM     25  H52 UNL     1      11.165  15.324  58.851  1.00  0.00     0.178 HD
ATOM     26  H51 UNL     1      10.121  13.992  58.396  1.00  0.00     0.178 HD
ENDBRANCH  22  24
ENDBRANCH   4  22
TORSDOF 5
ENDMDL
MODEL 5
REMARK VINA RESULT: -6.894487998      3.563      7.667
REMARK  5 active torsions:
REMARK  status: ('A' for Active; 'I' for Inactive)
REMARK    1  A    between atoms: C2_2  and  O1_3 
REMARK    2  A    between atoms: C2_2  and  C3_5 
REMARK       I    between atoms: C3_5  and  N1_7 
REMARK    3  A    between atoms: N1_7  and  N2_9 
REMARK       I    between atoms: N2_9  and  C4_11 
REMARK       I    between atoms: C4_11  and  N6_19 
REMARK    4  A    between atoms: N3_12  and  N4_14 
REMARK    5  A    between atoms: N4_14  and  N5_16 
REMARK       I    between atoms: N6_19  and  C5_20 
REMARK       I    between atoms: C5_20  and  N7_22 
ROOT
HETATM    1  N2  UNL     1      15.596  13.307  57.689  1.00  0.00    -0.255 N 
ATOM      2  H2  UNL     1      16.481  13.554  57.247  1.00  0.00     0.191 HD
HETATM    3  C4  UNL     1      15.489  13.551  59.081  1.00  0.00     0.294 C 
HETATM    4  N3  UNL     1      16.288  12.878  59.886  1.00  0.00    -0.244 N 
ATOM      5  H3  UNL     1      16.191  13.068  60.884  1.00  0.00     0.192 HD
HETATM    6  N6  UNL     1      14.610  14.457  59.687  1.00  0.00    -0.313 NA
HETATM    7  C5  UNL     1      13.794  15.298  60.251  1.00  0.00     0.399 C 
HETATM    8  O3  UNL     1      12.894  16.024  59.676  1.00  0.00    -0.230 OA
HETATM    9  N7  UNL     1      13.819  15.528  61.693  1.00  0.00    -0.322 N 
HETATM   10  C6  UNL     1      14.675  14.923  62.686  1.00  0.00     0.129 C 
HETATM   11  C7  UNL     1      14.955  16.119  63.589  1.00  0.00     0.022 C 
HETATM   12  C8  UNL     1      13.633  16.856  63.670  1.00  0.00     0.022 C 
HETATM   13  C9  UNL     1      12.958  16.453  62.382  1.00  0.00     0.129 C 
ENDROOT
BRANCH   1  14
HETATM   14  N1  UNL     1      14.620  12.765  56.868  1.00  0.00    -0.264 N 
HETATM   15  C3  UNL     1      14.266  11.392  56.949  1.00  0.00     0.264 C 
HETATM   16  O2  UNL     1      14.867  10.659  57.804  1.00  0.00    -0.269 OA
ATOM     17  H1  UNL     1      14.147  13.364  56.192  1.00  0.00     0.190 HD
BRANCH  15  18
HETATM   18  C2  UNL     1      13.246  10.750  56.106  1.00  0.00     0.207 C 
HETATM   19  C1  UNL     1      12.844   9.438  56.814  1.00  0.00     0.049 C 
BRANCH  18  20
HETATM   20  O1  UNL     1      13.667  10.547  54.816  1.00  0.00    -0.386 OA
ATOM     21  H1  UNL     1      13.579  11.324  54.276  1.00  0.00     0.210 HD
ENDBRANCH  18  20
ENDBRANCH  15  18
ENDBRANCH   1  14
BRANCH   4  22
HETATM   22  N4  UNL     1      17.226  11.959  59.531  1.00  0.00    -0.246 N 
ATOM     23  H4  UNL     1      17.985  12.274  58.927  1.00  0.00     0.208 HD
BRANCH  22  24
HETATM   24  N5  UNL     1      17.236  10.722  59.896  1.00  0.00    -0.331 N 
ATOM     25  H52 UNL     1      17.434  10.039  59.165  1.00  0.00     0.178 HD
ATOM     26  H51 UNL     1      17.062  10.385  60.842  1.00  0.00     0.178 HD
ENDBRANCH  22  24
ENDBRANCH   4  22
TORSDOF 5
ENDMDL
