MODEL 1
REMARK VINA RESULT: -8.954220677      0.000      0.000
REMARK  3 active torsions:
REMARK  status: ('A' for Active; 'I' for Inactive)
REMARK    1  A    between atoms: C4_4  and  C5_5 
REMARK    2  A    between atoms: C5_5  and  C6_6 
REMARK    3  A    between atoms: C6_6  and  C7_7 
ROOT
HETATM    1  C7  UNL     1     -20.330  37.974  -1.582  1.00  0.00     0.127 C 
HETATM    2  C8  UNL     1     -21.485  38.323  -0.687  1.00  0.00     0.046 C 
HETATM    3  N1  UNL     1     -20.854  37.189  -2.683  1.00  0.00    -0.066 N 
ATOM      4  H11 UNL     1     -21.848  37.355  -2.843  1.00  0.00     0.278 HD
ATOM      5  H12 UNL     1     -20.913  36.195  -2.462  1.00  0.00     0.278 HD
HETATM    6  C9  UNL     1     -20.062  37.447  -3.842  1.00  0.00     0.243 C 
HETATM    7  C10 UNL     1     -19.214  38.656  -3.587  1.00  0.00    -0.010 C 
HETATM    8  C11 UNL     1     -17.765  38.170  -3.421  1.00  0.00     0.018 C 
HETATM    9  C12 UNL     1     -19.698  39.136  -2.260  1.00  0.00     0.031 C 
HETATM   10  C13 UNL     1     -20.634  40.285  -2.282  1.00  0.00     0.009 C 
HETATM   11  C14 UNL     1     -20.382  41.305  -3.352  1.00  0.00     0.010 C 
HETATM   12  C15 UNL     1     -20.373  40.617  -4.666  1.00  0.00    -0.036 C 
HETATM   13  C16 UNL     1     -21.662  39.999  -5.071  1.00  0.00     0.016 C 
HETATM   14  C17 UNL     1     -19.934  41.508  -5.826  1.00  0.00    -0.010 C 
HETATM   15  C18 UNL     1     -21.091  42.281  -6.401  1.00  0.00     0.011 C 
HETATM   16  C19 UNL     1     -19.445  40.479  -6.839  1.00  0.00     0.005 C 
HETATM   17  C20 UNL     1     -19.153  39.203  -6.043  1.00  0.00     0.006 C 
HETATM   18  C21 UNL     1     -19.203  39.669  -4.653  1.00  0.00     0.004 C 
ENDROOT
BRANCH   1  19
HETATM   19  C6  UNL     1     -19.402  37.092  -0.815  1.00  0.00     0.042 C 
BRANCH  19  20
HETATM   20  C5  UNL     1     -18.577  37.826   0.214  1.00  0.00     0.030 C 
BRANCH  20  21
HETATM   21  C4  UNL     1     -17.802  36.812   0.982  1.00  0.00    -0.025 C 
HETATM   22  C2  UNL     1     -17.779  36.804   2.310  1.00  0.00    -0.091 C 
HETATM   23  C1  UNL     1     -17.004  35.788   3.073  1.00  0.00     0.042 C 
HETATM   24  C3  UNL     1     -18.534  37.820   3.114  1.00  0.00     0.042 C 
ENDBRANCH  20  21
ENDBRANCH  19  20
ENDBRANCH   1  19
TORSDOF 3
ENDMDL
MODEL 2
REMARK VINA RESULT: -8.829486376      1.891      2.522
REMARK  3 active torsions:
REMARK  status: ('A' for Active; 'I' for Inactive)
REMARK    1  A    between atoms: C4_4  and  C5_5 
REMARK    2  A    between atoms: C5_5  and  C6_6 
REMARK    3  A    between atoms: C6_6  and  C7_7 
ROOT
HETATM    1  C7  UNL     1     -19.503  37.593  -2.092  1.00  0.00     0.127 C 
HETATM    2  C8  UNL     1     -20.586  37.535  -1.053  1.00  0.00     0.046 C 
HETATM    3  N1  UNL     1     -19.990  36.900  -3.269  1.00  0.00    -0.066 N 
ATOM      4  H11 UNL     1     -21.009  36.870  -3.311  1.00  0.00     0.278 HD
ATOM      5  H12 UNL     1     -19.822  35.894  -3.229  1.00  0.00     0.278 HD
HETATM    6  C9  UNL     1     -19.412  37.507  -4.424  1.00  0.00     0.243 C 
HETATM    7  C10 UNL     1     -18.797  38.814  -4.027  1.00  0.00    -0.010 C 
HETATM    8  C11 UNL     1     -17.271  38.634  -4.076  1.00  0.00     0.018 C 
HETATM    9  C12 UNL     1     -19.202  38.958  -2.598  1.00  0.00     0.031 C 
HETATM   10  C13 UNL     1     -20.343  39.864  -2.330  1.00  0.00     0.009 C 
HETATM   11  C14 UNL     1     -20.431  41.073  -3.214  1.00  0.00     0.010 C 
HETATM   12  C15 UNL     1     -20.445  40.623  -4.627  1.00  0.00    -0.036 C 
HETATM   13  C16 UNL     1     -21.625  39.813  -5.026  1.00  0.00     0.016 C 
HETATM   14  C17 UNL     1     -20.336  41.762  -5.637  1.00  0.00    -0.010 C 
HETATM   15  C18 UNL     1     -21.685  42.349  -5.962  1.00  0.00     0.011 C 
HETATM   16  C19 UNL     1     -19.780  41.041  -6.859  1.00  0.00     0.005 C 
HETATM   17  C20 UNL     1     -19.145  39.748  -6.338  1.00  0.00     0.006 C 
HETATM   18  C21 UNL     1     -19.118  39.962  -4.887  1.00  0.00     0.004 C 
ENDROOT
BRANCH   1  19
HETATM   19  C6  UNL     1     -18.331  36.822  -1.580  1.00  0.00     0.042 C 
BRANCH  19  20
HETATM   20  C5  UNL     1     -18.203  35.442  -2.178  1.00  0.00     0.030 C 
BRANCH  20  21
HETATM   21  C4  UNL     1     -16.829  35.317  -2.741  1.00  0.00    -0.025 C 
HETATM   22  C2  UNL     1     -15.841  34.747  -2.062  1.00  0.00    -0.091 C 
HETATM   23  C1  UNL     1     -14.471  34.625  -2.629  1.00  0.00     0.042 C 
HETATM   24  C3  UNL     1     -16.052  34.194  -0.684  1.00  0.00     0.042 C 
ENDBRANCH  20  21
ENDBRANCH  19  20
ENDBRANCH   1  19
TORSDOF 3
ENDMDL
MODEL 3
REMARK VINA RESULT: -8.584986531      3.004      5.884
REMARK  3 active torsions:
REMARK  status: ('A' for Active; 'I' for Inactive)
REMARK    1  A    between atoms: C4_4  and  C5_5 
REMARK    2  A    between atoms: C5_5  and  C6_6 
REMARK    3  A    between atoms: C6_6  and  C7_7 
ROOT
HETATM    1  C7  UNL     1     -20.282  37.817  -5.788  1.00  0.00     0.127 C 
HETATM    2  C8  UNL     1     -19.931  38.512  -7.073  1.00  0.00     0.046 C 
HETATM    3  N1  UNL     1     -20.325  36.394  -6.060  1.00  0.00    -0.066 N 
ATOM      4  H11 UNL     1     -19.769  36.134  -6.875  1.00  0.00     0.278 HD
ATOM      5  H12 UNL     1     -21.234  36.089  -6.409  1.00  0.00     0.278 HD
HETATM    6  C9  UNL     1     -19.928  35.694  -4.881  1.00  0.00     0.243 C 
HETATM    7  C10 UNL     1     -19.305  36.668  -3.929  1.00  0.00    -0.010 C 
HETATM    8  C11 UNL     1     -20.296  36.871  -2.770  1.00  0.00     0.018 C 
HETATM    9  C12 UNL     1     -19.253  37.931  -4.721  1.00  0.00     0.031 C 
HETATM   10  C13 UNL     1     -17.939  38.276  -5.315  1.00  0.00     0.009 C 
HETATM   11  C14 UNL     1     -16.740  37.909  -4.491  1.00  0.00     0.010 C 
HETATM   12  C15 UNL     1     -16.807  36.461  -4.181  1.00  0.00    -0.036 C 
HETATM   13  C16 UNL     1     -16.713  35.553  -5.355  1.00  0.00     0.016 C 
HETATM   14  C17 UNL     1     -15.748  35.994  -3.185  1.00  0.00    -0.010 C 
HETATM   15  C18 UNL     1     -14.455  35.641  -3.871  1.00  0.00     0.011 C 
HETATM   16  C19 UNL     1     -16.392  34.734  -2.617  1.00  0.00     0.005 C 
HETATM   17  C20 UNL     1     -17.891  34.854  -2.906  1.00  0.00     0.006 C 
HETATM   18  C21 UNL     1     -18.029  36.253  -3.328  1.00  0.00     0.004 C 
ENDROOT
BRANCH   1  19
HETATM   19  C6  UNL     1     -21.661  38.234  -5.400  1.00  0.00     0.042 C 
BRANCH  19  20
HETATM   20  C5  UNL     1     -21.782  39.701  -5.066  1.00  0.00     0.030 C 
BRANCH  20  21
HETATM   21  C4  UNL     1     -22.311  39.809  -3.678  1.00  0.00    -0.025 C 
HETATM   22  C2  UNL     1     -21.597  40.343  -2.693  1.00  0.00    -0.091 C 
HETATM   23  C1  UNL     1     -22.130  40.448  -1.308  1.00  0.00     0.042 C 
HETATM   24  C3  UNL     1     -20.212  40.870  -2.925  1.00  0.00     0.042 C 
ENDBRANCH  20  21
ENDBRANCH  19  20
ENDBRANCH   1  19
TORSDOF 3
ENDMDL
MODEL 4
REMARK VINA RESULT: -8.505820478      2.584      5.822
REMARK  3 active torsions:
REMARK  status: ('A' for Active; 'I' for Inactive)
REMARK    1  A    between atoms: C4_4  and  C5_5 
REMARK    2  A    between atoms: C5_5  and  C6_6 
REMARK    3  A    between atoms: C6_6  and  C7_7 
ROOT
HETATM    1  C7  UNL     1     -20.007  37.648  -4.754  1.00  0.00     0.127 C 
HETATM    2  C8  UNL     1     -20.032  38.161  -6.165  1.00  0.00     0.046 C 
HETATM    3  N1  UNL     1     -20.201  36.212  -4.809  1.00  0.00    -0.066 N 
ATOM      4  H11 UNL     1     -19.935  35.815  -5.710  1.00  0.00     0.278 HD
ATOM      5  H12 UNL     1     -21.187  35.951  -4.827  1.00  0.00     0.278 HD
HETATM    6  C9  UNL     1     -19.497  35.617  -3.719  1.00  0.00     0.243 C 
HETATM    7  C10 UNL     1     -18.566  36.634  -3.133  1.00  0.00    -0.010 C 
HETATM    8  C11 UNL     1     -19.143  37.051  -1.770  1.00  0.00     0.018 C 
HETATM    9  C12 UNL     1     -18.696  37.791  -4.066  1.00  0.00     0.031 C 
HETATM   10  C13 UNL     1     -17.612  37.951  -5.064  1.00  0.00     0.009 C 
HETATM   11  C14 UNL     1     -16.238  37.576  -4.594  1.00  0.00     0.010 C 
HETATM   12  C15 UNL     1     -16.278  36.182  -4.088  1.00  0.00    -0.036 C 
HETATM   13  C16 UNL     1     -16.593  35.145  -5.104  1.00  0.00     0.016 C 
HETATM   14  C17 UNL     1     -14.989  35.740  -3.399  1.00  0.00    -0.010 C 
HETATM   15  C18 UNL     1     -13.987  35.201  -4.385  1.00  0.00     0.011 C 
HETATM   16  C19 UNL     1     -15.489  34.613  -2.503  1.00  0.00     0.005 C 
HETATM   17  C20 UNL     1     -16.997  34.830  -2.346  1.00  0.00     0.006 C 
HETATM   18  C21 UNL     1     -17.189  36.179  -2.890  1.00  0.00     0.004 C 
ENDROOT
BRANCH   1  19
HETATM   19  C6  UNL     1     -21.179  38.225  -4.032  1.00  0.00     0.042 C 
BRANCH  19  20
HETATM   20  C5  UNL     1     -21.197  39.734  -4.008  1.00  0.00     0.030 C 
BRANCH  20  21
HETATM   21  C4  UNL     1     -20.917  40.169  -2.611  1.00  0.00    -0.025 C 
HETATM   22  C2  UNL     1     -21.888  40.512  -1.774  1.00  0.00    -0.091 C 
HETATM   23  C1  UNL     1     -21.603  40.946  -0.380  1.00  0.00     0.042 C 
HETATM   24  C3  UNL     1     -23.330  40.482  -2.190  1.00  0.00     0.042 C 
ENDBRANCH  20  21
ENDBRANCH  19  20
ENDBRANCH   1  19
TORSDOF 3
ENDMDL
MODEL 5
REMARK VINA RESULT: -8.368323058      2.546      6.268
REMARK  3 active torsions:
REMARK  status: ('A' for Active; 'I' for Inactive)
REMARK    1  A    between atoms: C4_4  and  C5_5 
REMARK    2  A    between atoms: C5_5  and  C6_6 
REMARK    3  A    between atoms: C6_6  and  C7_7 
ROOT
HETATM    1  C7  UNL     1     -20.112  37.716  -4.250  1.00  0.00     0.127 C 
HETATM    2  C8  UNL     1     -20.305  38.302  -5.619  1.00  0.00     0.046 C 
HETATM    3  N1  UNL     1     -20.283  36.280  -4.363  1.00  0.00    -0.066 N 
ATOM      4  H11 UNL     1     -20.112  35.939  -5.309  1.00  0.00     0.278 HD
ATOM      5  H12 UNL     1     -21.260  35.995  -4.287  1.00  0.00     0.278 HD
HETATM    6  C9  UNL     1     -19.450  35.646  -3.392  1.00  0.00     0.243 C 
HETATM    7  C10 UNL     1     -18.479  36.654  -2.858  1.00  0.00    -0.010 C 
HETATM    8  C11 UNL     1     -18.908  36.983  -1.418  1.00  0.00     0.018 C 
HETATM    9  C12 UNL     1     -18.735  37.855  -3.705  1.00  0.00     0.031 C 
HETATM   10  C13 UNL     1     -17.773  38.096  -4.806  1.00  0.00     0.009 C 
HETATM   11  C14 UNL     1     -16.348  37.731  -4.512  1.00  0.00     0.010 C 
HETATM   12  C15 UNL     1     -16.304  36.312  -4.084  1.00  0.00    -0.036 C 
HETATM   13  C16 UNL     1     -16.710  35.323  -5.115  1.00  0.00     0.016 C 
HETATM   14  C17 UNL     1     -14.938  35.867  -3.567  1.00  0.00    -0.010 C 
HETATM   15  C18 UNL     1     -14.042  35.407  -4.687  1.00  0.00     0.011 C 
HETATM   16  C19 UNL     1     -15.312  34.681  -2.686  1.00  0.00     0.005 C 
HETATM   17  C20 UNL     1     -16.797  34.851  -2.351  1.00  0.00     0.006 C 
HETATM   18  C21 UNL     1     -17.075  36.222  -2.794  1.00  0.00     0.004 C 
ENDROOT
BRANCH   1  19
HETATM   19  C6  UNL     1     -21.207  38.223  -3.371  1.00  0.00     0.042 C 
BRANCH  19  20
HETATM   20  C5  UNL     1     -21.220  39.724  -3.221  1.00  0.00     0.030 C 
BRANCH  20  21
HETATM   21  C4  UNL     1     -22.581  40.123  -2.767  1.00  0.00    -0.025 C 
HETATM   22  C2  UNL     1     -23.511  40.542  -3.618  1.00  0.00    -0.091 C 
HETATM   23  C1  UNL     1     -24.869  40.939  -3.159  1.00  0.00     0.042 C 
HETATM   24  C3  UNL     1     -23.241  40.638  -5.090  1.00  0.00     0.042 C 
ENDBRANCH  20  21
ENDBRANCH  19  20
ENDBRANCH   1  19
TORSDOF 3
ENDMDL
