MODEL 1
REMARK VINA RESULT: -9.500647456      0.000      0.000
REMARK  3 active torsions:
REMARK  status: ('A' for Active; 'I' for Inactive)
REMARK    1  A    between atoms: C2_2  and  C3_3 
REMARK    2  A    between atoms: C3_3  and  C4_4 
REMARK    3  A    between atoms: C13_13  and  N1_14 
ROOT
HETATM    1  C4  UNL     1     -16.813  36.011   2.942  1.00  0.00    -0.006 C 
HETATM    2  C5  UNL     1     -17.707  37.197   3.369  1.00  0.00     0.006 C 
HETATM    3  C6  UNL     1     -18.477  37.606   2.142  1.00  0.00     0.006 C 
HETATM    4  C7  UNL     1     -17.699  37.002   1.036  1.00  0.00    -0.002 C 
HETATM    5  C8  UNL     1     -18.481  36.729  -0.200  1.00  0.00    -0.005 C 
HETATM    6  C9  UNL     1     -19.027  38.021  -0.824  1.00  0.00     0.006 C 
HETATM    7  C10 UNL     1     -19.846  37.679  -2.045  1.00  0.00     0.012 C 
HETATM    8  C11 UNL     1     -18.980  36.983  -3.034  1.00  0.00    -0.012 C 
HETATM    9  C12 UNL     1     -17.873  37.865  -3.560  1.00  0.00     0.018 C 
HETATM   10  C13 UNL     1     -19.694  36.382  -4.200  1.00  0.00     0.192 C 
HETATM   11  C14 UNL     1     -18.892  35.135  -4.572  1.00  0.00     0.034 C 
HETATM   12  C15 UNL     1     -17.818  35.004  -3.485  1.00  0.00     0.008 C 
HETATM   13  C16 UNL     1     -18.433  35.728  -2.363  1.00  0.00     0.000 C 
HETATM   14  C17 UNL     1     -17.545  36.146  -1.252  1.00  0.00    -0.005 C 
HETATM   15  C18 UNL     1     -16.727  35.010  -0.746  1.00  0.00     0.006 C 
HETATM   16  C19 UNL     1     -16.253  35.142   0.663  1.00  0.00     0.010 C 
HETATM   17  C20 UNL     1     -17.312  35.613   1.608  1.00  0.00    -0.036 C 
HETATM   18  C21 UNL     1     -18.495  34.712   1.574  1.00  0.00     0.016 C 
ENDROOT
BRANCH  10  19
HETATM   19  N1  UNL     1     -21.037  36.014  -3.772  1.00  0.00    -0.074 N 
ATOM     20  H13 UNL     1     -21.109  35.032  -3.505  1.00  0.00     0.274 HD
ATOM     21  H12 UNL     1     -21.288  36.420  -2.870  1.00  0.00     0.274 HD
ATOM     22  H11 UNL     1     -21.690  36.268  -4.513  1.00  0.00     0.274 HD
ENDBRANCH  10  19
BRANCH   1  23
HETATM   23  C3  UNL     1     -16.888  35.033   4.051  1.00  0.00     0.005 C 
BRANCH  23  24
HETATM   24  C2  UNL     1     -15.586  34.641   4.669  1.00  0.00    -0.004 C 
HETATM   25  C1  UNL     1     -14.931  35.883   5.299  1.00  0.00     0.005 C 
ENDBRANCH  23  24
ENDBRANCH   1  23
TORSDOF 3
ENDMDL
MODEL 2
REMARK VINA RESULT: -8.979044215      2.313      6.224
REMARK  3 active torsions:
REMARK  status: ('A' for Active; 'I' for Inactive)
REMARK    1  A    between atoms: C2_2  and  C3_3 
REMARK    2  A    between atoms: C3_3  and  C4_4 
REMARK    3  A    between atoms: C13_13  and  N1_14 
ROOT
HETATM    1  C4  UNL     1     -17.046  35.287  -4.676  1.00  0.00    -0.006 C 
HETATM    2  C5  UNL     1     -18.403  35.905  -5.080  1.00  0.00     0.006 C 
HETATM    3  C6  UNL     1     -19.047  36.379  -3.804  1.00  0.00     0.006 C 
HETATM    4  C7  UNL     1     -18.309  35.636  -2.756  1.00  0.00    -0.002 C 
HETATM    5  C8  UNL     1     -18.297  36.289  -1.419  1.00  0.00    -0.005 C 
HETATM    6  C9  UNL     1     -19.711  36.407  -0.832  1.00  0.00     0.006 C 
HETATM    7  C10 UNL     1     -19.640  37.115   0.498  1.00  0.00     0.012 C 
HETATM    8  C11 UNL     1     -18.787  36.327   1.427  1.00  0.00    -0.012 C 
HETATM    9  C12 UNL     1     -19.375  34.975   1.752  1.00  0.00     0.018 C 
HETATM   10  C13 UNL     1     -18.438  37.007   2.710  1.00  0.00     0.192 C 
HETATM   11  C14 UNL     1     -17.042  36.499   3.075  1.00  0.00     0.034 C 
HETATM   12  C15 UNL     1     -16.596  35.647   1.881  1.00  0.00     0.008 C 
HETATM   13  C16 UNL     1     -17.407  36.205   0.790  1.00  0.00     0.000 C 
HETATM   14  C17 UNL     1     -17.537  35.397  -0.446  1.00  0.00    -0.005 C 
HETATM   15  C18 UNL     1     -16.208  34.964  -0.960  1.00  0.00     0.006 C 
HETATM   16  C19 UNL     1     -16.156  34.663  -2.422  1.00  0.00     0.010 C 
HETATM   17  C20 UNL     1     -16.845  35.687  -3.266  1.00  0.00    -0.036 C 
HETATM   18  C21 UNL     1     -16.280  37.042  -3.027  1.00  0.00     0.016 C 
ENDROOT
BRANCH  10  19
HETATM   19  N1  UNL     1     -18.409  38.443   2.472  1.00  0.00    -0.074 N 
ATOM     20  H13 UNL     1     -17.485  38.779   2.201  1.00  0.00     0.274 HD
ATOM     21  H12 UNL     1     -18.908  38.712   1.623  1.00  0.00     0.274 HD
ATOM     22  H11 UNL     1     -18.770  38.912   3.304  1.00  0.00     0.274 HD
ENDBRANCH  10  19
BRANCH   1  23
HETATM   23  C3  UNL     1     -16.076  35.751  -5.693  1.00  0.00     0.005 C 
BRANCH  23  24
HETATM   24  C2  UNL     1     -14.935  34.830  -5.980  1.00  0.00    -0.004 C 
HETATM   25  C1  UNL     1     -13.704  35.287  -5.178  1.00  0.00     0.005 C 
ENDBRANCH  23  24
ENDBRANCH   1  23
TORSDOF 3
ENDMDL
MODEL 3
REMARK VINA RESULT: -8.841401399      3.261      5.430
REMARK  3 active torsions:
REMARK  status: ('A' for Active; 'I' for Inactive)
REMARK    1  A    between atoms: C2_2  and  C3_3 
REMARK    2  A    between atoms: C3_3  and  C4_4 
REMARK    3  A    between atoms: C13_13  and  N1_14 
ROOT
HETATM    1  C4  UNL     1     -17.439  34.968  -1.349  1.00  0.00    -0.006 C 
HETATM    2  C5  UNL     1     -15.934  34.874  -1.012  1.00  0.00     0.006 C 
HETATM    3  C6  UNL     1     -15.197  35.082  -2.308  1.00  0.00     0.006 C 
HETATM    4  C7  UNL     1     -16.236  34.823  -3.333  1.00  0.00    -0.002 C 
HETATM    5  C8  UNL     1     -16.002  35.492  -4.641  1.00  0.00    -0.005 C 
HETATM    6  C9  UNL     1     -14.717  34.990  -5.314  1.00  0.00     0.006 C 
HETATM    7  C10 UNL     1     -14.510  35.734  -6.610  1.00  0.00     0.012 C 
HETATM    8  C11 UNL     1     -15.667  35.480  -7.509  1.00  0.00    -0.012 C 
HETATM    9  C12 UNL     1     -15.777  34.032  -7.922  1.00  0.00     0.018 C 
HETATM   10  C13 UNL     1     -15.718  36.323  -8.741  1.00  0.00     0.192 C 
HETATM   11  C14 UNL     1     -17.205  36.530  -9.033  1.00  0.00     0.034 C 
HETATM   12  C15 UNL     1     -17.943  35.902  -7.845  1.00  0.00     0.008 C 
HETATM   13  C16 UNL     1     -16.922  35.960  -6.789  1.00  0.00     0.000 C 
HETATM   14  C17 UNL     1     -17.126  35.106  -5.594  1.00  0.00    -0.005 C 
HETATM   15  C18 UNL     1     -18.483  35.294  -5.012  1.00  0.00     0.006 C 
HETATM   16  C19 UNL     1     -18.607  34.960  -3.562  1.00  0.00     0.010 C 
HETATM   17  C20 UNL     1     -17.492  35.503  -2.726  1.00  0.00    -0.036 C 
HETATM   18  C21 UNL     1     -17.383  36.979  -2.879  1.00  0.00     0.016 C 
ENDROOT
BRANCH  10  19
HETATM   19  N1  UNL     1     -15.076  37.597  -8.450  1.00  0.00    -0.074 N 
ATOM     20  H13 UNL     1     -15.230  37.904  -7.489  1.00  0.00     0.274 HD
ATOM     21  H12 UNL     1     -14.059  37.525  -8.410  1.00  0.00     0.274 HD
ATOM     22  H11 UNL     1     -15.395  38.280  -9.137  1.00  0.00     0.274 HD
ENDBRANCH  10  19
BRANCH   1  23
HETATM   23  C3  UNL     1     -18.046  35.758  -0.254  1.00  0.00     0.005 C 
BRANCH  23  24
HETATM   24  C2  UNL     1     -17.634  35.382   1.132  1.00  0.00    -0.004 C 
HETATM   25  C1  UNL     1     -18.875  34.934   1.923  1.00  0.00     0.005 C 
ENDBRANCH  23  24
ENDBRANCH   1  23
TORSDOF 3
ENDMDL
MODEL 4
REMARK VINA RESULT: -8.837193005      3.068      5.034
REMARK  3 active torsions:
REMARK  status: ('A' for Active; 'I' for Inactive)
REMARK    1  A    between atoms: C2_2  and  C3_3 
REMARK    2  A    between atoms: C3_3  and  C4_4 
REMARK    3  A    between atoms: C13_13  and  N1_14 
ROOT
HETATM    1  C4  UNL     1     -17.460  36.165  -1.642  1.00  0.00    -0.006 C 
HETATM    2  C5  UNL     1     -18.463  36.283  -0.472  1.00  0.00     0.006 C 
HETATM    3  C6  UNL     1     -19.495  37.291  -0.901  1.00  0.00     0.006 C 
HETATM    4  C7  UNL     1     -18.826  38.010  -2.011  1.00  0.00    -0.002 C 
HETATM    5  C8  UNL     1     -19.749  38.637  -2.994  1.00  0.00    -0.005 C 
HETATM    6  C9  UNL     1     -20.616  39.726  -2.346  1.00  0.00     0.006 C 
HETATM    7  C10 UNL     1     -21.560  40.292  -3.378  1.00  0.00     0.012 C 
HETATM    8  C11 UNL     1     -20.770  40.888  -4.488  1.00  0.00    -0.012 C 
HETATM    9  C12 UNL     1     -19.945  42.073  -4.045  1.00  0.00     0.018 C 
HETATM   10  C13 UNL     1     -21.557  41.290  -5.692  1.00  0.00     0.192 C 
HETATM   11  C14 UNL     1     -20.623  41.073  -6.883  1.00  0.00     0.034 C 
HETATM   12  C15 UNL     1     -19.371  40.406  -6.300  1.00  0.00     0.008 C 
HETATM   13  C16 UNL     1     -19.901  39.783  -5.078  1.00  0.00     0.000 C 
HETATM   14  C17 UNL     1     -18.921  39.363  -4.047  1.00  0.00    -0.005 C 
HETATM   15  C18 UNL     1     -17.840  38.521  -4.629  1.00  0.00     0.006 C 
HETATM   16  C19 UNL     1     -17.159  37.603  -3.668  1.00  0.00     0.010 C 
HETATM   17  C20 UNL     1     -18.105  36.867  -2.773  1.00  0.00    -0.036 C 
HETATM   18  C21 UNL     1     -19.097  36.094  -3.567  1.00  0.00     0.016 C 
ENDROOT
BRANCH  10  19
HETATM   19  N1  UNL     1     -22.718  40.416  -5.790  1.00  0.00    -0.074 N 
ATOM     20  H13 UNL     1     -23.148  40.229  -4.884  1.00  0.00     0.274 HD
ATOM     21  H12 UNL     1     -23.518  40.872  -6.231  1.00  0.00     0.274 HD
ATOM     22  H11 UNL     1     -22.435  39.564  -6.275  1.00  0.00     0.274 HD
ENDBRANCH  10  19
BRANCH   1  23
HETATM   23  C3  UNL     1     -17.167  34.720  -1.775  1.00  0.00     0.005 C 
BRANCH  23  24
HETATM   24  C2  UNL     1     -15.777  34.298  -1.428  1.00  0.00    -0.004 C 
HETATM   25  C1  UNL     1     -14.803  34.848  -2.485  1.00  0.00     0.005 C 
ENDBRANCH  23  24
ENDBRANCH   1  23
TORSDOF 3
ENDMDL
MODEL 5
REMARK VINA RESULT: -8.783309153      2.642      6.615
REMARK  3 active torsions:
REMARK  status: ('A' for Active; 'I' for Inactive)
REMARK    1  A    between atoms: C2_2  and  C3_3 
REMARK    2  A    between atoms: C3_3  and  C4_4 
REMARK    3  A    between atoms: C13_13  and  N1_14 
ROOT
HETATM    1  C4  UNL     1     -20.897  38.685  -3.301  1.00  0.00    -0.006 C 
HETATM    2  C5  UNL     1     -21.738  39.619  -2.402  1.00  0.00     0.006 C 
HETATM    3  C6  UNL     1     -21.315  39.335  -0.986  1.00  0.00     0.006 C 
HETATM    4  C7  UNL     1     -20.651  38.015  -1.089  1.00  0.00    -0.002 C 
HETATM    5  C8  UNL     1     -19.646  37.738  -0.028  1.00  0.00    -0.005 C 
HETATM    6  C9  UNL     1     -20.287  37.698   1.367  1.00  0.00     0.006 C 
HETATM    7  C10 UNL     1     -19.216  37.459   2.402  1.00  0.00     0.012 C 
HETATM    8  C11 UNL     1     -18.553  36.156   2.127  1.00  0.00    -0.012 C 
HETATM    9  C12 UNL     1     -19.491  34.982   2.281  1.00  0.00     0.018 C 
HETATM   10  C13 UNL     1     -17.324  35.880   2.929  1.00  0.00     0.192 C 
HETATM   11  C14 UNL     1     -16.418  35.051   2.017  1.00  0.00     0.034 C 
HETATM   12  C15 UNL     1     -17.131  35.017   0.661  1.00  0.00     0.008 C 
HETATM   13  C16 UNL     1     -17.962  36.228   0.724  1.00  0.00     0.000 C 
HETATM   14  C17 UNL     1     -19.079  36.340  -0.245  1.00  0.00    -0.005 C 
HETATM   15  C18 UNL     1     -18.621  36.101  -1.640  1.00  0.00     0.006 C 
HETATM   16  C19 UNL     1     -19.465  36.721  -2.705  1.00  0.00     0.010 C 
HETATM   17  C20 UNL     1     -19.850  38.137  -2.412  1.00  0.00    -0.036 C 
HETATM   18  C21 UNL     1     -18.646  38.981  -2.190  1.00  0.00     0.016 C 
ENDROOT
BRANCH  10  19
HETATM   19  N1  UNL     1     -16.693  37.154   3.249  1.00  0.00    -0.074 N 
ATOM     20  H13 UNL     1     -17.114  37.937   2.750  1.00  0.00     0.274 HD
ATOM     21  H12 UNL     1     -16.899  37.468   4.198  1.00  0.00     0.274 HD
ATOM     22  H11 UNL     1     -15.692  37.067   3.073  1.00  0.00     0.274 HD
ENDBRANCH  10  19
BRANCH   1  23
HETATM   23  C3  UNL     1     -20.486  39.509  -4.460  1.00  0.00     0.005 C 
BRANCH  23  24
HETATM   24  C2  UNL     1     -21.012  40.907  -4.490  1.00  0.00    -0.004 C 
HETATM   25  C1  UNL     1     -19.849  41.889  -4.267  1.00  0.00     0.005 C 
ENDBRANCH  23  24
ENDBRANCH   1  23
TORSDOF 3
ENDMDL
