MODEL 1
REMARK VINA RESULT: -7.094929206      0.000      0.000
REMARK  10 active torsions:
REMARK  status: ('A' for Active; 'I' for Inactive)
REMARK    1  A    between atoms: C2_2  and  C3_3 
REMARK    2  A    between atoms: C3_3  and  C4_4 
REMARK    3  A    between atoms: C4_4  and  C5_5 
REMARK    4  A    between atoms: C5_5  and  O2_7 
REMARK    5  A    between atoms: O2_7  and  C6_8 
REMARK    6  A    between atoms: C9_11  and  O3_12 
REMARK    7  A    between atoms: C14_20  and  O6_21 
REMARK    8  A    between atoms: O6_21  and  C15_22 
REMARK    9  A    between atoms: C15_22  and  C16_24 
REMARK   10  A    between atoms: C18_26  and  O8_27 
ROOT
HETATM    1  C6  UNL     1      43.495  14.741  51.447  1.00  0.00     0.145 C 
HETATM    2  C7  UNL     1      42.685  14.878  52.687  1.00  0.00     0.036 C 
HETATM    3  C8  UNL     1      41.964  13.672  53.138  1.00  0.00     0.049 C 
HETATM    4  C9  UNL     1      42.736  12.409  53.103  1.00  0.00     0.140 C 
HETATM    5  C10 UNL     1      43.845  12.338  52.143  1.00  0.00     0.178 C 
HETATM    6  O4  UNL     1      43.316  11.111  51.678  1.00  0.00    -0.343 OA
HETATM    7  C11 UNL     1      42.133  11.245  52.368  1.00  0.00     0.194 C 
HETATM    8  C12 UNL     1      41.742  10.082  53.242  1.00  0.00     0.082 C 
HETATM    9  O5  UNL     1      41.096  11.551  51.499  1.00  0.00    -0.350 OA
HETATM   10  C13 UNL     1      41.504  11.344  50.199  1.00  0.00     0.206 C 
HETATM   11  C14 UNL     1      41.973  12.652  49.605  1.00  0.00     0.185 C 
HETATM   12  C18 UNL     1      43.407  12.905  49.736  1.00  0.00     0.163 C 
HETATM   13  C19 UNL     1      43.915  13.364  51.081  1.00  0.00     0.041 C 
HETATM   14  C20 UNL     1      45.431  13.484  50.761  1.00  0.00     0.023 C 
ENDROOT
BRANCH   1  15
HETATM   15  O2  UNL     1      44.581  15.659  51.579  1.00  0.00    -0.315 OA
BRANCH  15  16
HETATM   16  C5  UNL     1      44.465  17.018  51.465  1.00  0.00     0.259 C 
HETATM   17  O1  UNL     1      44.838  17.735  52.408  1.00  0.00    -0.265 OA
BRANCH  16  18
HETATM   18  C4  UNL     1      43.888  17.539  50.193  1.00  0.00     0.115 C 
BRANCH  18  19
HETATM   19  C3  UNL     1      44.791  17.365  49.030  1.00  0.00     0.036 C 
BRANCH  19  20
HETATM   20  C2  UNL     1      44.322  16.240  48.194  1.00  0.00    -0.036 C 
HETATM   21  C1  UNL     1      44.740  16.100  46.951  1.00  0.00     0.007 C 
ENDBRANCH  19  20
ENDBRANCH  18  19
ENDBRANCH  16  18
ENDBRANCH  15  16
ENDBRANCH   1  15
BRANCH  12  22
HETATM   22  O8  UNL     1      44.122  11.742  49.414  1.00  0.00    -0.392 OA
ATOM     23  H8  UNL     1      44.538  11.847  48.566  1.00  0.00     0.210 HD
ENDBRANCH  12  22
BRANCH   4  24
HETATM   24  O3  UNL     1      43.065  11.995  54.416  1.00  0.00    -0.382 OA
ATOM     25  H3  UNL     1      43.644  12.627  54.827  1.00  0.00     0.211 HD
ENDBRANCH   4  24
BRANCH  11  26
HETATM   26  O6  UNL     1      41.636  12.713  48.213  1.00  0.00    -0.311 OA
BRANCH  26  27
HETATM   27  C15 UNL     1      42.386  12.174  47.209  1.00  0.00     0.258 C 
HETATM   28  O7  UNL     1      42.454  10.933  47.118  1.00  0.00    -0.265 OA
BRANCH  27  29
HETATM   29  C16 UNL     1      43.128  12.990  46.215  1.00  0.00     0.106 C 
HETATM   30  C17 UNL     1      42.428  12.980  44.874  1.00  0.00     0.015 C 
ENDBRANCH  27  29
ENDBRANCH  26  27
ENDBRANCH  11  26
TORSDOF 10
ENDMDL
MODEL 2
REMARK VINA RESULT: -6.609193177      3.620      4.753
REMARK  10 active torsions:
REMARK  status: ('A' for Active; 'I' for Inactive)
REMARK    1  A    between atoms: C2_2  and  C3_3 
REMARK    2  A    between atoms: C3_3  and  C4_4 
REMARK    3  A    between atoms: C4_4  and  C5_5 
REMARK    4  A    between atoms: C5_5  and  O2_7 
REMARK    5  A    between atoms: O2_7  and  C6_8 
REMARK    6  A    between atoms: C9_11  and  O3_12 
REMARK    7  A    between atoms: C14_20  and  O6_21 
REMARK    8  A    between atoms: O6_21  and  C15_22 
REMARK    9  A    between atoms: C15_22  and  C16_24 
REMARK   10  A    between atoms: C18_26  and  O8_27 
ROOT
HETATM    1  C6  UNL     1      42.488  10.480  50.462  1.00  0.00     0.145 C 
HETATM    2  C7  UNL     1      42.063  10.246  51.868  1.00  0.00     0.036 C 
HETATM    3  C8  UNL     1      41.993   8.840  52.309  1.00  0.00     0.049 C 
HETATM    4  C9  UNL     1      43.135   7.983  51.912  1.00  0.00     0.140 C 
HETATM    5  C10 UNL     1      43.878   8.385  50.712  1.00  0.00     0.178 C 
HETATM    6  O4  UNL     1      43.732   7.065  50.224  1.00  0.00    -0.343 OA
HETATM    7  C11 UNL     1      42.825   6.701  51.193  1.00  0.00     0.194 C 
HETATM    8  C12 UNL     1      43.151   5.449  51.966  1.00  0.00     0.082 C 
HETATM    9  O5  UNL     1      41.552   6.604  50.653  1.00  0.00    -0.350 OA
HETATM   10  C13 UNL     1      41.629   6.617  49.276  1.00  0.00     0.206 C 
HETATM   11  C14 UNL     1      41.397   8.023  48.774  1.00  0.00     0.185 C 
HETATM   12  C18 UNL     1      42.612   8.814  48.586  1.00  0.00     0.163 C 
HETATM   13  C19 UNL     1      43.266   9.391  49.817  1.00  0.00     0.041 C 
HETATM   14  C20 UNL     1      44.477  10.108  49.158  1.00  0.00     0.023 C 
ENDROOT
BRANCH   1  15
HETATM   15  O2  UNL     1      43.149  11.746  50.452  1.00  0.00    -0.315 OA
BRANCH  15  16
HETATM   16  C5  UNL     1      42.571  12.918  50.045  1.00  0.00     0.259 C 
HETATM   17  O1  UNL     1      41.519  12.873  49.386  1.00  0.00    -0.265 OA
BRANCH  16  18
HETATM   18  C4  UNL     1      43.264  14.179  50.433  1.00  0.00     0.115 C 
BRANCH  18  19
HETATM   19  C3  UNL     1      44.472  14.454  49.619  1.00  0.00     0.036 C 
BRANCH  19  20
HETATM   20  C2  UNL     1      44.158  15.446  48.571  1.00  0.00    -0.036 C 
HETATM   21  C1  UNL     1      44.000  15.078  47.314  1.00  0.00     0.007 C 
ENDBRANCH  19  20
ENDBRANCH  18  19
ENDBRANCH  16  18
ENDBRANCH  15  16
ENDBRANCH   1  15
BRANCH  12  22
HETATM   22  O8  UNL     1      43.586   8.037  47.942  1.00  0.00    -0.392 OA
ATOM     23  H8  UNL     1      43.272   7.781  47.082  1.00  0.00     0.210 HD
ENDBRANCH  12  22
BRANCH   4  24
HETATM   24  O3  UNL     1      43.943   7.689  53.036  1.00  0.00    -0.382 OA
ATOM     25  H3  UNL     1      43.446   7.793  53.839  1.00  0.00     0.211 HD
ENDBRANCH   4  24
BRANCH  11  26
HETATM   26  O6  UNL     1      40.689   7.993  47.528  1.00  0.00    -0.311 OA
BRANCH  26  27
HETATM   27  C15 UNL     1      40.544   6.885  46.744  1.00  0.00     0.258 C 
HETATM   28  O7  UNL     1      41.541   6.455  46.133  1.00  0.00    -0.265 OA
BRANCH  27  29
HETATM   29  C16 UNL     1      39.258   6.162  46.581  1.00  0.00     0.106 C 
HETATM   30  C17 UNL     1      38.259   6.997  45.811  1.00  0.00     0.015 C 
ENDBRANCH  27  29
ENDBRANCH  26  27
ENDBRANCH  11  26
TORSDOF 10
ENDMDL
MODEL 3
REMARK VINA RESULT: -6.578855089      3.448      4.728
REMARK  10 active torsions:
REMARK  status: ('A' for Active; 'I' for Inactive)
REMARK    1  A    between atoms: C2_2  and  C3_3 
REMARK    2  A    between atoms: C3_3  and  C4_4 
REMARK    3  A    between atoms: C4_4  and  C5_5 
REMARK    4  A    between atoms: C5_5  and  O2_7 
REMARK    5  A    between atoms: O2_7  and  C6_8 
REMARK    6  A    between atoms: C9_11  and  O3_12 
REMARK    7  A    between atoms: C14_20  and  O6_21 
REMARK    8  A    between atoms: O6_21  and  C15_22 
REMARK    9  A    between atoms: C15_22  and  C16_24 
REMARK   10  A    between atoms: C18_26  and  O8_27 
ROOT
HETATM    1  C6  UNL     1      42.264  10.599  49.500  1.00  0.00     0.145 C 
HETATM    2  C7  UNL     1      41.393  11.074  50.608  1.00  0.00     0.036 C 
HETATM    3  C8  UNL     1      40.928  10.051  51.564  1.00  0.00     0.049 C 
HETATM    4  C9  UNL     1      41.954   9.086  52.024  1.00  0.00     0.140 C 
HETATM    5  C10 UNL     1      43.091   8.851  51.126  1.00  0.00     0.178 C 
HETATM    6  O4  UNL     1      42.856   7.461  51.251  1.00  0.00    -0.343 OA
HETATM    7  C11 UNL     1      41.644   7.623  51.883  1.00  0.00     0.194 C 
HETATM    8  C12 UNL     1      41.476   6.886  53.187  1.00  0.00     0.082 C 
HETATM    9  O5  UNL     1      40.603   7.305  51.024  1.00  0.00    -0.350 OA
HETATM   10  C13 UNL     1      41.100   6.657  49.913  1.00  0.00     0.206 C 
HETATM   11  C14 UNL     1      41.302   7.658  48.798  1.00  0.00     0.185 C 
HETATM   12  C18 UNL     1      42.642   8.238  48.733  1.00  0.00     0.163 C 
HETATM   13  C19 UNL     1      42.984   9.320  49.727  1.00  0.00     0.041 C 
HETATM   14  C20 UNL     1      44.450   9.610  49.305  1.00  0.00     0.023 C 
ENDROOT
BRANCH   1  15
HETATM   15  O2  UNL     1      43.122  11.693  49.173  1.00  0.00    -0.315 OA
BRANCH  15  16
HETATM   16  C5  UNL     1      42.811  12.681  48.278  1.00  0.00     0.259 C 
HETATM   17  O1  UNL     1      41.976  12.446  47.389  1.00  0.00    -0.265 OA
BRANCH  16  18
HETATM   18  C4  UNL     1      43.514  13.985  48.444  1.00  0.00     0.115 C 
BRANCH  18  19
HETATM   19  C3  UNL     1      43.879  14.617  47.154  1.00  0.00     0.036 C 
BRANCH  19  20
HETATM   20  C2  UNL     1      44.355  15.997  47.387  1.00  0.00    -0.036 C 
HETATM   21  C1  UNL     1      44.478  16.473  48.610  1.00  0.00     0.007 C 
ENDBRANCH  19  20
ENDBRANCH  18  19
ENDBRANCH  16  18
ENDBRANCH  15  16
ENDBRANCH   1  15
BRANCH  12  22
HETATM   22  O8  UNL     1      43.602   7.228  48.893  1.00  0.00    -0.392 OA
ATOM     23  H8  UNL     1      44.465   7.573  48.693  1.00  0.00     0.210 HD
ENDBRANCH  12  22
BRANCH   4  24
HETATM   24  O3  UNL     1      42.308   9.347  53.369  1.00  0.00    -0.382 OA
ATOM     25  H3  UNL     1      42.933  10.062  53.414  1.00  0.00     0.211 HD
ENDBRANCH   4  24
BRANCH  11  26
HETATM   26  O6  UNL     1      41.018   7.050  47.531  1.00  0.00    -0.311 OA
BRANCH  26  27
HETATM   27  C15 UNL     1      39.770   6.928  46.991  1.00  0.00     0.258 C 
HETATM   28  O7  UNL     1      39.014   6.043  47.436  1.00  0.00    -0.265 OA
BRANCH  27  29
HETATM   29  C16 UNL     1      39.264   7.798  45.900  1.00  0.00     0.106 C 
HETATM   30  C17 UNL     1      37.823   7.472  45.570  1.00  0.00     0.015 C 
ENDBRANCH  27  29
ENDBRANCH  26  27
ENDBRANCH  11  26
TORSDOF 10
ENDMDL
MODEL 4
REMARK VINA RESULT: -6.573857279      4.160      5.626
REMARK  10 active torsions:
REMARK  status: ('A' for Active; 'I' for Inactive)
REMARK    1  A    between atoms: C2_2  and  C3_3 
REMARK    2  A    between atoms: C3_3  and  C4_4 
REMARK    3  A    between atoms: C4_4  and  C5_5 
REMARK    4  A    between atoms: C5_5  and  O2_7 
REMARK    5  A    between atoms: O2_7  and  C6_8 
REMARK    6  A    between atoms: C9_11  and  O3_12 
REMARK    7  A    between atoms: C14_20  and  O6_21 
REMARK    8  A    between atoms: O6_21  and  C15_22 
REMARK    9  A    between atoms: C15_22  and  C16_24 
REMARK   10  A    between atoms: C18_26  and  O8_27 
ROOT
HETATM    1  C6  UNL     1      42.144   9.491  49.582  1.00  0.00     0.145 C 
HETATM    2  C7  UNL     1      41.680   9.546  50.994  1.00  0.00     0.036 C 
HETATM    3  C8  UNL     1      41.817   8.305  51.780  1.00  0.00     0.049 C 
HETATM    4  C9  UNL     1      43.105   7.589  51.636  1.00  0.00     0.140 C 
HETATM    5  C10 UNL     1      43.843   7.801  50.384  1.00  0.00     0.178 C 
HETATM    6  O4  UNL     1      43.946   6.396  50.249  1.00  0.00    -0.343 OA
HETATM    7  C11 UNL     1      43.055   6.134  51.264  1.00  0.00     0.194 C 
HETATM    8  C12 UNL     1      43.535   5.192  52.338  1.00  0.00     0.082 C 
HETATM    9  O5  UNL     1      41.849   5.684  50.747  1.00  0.00    -0.350 OA
HETATM   10  C13 UNL     1      42.006   5.365  49.415  1.00  0.00     0.206 C 
HETATM   11  C14 UNL     1      41.575   6.539  48.565  1.00  0.00     0.185 C 
HETATM   12  C18 UNL     1      42.653   7.457  48.200  1.00  0.00     0.163 C 
HETATM   13  C19 UNL     1      43.129   8.429  49.251  1.00  0.00     0.041 C 
HETATM   14  C20 UNL     1      44.242   9.157  48.450  1.00  0.00     0.023 C 
ENDROOT
BRANCH   1  15
HETATM   15  O2  UNL     1      42.587  10.809  49.258  1.00  0.00    -0.315 OA
BRANCH  15  16
HETATM   16  C5  UNL     1      42.393  11.908  50.050  1.00  0.00     0.259 C 
HETATM   17  O1  UNL     1      41.377  12.602  49.877  1.00  0.00    -0.265 OA
BRANCH  16  18
HETATM   18  C4  UNL     1      43.435  12.190  51.078  1.00  0.00     0.115 C 
BRANCH  18  19
HETATM   19  C3  UNL     1      44.763  12.491  50.492  1.00  0.00     0.036 C 
BRANCH  19  20
HETATM   20  C2  UNL     1      45.144  13.886  50.798  1.00  0.00    -0.036 C 
HETATM   21  C1  UNL     1      44.456  14.899  50.308  1.00  0.00     0.007 C 
ENDBRANCH  19  20
ENDBRANCH  18  19
ENDBRANCH  16  18
ENDBRANCH  15  16
ENDBRANCH   1  15
BRANCH  12  22
HETATM   22  O8  UNL     1      43.778   6.726  47.792  1.00  0.00    -0.392 OA
ATOM     23  H8  UNL     1      44.216   7.182  47.083  1.00  0.00     0.210 HD
ENDBRANCH  12  22
BRANCH   4  24
HETATM   24  O3  UNL     1      43.883   7.731  52.810  1.00  0.00    -0.382 OA
ATOM     25  H3  UNL     1      44.213   6.885  53.092  1.00  0.00     0.211 HD
ENDBRANCH   4  24
BRANCH  11  26
HETATM   26  O6  UNL     1      40.958   6.074  47.357  1.00  0.00    -0.311 OA
BRANCH  26  27
HETATM   27  C15 UNL     1      39.691   6.393  46.961  1.00  0.00     0.258 C 
HETATM   28  O7  UNL     1      38.739   5.749  47.442  1.00  0.00    -0.265 OA
BRANCH  27  29
HETATM   29  C16 UNL     1      39.387   7.470  45.987  1.00  0.00     0.106 C 
HETATM   30  C17 UNL     1      37.922   7.463  45.609  1.00  0.00     0.015 C 
ENDBRANCH  27  29
ENDBRANCH  26  27
ENDBRANCH  11  26
TORSDOF 10
ENDMDL
MODEL 5
REMARK VINA RESULT: -6.562642637      3.567      5.010
REMARK  10 active torsions:
REMARK  status: ('A' for Active; 'I' for Inactive)
REMARK    1  A    between atoms: C2_2  and  C3_3 
REMARK    2  A    between atoms: C3_3  and  C4_4 
REMARK    3  A    between atoms: C4_4  and  C5_5 
REMARK    4  A    between atoms: C5_5  and  O2_7 
REMARK    5  A    between atoms: O2_7  and  C6_8 
REMARK    6  A    between atoms: C9_11  and  O3_12 
REMARK    7  A    between atoms: C14_20  and  O6_21 
REMARK    8  A    between atoms: O6_21  and  C15_22 
REMARK    9  A    between atoms: C15_22  and  C16_24 
REMARK   10  A    between atoms: C18_26  and  O8_27 
ROOT
HETATM    1  C6  UNL     1      42.256  10.386  49.372  1.00  0.00     0.145 C 
HETATM    2  C7  UNL     1      41.423  10.893  50.494  1.00  0.00     0.036 C 
HETATM    3  C8  UNL     1      40.971   9.894  51.481  1.00  0.00     0.049 C 
HETATM    4  C9  UNL     1      41.996   8.923  51.931  1.00  0.00     0.140 C 
HETATM    5  C10 UNL     1      43.104   8.656  51.006  1.00  0.00     0.178 C 
HETATM    6  O4  UNL     1      42.854   7.272  51.163  1.00  0.00    -0.343 OA
HETATM    7  C11 UNL     1      41.663   7.462  51.826  1.00  0.00     0.194 C 
HETATM    8  C12 UNL     1      41.521   6.751  53.147  1.00  0.00     0.082 C 
HETATM    9  O5  UNL     1      40.594   7.144  51.001  1.00  0.00    -0.350 OA
HETATM   10  C13 UNL     1      41.050   6.469  49.889  1.00  0.00     0.206 C 
HETATM   11  C14 UNL     1      41.235   7.446  48.751  1.00  0.00     0.185 C 
HETATM   12  C18 UNL     1      42.581   8.006  48.638  1.00  0.00     0.163 C 
HETATM   13  C19 UNL     1      42.965   9.101  49.602  1.00  0.00     0.041 C 
HETATM   14  C20 UNL     1      44.423   9.363  49.134  1.00  0.00     0.023 C 
ENDROOT
BRANCH   1  15
HETATM   15  O2  UNL     1      43.120  11.462  49.001  1.00  0.00    -0.315 OA
BRANCH  15  16
HETATM   16  C5  UNL     1      42.773  12.474  48.148  1.00  0.00     0.259 C 
HETATM   17  O1  UNL     1      42.057  12.215  47.167  1.00  0.00    -0.265 OA
BRANCH  16  18
HETATM   18  C4  UNL     1      43.292  13.834  48.471  1.00  0.00     0.115 C 
BRANCH  18  19
HETATM   19  C3  UNL     1      43.302  14.123  49.925  1.00  0.00     0.036 C 
BRANCH  19  20
HETATM   20  C2  UNL     1      44.689  14.343  50.385  1.00  0.00    -0.036 C 
HETATM   21  C1  UNL     1      45.450  13.331  50.752  1.00  0.00     0.007 C 
ENDBRANCH  19  20
ENDBRANCH  18  19
ENDBRANCH  16  18
ENDBRANCH  15  16
ENDBRANCH   1  15
BRANCH  12  22
HETATM   22  O8  UNL     1      43.531   6.986  48.790  1.00  0.00    -0.392 OA
ATOM     23  H8  UNL     1      44.382   7.297  48.505  1.00  0.00     0.210 HD
ENDBRANCH  12  22
BRANCH   4  24
HETATM   24  O3  UNL     1      42.392   9.204  53.260  1.00  0.00    -0.382 OA
ATOM     25  H3  UNL     1      43.089   8.617  53.529  1.00  0.00     0.211 HD
ENDBRANCH   4  24
BRANCH  11  26
HETATM   26  O6  UNL     1      40.907   6.820  47.504  1.00  0.00    -0.311 OA
BRANCH  26  27
HETATM   27  C15 UNL     1      39.659   6.795  46.952  1.00  0.00     0.258 C 
HETATM   28  O7  UNL     1      38.842   5.953  47.370  1.00  0.00    -0.265 OA
BRANCH  27  29
HETATM   29  C16 UNL     1      39.222   7.721  45.878  1.00  0.00     0.106 C 
HETATM   30  C17 UNL     1      37.769   7.493  45.522  1.00  0.00     0.015 C 
ENDBRANCH  27  29
ENDBRANCH  26  27
ENDBRANCH  11  26
TORSDOF 10
ENDMDL
