MODEL 1
REMARK VINA RESULT: -9.106207463      0.000      0.000
REMARK  9 active torsions:
REMARK  status: ('A' for Active; 'I' for Inactive)
REMARK    1  A    between atoms: C6_7  and  O2_8 
REMARK    2  A    between atoms: C7_10  and  O3_11 
REMARK    3  A    between atoms: O3_11  and  C8_12 
REMARK    4  A    between atoms: C8_12  and  C9_14 
REMARK    5  A    between atoms: C10_15  and  C11_16 
REMARK    6  A    between atoms: C18_24  and  C19_25 
REMARK    7  A    between atoms: C19_25  and  C20_26 
REMARK    8  A    between atoms: C20_26  and  O7_28 
REMARK    9  A    between atoms: O7_28  and  O8_29 
ROOT
HETATM    1  C1  UNL     1      44.213   9.449  49.339  1.00  0.00     0.078 C 
HETATM    2  C2  UNL     1      43.484   8.123  49.075  1.00  0.00     0.158 C 
HETATM    3  C3  UNL     1      44.225   7.536  47.854  1.00  0.00     0.078 C 
HETATM    4  O1  UNL     1      42.200   8.346  48.621  1.00  0.00    -0.355 OA
HETATM    5  C4  UNL     1      41.290   8.622  49.598  1.00  0.00     0.182 C 
HETATM    6  C5  UNL     1      41.401   7.750  50.814  1.00  0.00     0.080 C 
HETATM    7  C6  UNL     1      40.845   8.607  51.960  1.00  0.00     0.183 C 
HETATM    8  C7  UNL     1      41.831   9.564  52.508  1.00  0.00     0.298 C 
HETATM    9  O5  UNL     1      43.151   9.244  52.301  1.00  0.00    -0.355 OA
HETATM   10  C17 UNL     1      43.410   7.887  52.277  1.00  0.00     0.210 C 
HETATM   11  C18 UNL     1      42.731   7.178  51.092  1.00  0.00     0.103 C 
HETATM   12  O9  UNL     1      43.635   7.208  50.059  1.00  0.00    -0.342 OA
ENDROOT
BRANCH   8  13
HETATM   13  O3  UNL     1      41.553  10.854  51.997  1.00  0.00    -0.284 OA
BRANCH  13  14
HETATM   14  C8  UNL     1      42.468  11.901  52.028  1.00  0.00     0.285 C 
HETATM   15  O4  UNL     1      42.947  12.206  53.132  1.00  0.00    -0.260 OA
BRANCH  14  16
HETATM   16  C9  UNL     1      42.850  12.614  50.806  1.00  0.00     0.083 C 
HETATM   17  C10 UNL     1      43.251  13.856  50.848  1.00  0.00     0.017 C 
BRANCH  17  18
HETATM   18  C11 UNL     1      43.632  14.578  49.655  1.00  0.00    -0.036 A 
HETATM   19  C12 UNL     1      43.548  14.060  48.385  1.00  0.00     0.011 A 
HETATM   20  C13 UNL     1      43.936  14.822  47.277  1.00  0.00     0.001 A 
HETATM   21  C14 UNL     1      44.404  16.097  47.486  1.00  0.00     0.000 A 
HETATM   22  C15 UNL     1      44.506  16.654  48.735  1.00  0.00     0.001 A 
HETATM   23  C16 UNL     1      44.118  15.885  49.806  1.00  0.00     0.011 A 
ENDBRANCH  17  18
ENDBRANCH  14  16
ENDBRANCH  13  14
ENDBRANCH   8  13
BRANCH   7  24
HETATM   24  O2  UNL     1      39.643   9.206  51.570  1.00  0.00    -0.390 OA
ATOM     25  H2  UNL     1      39.802  10.098  51.282  1.00  0.00     0.210 HD
ENDBRANCH   7  24
BRANCH  11  26
HETATM   26  C19 UNL     1      42.658   5.730  51.524  1.00  0.00     0.154 C 
BRANCH  26  27
HETATM   27  C20 UNL     1      43.875   5.171  52.089  1.00  0.00     0.291 C 
HETATM   28  O6  UNL     1      44.948   5.088  51.496  1.00  0.00    -0.263 OA
BRANCH  27  29
HETATM   29  O7  UNL     1      43.794   4.693  53.414  1.00  0.00    -0.161 OA
BRANCH  29  30
HETATM   30  O8  UNL     1      42.791   5.133  54.198  1.00  0.00    -0.242 OA
ATOM     31  H8  UNL     1      42.674   6.070  54.303  1.00  0.00     0.254 HD
ENDBRANCH  29  30
ENDBRANCH  27  29
ENDBRANCH  26  27
ENDBRANCH  11  26
TORSDOF 9
ENDMDL
MODEL 2
REMARK VINA RESULT: -9.024682877      0.485      1.019
REMARK  9 active torsions:
REMARK  status: ('A' for Active; 'I' for Inactive)
REMARK    1  A    between atoms: C6_7  and  O2_8 
REMARK    2  A    between atoms: C7_10  and  O3_11 
REMARK    3  A    between atoms: O3_11  and  C8_12 
REMARK    4  A    between atoms: C8_12  and  C9_14 
REMARK    5  A    between atoms: C10_15  and  C11_16 
REMARK    6  A    between atoms: C18_24  and  C19_25 
REMARK    7  A    between atoms: C19_25  and  C20_26 
REMARK    8  A    between atoms: C20_26  and  O7_28 
REMARK    9  A    between atoms: O7_28  and  O8_29 
ROOT
HETATM    1  C1  UNL     1      44.303  10.023  49.402  1.00  0.00     0.078 C 
HETATM    2  C2  UNL     1      43.655   8.722  48.907  1.00  0.00     0.158 C 
HETATM    3  C3  UNL     1      44.454   8.377  47.631  1.00  0.00     0.078 C 
HETATM    4  O1  UNL     1      42.370   8.949  48.455  1.00  0.00    -0.355 OA
HETATM    5  C4  UNL     1      41.425   9.017  49.435  1.00  0.00     0.182 C 
HETATM    6  C5  UNL     1      41.557   7.967  50.498  1.00  0.00     0.080 C 
HETATM    7  C6  UNL     1      40.928   8.599  51.749  1.00  0.00     0.183 C 
HETATM    8  C7  UNL     1      41.848   9.503  52.473  1.00  0.00     0.298 C 
HETATM    9  O5  UNL     1      43.187   9.289  52.259  1.00  0.00    -0.355 OA
HETATM   10  C17 UNL     1      43.521   7.968  52.026  1.00  0.00     0.210 C 
HETATM   11  C18 UNL     1      42.910   7.426  50.723  1.00  0.00     0.103 C 
HETATM   12  O9  UNL     1      43.833   7.669  49.736  1.00  0.00    -0.342 OA
ENDROOT
BRANCH   8  13
HETATM   13  O3  UNL     1      41.510  10.843  52.167  1.00  0.00    -0.284 OA
BRANCH  13  14
HETATM   14  C8  UNL     1      42.419  11.894  52.234  1.00  0.00     0.285 C 
HETATM   15  O4  UNL     1      42.929  12.135  53.341  1.00  0.00    -0.260 OA
BRANCH  14  16
HETATM   16  C9  UNL     1      42.759  12.684  51.048  1.00  0.00     0.083 C 
HETATM   17  C10 UNL     1      43.369  13.833  51.155  1.00  0.00     0.017 C 
BRANCH  17  18
HETATM   18  C11 UNL     1      43.714  14.628  49.998  1.00  0.00    -0.036 A 
HETATM   19  C12 UNL     1      44.165  15.923  50.064  1.00  0.00     0.011 A 
HETATM   20  C13 UNL     1      44.480  16.629  48.897  1.00  0.00     0.001 A 
HETATM   21  C14 UNL     1      44.327  15.999  47.684  1.00  0.00     0.000 A 
HETATM   22  C15 UNL     1      43.879  14.708  47.572  1.00  0.00     0.001 A 
HETATM   23  C16 UNL     1      43.577  14.037  48.733  1.00  0.00     0.011 A 
ENDBRANCH  17  18
ENDBRANCH  14  16
ENDBRANCH  13  14
ENDBRANCH   8  13
BRANCH   7  24
HETATM   24  O2  UNL     1      39.705   9.190  51.422  1.00  0.00    -0.390 OA
ATOM     25  H2  UNL     1      39.427   8.908  50.558  1.00  0.00     0.210 HD
ENDBRANCH   7  24
BRANCH  11  26
HETATM   26  C19 UNL     1      42.907   5.926  50.915  1.00  0.00     0.154 C 
BRANCH  26  27
HETATM   27  C20 UNL     1      43.586   5.434  52.102  1.00  0.00     0.291 C 
HETATM   28  O6  UNL     1      44.581   4.711  52.091  1.00  0.00    -0.263 OA
BRANCH  27  29
HETATM   29  O7  UNL     1      43.047   5.825  53.346  1.00  0.00    -0.161 OA
BRANCH  29  30
HETATM   30  O8  UNL     1      43.111   4.961  54.377  1.00  0.00    -0.242 OA
ATOM     31  H8  UNL     1      43.589   4.148  54.260  1.00  0.00     0.254 HD
ENDBRANCH  29  30
ENDBRANCH  27  29
ENDBRANCH  26  27
ENDBRANCH  11  26
TORSDOF 9
ENDMDL
MODEL 3
REMARK VINA RESULT: -8.988542078      1.573      1.950
REMARK  9 active torsions:
REMARK  status: ('A' for Active; 'I' for Inactive)
REMARK    1  A    between atoms: C6_7  and  O2_8 
REMARK    2  A    between atoms: C7_10  and  O3_11 
REMARK    3  A    between atoms: O3_11  and  C8_12 
REMARK    4  A    between atoms: C8_12  and  C9_14 
REMARK    5  A    between atoms: C10_15  and  C11_16 
REMARK    6  A    between atoms: C18_24  and  C19_25 
REMARK    7  A    between atoms: C19_25  and  C20_26 
REMARK    8  A    between atoms: C20_26  and  O7_28 
REMARK    9  A    between atoms: O7_28  and  O8_29 
ROOT
HETATM    1  C1  UNL     1      44.390  10.200  49.690  1.00  0.00     0.078 C 
HETATM    2  C2  UNL     1      43.669   9.028  49.008  1.00  0.00     0.158 C 
HETATM    3  C3  UNL     1      44.472   8.812  47.706  1.00  0.00     0.078 C 
HETATM    4  O1  UNL     1      42.413   9.403  48.576  1.00  0.00    -0.355 OA
HETATM    5  C4  UNL     1      41.453   9.397  49.544  1.00  0.00     0.182 C 
HETATM    6  C5  UNL     1      41.493   8.202  50.451  1.00  0.00     0.080 C 
HETATM    7  C6  UNL     1      40.879   8.693  51.770  1.00  0.00     0.183 C 
HETATM    8  C7  UNL     1      41.840   9.423  52.626  1.00  0.00     0.298 C 
HETATM    9  O5  UNL     1      43.167   9.151  52.401  1.00  0.00    -0.355 OA
HETATM   10  C17 UNL     1      43.419   7.856  51.987  1.00  0.00     0.210 C 
HETATM   11  C18 UNL     1      42.802   7.544  50.614  1.00  0.00     0.103 C 
HETATM   12  O9  UNL     1      43.760   7.860  49.682  1.00  0.00    -0.342 OA
ENDROOT
BRANCH   8  13
HETATM   13  O3  UNL     1      41.597  10.813  52.508  1.00  0.00    -0.284 OA
BRANCH  13  14
HETATM   14  C8  UNL     1      42.462  11.784  53.001  1.00  0.00     0.285 C 
HETATM   15  O4  UNL     1      42.720  11.753  54.216  1.00  0.00    -0.260 OA
BRANCH  14  16
HETATM   16  C9  UNL     1      43.045  12.801  52.122  1.00  0.00     0.083 C 
HETATM   17  C10 UNL     1      42.601  12.975  50.907  1.00  0.00     0.017 C 
BRANCH  17  18
HETATM   18  C11 UNL     1      43.162  13.973  50.023  1.00  0.00    -0.036 A 
HETATM   19  C12 UNL     1      43.571  15.218  50.434  1.00  0.00     0.011 A 
HETATM   20  C13 UNL     1      44.106  16.131  49.517  1.00  0.00     0.001 A 
HETATM   21  C14 UNL     1      44.212  15.756  48.199  1.00  0.00     0.000 A 
HETATM   22  C15 UNL     1      43.816  14.524  47.746  1.00  0.00     0.001 A 
HETATM   23  C16 UNL     1      43.294  13.646  48.665  1.00  0.00     0.011 A 
ENDBRANCH  17  18
ENDBRANCH  14  16
ENDBRANCH  13  14
ENDBRANCH   8  13
BRANCH   7  24
HETATM   24  O2  UNL     1      39.704   9.407  51.515  1.00  0.00    -0.390 OA
ATOM     25  H2  UNL     1      38.986   9.040  52.017  1.00  0.00     0.210 HD
ENDBRANCH   7  24
BRANCH  11  26
HETATM   26  C19 UNL     1      42.697   6.036  50.592  1.00  0.00     0.154 C 
BRANCH  26  27
HETATM   27  C20 UNL     1      41.957   5.463  49.480  1.00  0.00     0.291 C 
HETATM   28  O6  UNL     1      42.285   5.556  48.299  1.00  0.00    -0.263 OA
BRANCH  27  29
HETATM   29  O7  UNL     1      40.780   4.755  49.802  1.00  0.00    -0.161 OA
BRANCH  29  30
HETATM   30  O8  UNL     1      39.947   5.275  50.724  1.00  0.00    -0.242 OA
ATOM     31  H8  UNL     1      39.770   4.772  51.511  1.00  0.00     0.254 HD
ENDBRANCH  29  30
ENDBRANCH  27  29
ENDBRANCH  26  27
ENDBRANCH  11  26
TORSDOF 9
ENDMDL
MODEL 4
REMARK VINA RESULT: -8.892712761      0.623      1.437
REMARK  9 active torsions:
REMARK  status: ('A' for Active; 'I' for Inactive)
REMARK    1  A    between atoms: C6_7  and  O2_8 
REMARK    2  A    between atoms: C7_10  and  O3_11 
REMARK    3  A    between atoms: O3_11  and  C8_12 
REMARK    4  A    between atoms: C8_12  and  C9_14 
REMARK    5  A    between atoms: C10_15  and  C11_16 
REMARK    6  A    between atoms: C18_24  and  C19_25 
REMARK    7  A    between atoms: C19_25  and  C20_26 
REMARK    8  A    between atoms: C20_26  and  O7_28 
REMARK    9  A    between atoms: O7_28  and  O8_29 
ROOT
HETATM    1  C1  UNL     1      44.317   9.942  49.635  1.00  0.00     0.078 C 
HETATM    2  C2  UNL     1      43.511   8.712  49.195  1.00  0.00     0.158 C 
HETATM    3  C3  UNL     1      44.247   8.226  47.927  1.00  0.00     0.078 C 
HETATM    4  O1  UNL     1      42.258   9.076  48.744  1.00  0.00    -0.355 OA
HETATM    5  C4  UNL     1      41.340   9.296  49.728  1.00  0.00     0.182 C 
HETATM    6  C5  UNL     1      41.356   8.278  50.830  1.00  0.00     0.080 C 
HETATM    7  C6  UNL     1      40.824   9.026  52.060  1.00  0.00     0.183 C 
HETATM    8  C7  UNL     1      41.856   9.839  52.742  1.00  0.00     0.298 C 
HETATM    9  O5  UNL     1      43.156   9.455  52.527  1.00  0.00    -0.355 OA
HETATM   10  C17 UNL     1      43.325   8.096  52.341  1.00  0.00     0.210 C 
HETATM   11  C18 UNL     1      42.636   7.584  51.065  1.00  0.00     0.103 C 
HETATM   12  O9  UNL     1      43.570   7.676  50.062  1.00  0.00    -0.342 OA
ENDROOT
BRANCH   8  13
HETATM   13  O3  UNL     1      41.679  11.197  52.388  1.00  0.00    -0.284 OA
BRANCH  13  14
HETATM   14  C8  UNL     1      42.514  12.217  52.832  1.00  0.00     0.285 C 
HETATM   15  O4  UNL     1      42.799  12.234  54.041  1.00  0.00    -0.260 OA
BRANCH  14  16
HETATM   16  C9  UNL     1      43.037  13.229  51.909  1.00  0.00     0.083 C 
HETATM   17  C10 UNL     1      42.869  13.115  50.620  1.00  0.00     0.017 C 
BRANCH  17  18
HETATM   18  C11 UNL     1      43.376  14.102  49.692  1.00  0.00    -0.036 A 
HETATM   19  C12 UNL     1      43.846  15.337  50.067  1.00  0.00     0.011 A 
HETATM   20  C13 UNL     1      44.323  16.239  49.109  1.00  0.00     0.001 A 
HETATM   21  C14 UNL     1      44.309  15.864  47.786  1.00  0.00     0.000 A 
HETATM   22  C15 UNL     1      43.849  14.642  47.368  1.00  0.00     0.001 A 
HETATM   23  C16 UNL     1      43.386  13.774  48.328  1.00  0.00     0.011 A 
ENDBRANCH  17  18
ENDBRANCH  14  16
ENDBRANCH  13  14
ENDBRANCH   8  13
BRANCH   7  24
HETATM   24  O2  UNL     1      39.677   9.750  51.720  1.00  0.00    -0.390 OA
ATOM     25  H2  UNL     1      39.364  10.236  52.475  1.00  0.00     0.210 HD
ENDBRANCH   7  24
BRANCH  11  26
HETATM   26  C19 UNL     1      42.454   6.104  51.314  1.00  0.00     0.154 C 
BRANCH  26  27
HETATM   27  C20 UNL     1      43.394   5.492  52.239  1.00  0.00     0.291 C 
HETATM   28  O6  UNL     1      43.261   5.469  53.460  1.00  0.00    -0.263 OA
BRANCH  27  29
HETATM   29  O7  UNL     1      44.535   4.888  51.671  1.00  0.00    -0.161 OA
BRANCH  29  30
HETATM   30  O8  UNL     1      45.494   5.680  51.153  1.00  0.00    -0.242 OA
ATOM     31  H8  UNL     1      46.375   5.617  51.505  1.00  0.00     0.254 HD
ENDBRANCH  29  30
ENDBRANCH  27  29
ENDBRANCH  26  27
ENDBRANCH  11  26
TORSDOF 9
ENDMDL
MODEL 5
REMARK VINA RESULT: -8.831787543      1.771      2.202
REMARK  9 active torsions:
REMARK  status: ('A' for Active; 'I' for Inactive)
REMARK    1  A    between atoms: C6_7  and  O2_8 
REMARK    2  A    between atoms: C7_10  and  O3_11 
REMARK    3  A    between atoms: O3_11  and  C8_12 
REMARK    4  A    between atoms: C8_12  and  C9_14 
REMARK    5  A    between atoms: C10_15  and  C11_16 
REMARK    6  A    between atoms: C18_24  and  C19_25 
REMARK    7  A    between atoms: C19_25  and  C20_26 
REMARK    8  A    between atoms: C20_26  and  O7_28 
REMARK    9  A    between atoms: O7_28  and  O8_29 
ROOT
HETATM    1  C1  UNL     1      44.480  10.125  49.759  1.00  0.00     0.078 C 
HETATM    2  C2  UNL     1      43.749   8.997  49.018  1.00  0.00     0.158 C 
HETATM    3  C3  UNL     1      44.540   8.852  47.699  1.00  0.00     0.078 C 
HETATM    4  O1  UNL     1      42.491   9.401  48.619  1.00  0.00    -0.355 OA
HETATM    5  C4  UNL     1      41.539   9.345  49.593  1.00  0.00     0.182 C 
HETATM    6  C5  UNL     1      41.580   8.100  50.429  1.00  0.00     0.080 C 
HETATM    7  C6  UNL     1      40.979   8.518  51.779  1.00  0.00     0.183 C 
HETATM    8  C7  UNL     1      41.951   9.194  52.667  1.00  0.00     0.298 C 
HETATM    9  O5  UNL     1      43.274   8.929  52.416  1.00  0.00    -0.355 OA
HETATM   10  C17 UNL     1      43.517   7.659  51.928  1.00  0.00     0.210 C 
HETATM   11  C18 UNL     1      42.887   7.428  50.544  1.00  0.00     0.103 C 
HETATM   12  O9  UNL     1      43.840   7.792  49.624  1.00  0.00    -0.342 OA
ENDROOT
BRANCH   8  13
HETATM   13  O3  UNL     1      41.713  10.589  52.631  1.00  0.00    -0.284 OA
BRANCH  13  14
HETATM   14  C8  UNL     1      42.370  11.498  53.454  1.00  0.00     0.285 C 
HETATM   15  O4  UNL     1      42.739  11.092  54.569  1.00  0.00    -0.260 OA
BRANCH  14  16
HETATM   16  C9  UNL     1      42.616  12.876  53.023  1.00  0.00     0.083 C 
HETATM   17  C10 UNL     1      43.235  13.131  51.902  1.00  0.00     0.017 C 
BRANCH  17  18
HETATM   18  C11 UNL     1      43.488  14.483  51.457  1.00  0.00    -0.036 A 
HETATM   19  C12 UNL     1      44.062  14.799  50.250  1.00  0.00     0.011 A 
HETATM   20  C13 UNL     1      44.274  16.134  49.888  1.00  0.00     0.001 A 
HETATM   21  C14 UNL     1      43.899  17.122  50.768  1.00  0.00     0.000 A 
HETATM   22  C15 UNL     1      43.324  16.853  51.983  1.00  0.00     0.001 A 
HETATM   23  C16 UNL     1      43.126  15.533  52.314  1.00  0.00     0.011 A 
ENDBRANCH  17  18
ENDBRANCH  14  16
ENDBRANCH  13  14
ENDBRANCH   8  13
BRANCH   7  24
HETATM   24  O2  UNL     1      39.806   9.250  51.575  1.00  0.00    -0.390 OA
ATOM     25  H2  UNL     1      39.048   8.699  51.732  1.00  0.00     0.210 HD
ENDBRANCH   7  24
BRANCH  11  26
HETATM   26  C19 UNL     1      42.775   5.924  50.438  1.00  0.00     0.154 C 
BRANCH  26  27
HETATM   27  C20 UNL     1      41.956   5.421  49.348  1.00  0.00     0.291 C 
HETATM   28  O6  UNL     1      42.199   5.586  48.154  1.00  0.00    -0.263 OA
BRANCH  27  29
HETATM   29  O7  UNL     1      40.802   4.693  49.709  1.00  0.00    -0.161 OA
BRANCH  29  30
HETATM   30  O8  UNL     1      40.088   5.105  50.774  1.00  0.00    -0.242 OA
ATOM     31  H8  UNL     1      40.175   4.628  51.591  1.00  0.00     0.254 HD
ENDBRANCH  29  30
ENDBRANCH  27  29
ENDBRANCH  26  27
ENDBRANCH  11  26
TORSDOF 9
ENDMDL
