MODEL 1
REMARK VINA RESULT: -8.585992287      0.000      0.000
REMARK  6 active torsions:
REMARK  status: ('A' for Active; 'I' for Inactive)
REMARK    1  A    between atoms: N1_1  and  N2_4 
REMARK    2  A    between atoms: C1_5  and  S1_6 
REMARK    3  A    between atoms: S1_6  and  C2_7 
REMARK    4  A    between atoms: C2_7  and  C3_8 
REMARK       I    between atoms: C3_8  and  N3_10 
REMARK    5  A    between atoms: N3_10  and  C4_12 
REMARK    6  A    between atoms: N4_15  and  C7_16 
ROOT
HETATM    1  N2  UNL     1      41.023   7.055  49.277  1.00  0.00    -0.221 N 
HETATM    2  C1  UNL     1      41.098   6.540  50.538  1.00  0.00     0.182 A 
HETATM    3  N5  UNL     1      40.353   5.435  50.546  1.00  0.00    -0.277 N 
ATOM      4  H5  UNL     1      40.203   4.818  51.344  1.00  0.00     0.189 HD
HETATM    5  N6  UNL     1      39.848   5.282  49.346  1.00  0.00    -0.281 N 
ATOM      6  H6  UNL     1      39.237   4.513  49.071  1.00  0.00     0.188 HD
HETATM    7  C14 UNL     1      40.248   6.288  48.513  1.00  0.00     0.154 A 
HETATM    8  C15 UNL     1      39.863   6.407  47.132  1.00  0.00     0.014 A 
HETATM    9  C16 UNL     1      39.025   5.455  46.544  1.00  0.00     0.032 A 
HETATM   10  C17 UNL     1      38.614   5.491  45.260  1.00  0.00     0.088 A 
HETATM   11  N7  UNL     1      39.031   6.507  44.473  1.00  0.00    -0.375 N 
ATOM     12  H7  UNL     1      38.736   6.558  43.498  1.00  0.00     0.164 HD
HETATM   13  C18 UNL     1      39.838   7.446  44.988  1.00  0.00     0.088 A 
HETATM   14  C19 UNL     1      40.277   7.429  46.320  1.00  0.00     0.032 A 
ENDROOT
BRANCH   2  15
HETATM   15  S1  UNL     1      41.994   7.188  51.925  1.00  0.00    -0.081 SA
BRANCH  15  16
HETATM   16  C2  UNL     1      41.352   8.814  52.344  1.00  0.00     0.185 C 
BRANCH  16  17
HETATM   17  C3  UNL     1      42.290   9.888  51.946  1.00  0.00     0.227 C 
HETATM   18  O1  UNL     1      43.324   9.571  51.314  1.00  0.00    -0.273 OA
HETATM   19  N3  UNL     1      42.050  11.253  52.259  1.00  0.00    -0.356 N 
ATOM     20  H3  UNL     1      41.205  11.502  52.775  1.00  0.00     0.162 HD
BRANCH  19  21
HETATM   21  C4  UNL     1      42.973  12.307  51.866  1.00  0.00     0.087 C 
HETATM   22  C5  UNL     1      43.127  13.247  53.021  1.00  0.00     0.055 C 
HETATM   23  C6  UNL     1      42.902  14.693  52.654  1.00  0.00     0.275 C 
HETATM   24  N4  UNL     1      43.678  14.973  51.484  1.00  0.00     0.093 N 
HETATM   25  C12 UNL     1      43.079  14.338  50.364  1.00  0.00     0.275 C 
HETATM   26  C13 UNL     1      42.613  12.938  50.577  1.00  0.00     0.055 C 
BRANCH  24  27
HETATM   27  C7  UNL     1      43.885  16.353  51.248  1.00  0.00     0.223 C 
HETATM   28  C8  UNL     1      44.163  16.762  49.839  1.00  0.00     0.036 C 
HETATM   29  C9  UNL     1      44.141  18.295  49.960  1.00  0.00     0.002 C 
HETATM   30  C10 UNL     1      43.280  18.598  51.176  1.00  0.00     0.002 C 
HETATM   31  C11 UNL     1      42.678  17.236  51.565  1.00  0.00     0.036 C 
ENDBRANCH  24  27
ENDBRANCH  19  21
ENDBRANCH  16  17
ENDBRANCH  15  16
ENDBRANCH   2  15
BRANCH   1  32
HETATM   32  N1  UNL     1      41.704   8.224  48.950  1.00  0.00    -0.335 N 
ATOM     33  H12 UNL     1      42.213   8.867  49.557  1.00  0.00     0.177 HD
ATOM     34  H11 UNL     1      41.742   8.548  47.983  1.00  0.00     0.177 HD
ENDBRANCH   1  32
TORSDOF 6
ENDMDL
MODEL 2
REMARK VINA RESULT: -8.248824131      3.142      9.368
REMARK  6 active torsions:
REMARK  status: ('A' for Active; 'I' for Inactive)
REMARK    1  A    between atoms: N1_1  and  N2_4 
REMARK    2  A    between atoms: C1_5  and  S1_6 
REMARK    3  A    between atoms: S1_6  and  C2_7 
REMARK    4  A    between atoms: C2_7  and  C3_8 
REMARK       I    between atoms: C3_8  and  N3_10 
REMARK    5  A    between atoms: N3_10  and  C4_12 
REMARK    6  A    between atoms: N4_15  and  C7_16 
ROOT
HETATM    1  N2  UNL     1      43.334  14.095  51.631  1.00  0.00    -0.221 N 
HETATM    2  C1  UNL     1      42.932  13.890  52.918  1.00  0.00     0.182 A 
HETATM    3  N5  UNL     1      42.840  15.090  53.487  1.00  0.00    -0.277 N 
ATOM      4  H5  UNL     1      42.563  15.278  54.450  1.00  0.00     0.189 HD
HETATM    5  N6  UNL     1      43.169  15.988  52.589  1.00  0.00    -0.281 N 
ATOM      6  H6  UNL     1      43.184  16.993  52.757  1.00  0.00     0.188 HD
HETATM    7  C14 UNL     1      43.489  15.397  51.400  1.00  0.00     0.154 A 
HETATM    8  C15 UNL     1      43.894  16.109  50.217  1.00  0.00     0.014 A 
HETATM    9  C16 UNL     1      43.983  17.504  50.223  1.00  0.00     0.032 A 
HETATM   10  C17 UNL     1      44.356  18.249  49.162  1.00  0.00     0.088 A 
HETATM   11  N7  UNL     1      44.667  17.622  48.007  1.00  0.00    -0.375 N 
ATOM     12  H7  UNL     1      44.952  18.160  47.189  1.00  0.00     0.164 HD
HETATM   13  C18 UNL     1      44.598  16.284  47.948  1.00  0.00     0.088 A 
HETATM   14  C19 UNL     1      44.213  15.490  49.037  1.00  0.00     0.032 A 
ENDROOT
BRANCH   2  15
HETATM   15  S1  UNL     1      42.595  12.342  53.718  1.00  0.00    -0.081 SA
BRANCH  15  16
HETATM   16  C2  UNL     1      41.415  11.407  52.737  1.00  0.00     0.185 C 
BRANCH  16  17
HETATM   17  C3  UNL     1      42.012  10.159  52.210  1.00  0.00     0.227 C 
HETATM   18  O1  UNL     1      42.560   9.375  53.019  1.00  0.00    -0.273 OA
HETATM   19  N3  UNL     1      41.979   9.833  50.827  1.00  0.00    -0.356 N 
ATOM     20  H3  UNL     1      41.532  10.478  50.176  1.00  0.00     0.162 HD
BRANCH  19  21
HETATM   21  C4  UNL     1      42.567   8.605  50.312  1.00  0.00     0.087 C 
HETATM   22  C5  UNL     1      43.990   8.887  49.944  1.00  0.00     0.055 C 
HETATM   23  C6  UNL     1      44.346   8.455  48.543  1.00  0.00     0.275 C 
HETATM   24  N4  UNL     1      43.887   7.110  48.370  1.00  0.00     0.093 N 
HETATM   25  C12 UNL     1      42.469   7.109  48.276  1.00  0.00     0.275 C 
HETATM   26  C13 UNL     1      41.748   7.976  49.252  1.00  0.00     0.055 C 
BRANCH  24  27
HETATM   27  C7  UNL     1      44.478   6.437  47.275  1.00  0.00     0.223 C 
HETATM   28  C8  UNL     1      45.387   7.237  46.401  1.00  0.00     0.036 C 
HETATM   29  C9  UNL     1      45.954   6.147  45.477  1.00  0.00     0.002 C 
HETATM   30  C10 UNL     1      45.836   4.846  46.255  1.00  0.00     0.002 C 
HETATM   31  C11 UNL     1      45.404   5.285  47.666  1.00  0.00     0.036 C 
ENDBRANCH  24  27
ENDBRANCH  19  21
ENDBRANCH  16  17
ENDBRANCH  15  16
ENDBRANCH   2  15
BRANCH   1  32
HETATM   32  N1  UNL     1      43.523  13.017  50.769  1.00  0.00    -0.335 N 
ATOM     33  H12 UNL     1      42.911  12.664  50.033  1.00  0.00     0.177 HD
ATOM     34  H11 UNL     1      44.371  12.453  50.823  1.00  0.00     0.177 HD
ENDBRANCH   1  32
TORSDOF 6
ENDMDL
MODEL 3
REMARK VINA RESULT: -8.191810922      2.929      9.394
REMARK  6 active torsions:
REMARK  status: ('A' for Active; 'I' for Inactive)
REMARK    1  A    between atoms: N1_1  and  N2_4 
REMARK    2  A    between atoms: C1_5  and  S1_6 
REMARK    3  A    between atoms: S1_6  and  C2_7 
REMARK    4  A    between atoms: C2_7  and  C3_8 
REMARK       I    between atoms: C3_8  and  N3_10 
REMARK    5  A    between atoms: N3_10  and  C4_12 
REMARK    6  A    between atoms: N4_15  and  C7_16 
ROOT
HETATM    1  N2  UNL     1      43.319  14.084  51.595  1.00  0.00    -0.221 N 
HETATM    2  C1  UNL     1      42.894  13.810  52.861  1.00  0.00     0.182 A 
HETATM    3  N5  UNL     1      42.789  14.978  53.493  1.00  0.00    -0.277 N 
ATOM      4  H5  UNL     1      42.494  15.113  54.460  1.00  0.00     0.189 HD
HETATM    5  N6  UNL     1      43.133  15.923  52.652  1.00  0.00    -0.281 N 
ATOM      6  H6  UNL     1      43.143  16.917  52.874  1.00  0.00     0.188 HD
HETATM    7  C14 UNL     1      43.476  15.398  51.438  1.00  0.00     0.154 A 
HETATM    8  C15 UNL     1      43.902  16.172  50.303  1.00  0.00     0.014 A 
HETATM    9  C16 UNL     1      43.989  17.565  50.387  1.00  0.00     0.032 A 
HETATM   10  C17 UNL     1      44.380  18.366  49.374  1.00  0.00     0.088 A 
HETATM   11  N7  UNL     1      44.714  17.803  48.193  1.00  0.00    -0.375 N 
ATOM     12  H7  UNL     1      45.013  18.385  47.411  1.00  0.00     0.164 HD
HETATM   13  C18 UNL     1      44.648  16.470  48.060  1.00  0.00     0.088 A 
HETATM   14  C19 UNL     1      44.244  15.618  49.098  1.00  0.00     0.032 A 
ENDROOT
BRANCH   2  15
HETATM   15  S1  UNL     1      42.544  12.221  53.570  1.00  0.00    -0.081 SA
BRANCH  15  16
HETATM   16  C2  UNL     1      41.149  11.480  52.715  1.00  0.00     0.185 C 
BRANCH  16  17
HETATM   17  C3  UNL     1      41.549  10.264  51.971  1.00  0.00     0.227 C 
HETATM   18  O1  UNL     1      42.065  10.403  50.838  1.00  0.00    -0.273 OA
HETATM   19  N3  UNL     1      41.366   8.959  52.504  1.00  0.00    -0.356 N 
ATOM     20  H3  UNL     1      40.945   8.856  53.428  1.00  0.00     0.162 HD
BRANCH  19  21
HETATM   21  C4  UNL     1      41.762   7.766  51.771  1.00  0.00     0.087 C 
HETATM   22  C5  UNL     1      43.253   7.651  51.836  1.00  0.00     0.055 C 
HETATM   23  C6  UNL     1      43.902   7.472  50.485  1.00  0.00     0.275 C 
HETATM   24  N4  UNL     1      43.201   6.428  49.799  1.00  0.00     0.093 N 
HETATM   25  C12 UNL     1      41.926   6.908  49.398  1.00  0.00     0.275 C 
HETATM   26  C13 UNL     1      41.178   7.705  50.413  1.00  0.00     0.055 C 
BRANCH  24  27
HETATM   27  C7  UNL     1      43.914   5.879  48.707  1.00  0.00     0.223 C 
HETATM   28  C8  UNL     1      44.491   6.843  47.723  1.00  0.00     0.036 C 
HETATM   29  C9  UNL     1      45.316   5.904  46.829  1.00  0.00     0.002 C 
HETATM   30  C10 UNL     1      45.638   4.693  47.690  1.00  0.00     0.002 C 
HETATM   31  C11 UNL     1      45.164   5.092  49.099  1.00  0.00     0.036 C 
ENDBRANCH  24  27
ENDBRANCH  19  21
ENDBRANCH  16  17
ENDBRANCH  15  16
ENDBRANCH   2  15
BRANCH   1  32
HETATM   32  N1  UNL     1      43.525  13.055  50.680  1.00  0.00    -0.335 N 
ATOM     33  H12 UNL     1      43.087  12.135  50.633  1.00  0.00     0.177 HD
ATOM     34  H11 UNL     1      44.196  13.165  49.920  1.00  0.00     0.177 HD
ENDBRANCH   1  32
TORSDOF 6
ENDMDL
MODEL 4
REMARK VINA RESULT: -8.046708861      2.073      9.776
REMARK  6 active torsions:
REMARK  status: ('A' for Active; 'I' for Inactive)
REMARK    1  A    between atoms: N1_1  and  N2_4 
REMARK    2  A    between atoms: C1_5  and  S1_6 
REMARK    3  A    between atoms: S1_6  and  C2_7 
REMARK    4  A    between atoms: C2_7  and  C3_8 
REMARK       I    between atoms: C3_8  and  N3_10 
REMARK    5  A    between atoms: N3_10  and  C4_12 
REMARK    6  A    between atoms: N4_15  and  C7_16 
ROOT
HETATM    1  N2  UNL     1      43.333  14.045  51.570  1.00  0.00    -0.221 N 
HETATM    2  C1  UNL     1      42.933  13.751  52.840  1.00  0.00     0.182 A 
HETATM    3  N5  UNL     1      42.832  14.910  53.488  1.00  0.00    -0.277 N 
ATOM      4  H5  UNL     1      42.554  15.032  54.462  1.00  0.00     0.189 HD
HETATM    5  N6  UNL     1      43.154  15.868  52.652  1.00  0.00    -0.281 N 
ATOM      6  H6  UNL     1      43.161  16.860  52.887  1.00  0.00     0.188 HD
HETATM    7  C14 UNL     1      43.478  15.361  51.426  1.00  0.00     0.154 A 
HETATM    8  C15 UNL     1      43.877  16.153  50.293  1.00  0.00     0.014 A 
HETATM    9  C16 UNL     1      43.956  17.545  50.393  1.00  0.00     0.032 A 
HETATM   10  C17 UNL     1      44.322  18.362  49.384  1.00  0.00     0.088 A 
HETATM   11  N7  UNL     1      44.638  17.816  48.189  1.00  0.00    -0.375 N 
ATOM     12  H7  UNL     1      44.918  18.410  47.409  1.00  0.00     0.164 HD
HETATM   13  C18 UNL     1      44.579  16.484  48.041  1.00  0.00     0.088 A 
HETATM   14  C19 UNL     1      44.201  15.616  49.075  1.00  0.00     0.032 A 
ENDROOT
BRANCH   2  15
HETATM   15  S1  UNL     1      42.608  12.151  53.535  1.00  0.00    -0.081 SA
BRANCH  15  16
HETATM   16  C2  UNL     1      41.315  11.340  52.587  1.00  0.00     0.185 C 
BRANCH  16  17
HETATM   17  C3  UNL     1      41.853  10.225  51.774  1.00  0.00     0.227 C 
HETATM   18  O1  UNL     1      43.093  10.154  51.609  1.00  0.00    -0.273 OA
HETATM   19  N3  UNL     1      41.008   9.246  51.185  1.00  0.00    -0.356 N 
ATOM     20  H3  UNL     1      40.000   9.312  51.325  1.00  0.00     0.162 HD
BRANCH  19  21
HETATM   21  C4  UNL     1      41.540   8.151  50.387  1.00  0.00     0.087 C 
HETATM   22  C5  UNL     1      41.785   8.659  49.001  1.00  0.00     0.055 C 
HETATM   23  C6  UNL     1      41.158   7.804  47.927  1.00  0.00     0.275 C 
HETATM   24  N4  UNL     1      41.515   6.442  48.189  1.00  0.00     0.093 N 
HETATM   25  C12 UNL     1      40.795   5.981  49.323  1.00  0.00     0.275 C 
HETATM   26  C13 UNL     1      40.721   6.921  50.479  1.00  0.00     0.055 C 
BRANCH  24  27
HETATM   27  C7  UNL     1      41.344   5.579  47.082  1.00  0.00     0.223 C 
HETATM   28  C8  UNL     1      40.003   5.583  46.423  1.00  0.00     0.036 C 
HETATM   29  C9  UNL     1      40.266   4.694  45.197  1.00  0.00     0.002 C 
HETATM   30  C10 UNL     1      41.760   4.789  44.933  1.00  0.00     0.002 C 
HETATM   31  C11 UNL     1      42.245   5.895  45.888  1.00  0.00     0.036 C 
ENDBRANCH  24  27
ENDBRANCH  19  21
ENDBRANCH  16  17
ENDBRANCH  15  16
ENDBRANCH   2  15
BRANCH   1  32
HETATM   32  N1  UNL     1      43.530  13.029  50.638  1.00  0.00    -0.335 N 
ATOM     33  H12 UNL     1      42.997  12.171  50.496  1.00  0.00     0.177 HD
ATOM     34  H11 UNL     1      44.298  13.081  49.968  1.00  0.00     0.177 HD
ENDBRANCH   1  32
TORSDOF 6
ENDMDL
MODEL 5
REMARK VINA RESULT: -8.002715930      1.640      2.084
REMARK  6 active torsions:
REMARK  status: ('A' for Active; 'I' for Inactive)
REMARK    1  A    between atoms: N1_1  and  N2_4 
REMARK    2  A    between atoms: C1_5  and  S1_6 
REMARK    3  A    between atoms: S1_6  and  C2_7 
REMARK    4  A    between atoms: C2_7  and  C3_8 
REMARK       I    between atoms: C3_8  and  N3_10 
REMARK    5  A    between atoms: N3_10  and  C4_12 
REMARK    6  A    between atoms: N4_15  and  C7_16 
ROOT
HETATM    1  N2  UNL     1      40.998   6.988  48.406  1.00  0.00    -0.221 N 
HETATM    2  C1  UNL     1      41.157   6.253  49.543  1.00  0.00     0.182 A 
HETATM    3  N5  UNL     1      40.195   5.332  49.541  1.00  0.00    -0.277 N 
ATOM      4  H5  UNL     1      40.040   4.624  50.259  1.00  0.00     0.189 HD
HETATM    5  N6  UNL     1      39.482   5.495  48.453  1.00  0.00    -0.281 N 
ATOM      6  H6  UNL     1      38.679   4.922  48.197  1.00  0.00     0.188 HD
HETATM    7  C14 UNL     1      39.959   6.536  47.706  1.00  0.00     0.154 A 
HETATM    8  C15 UNL     1      39.395   6.971  46.457  1.00  0.00     0.014 A 
HETATM    9  C16 UNL     1      38.281   6.322  45.917  1.00  0.00     0.032 A 
HETATM   10  C17 UNL     1      37.689   6.665  44.754  1.00  0.00     0.088 A 
HETATM   11  N7  UNL     1      38.192   7.703  44.051  1.00  0.00    -0.375 N 
ATOM     12  H7  UNL     1      37.763   7.983  43.169  1.00  0.00     0.164 HD
HETATM   13  C18 UNL     1      39.260   8.360  44.526  1.00  0.00     0.088 A 
HETATM   14  C19 UNL     1      39.892   8.021  45.731  1.00  0.00     0.032 A 
ENDROOT
BRANCH   2  15
HETATM   15  S1  UNL     1      42.385   6.457  50.807  1.00  0.00    -0.081 SA
BRANCH  15  16
HETATM   16  C2  UNL     1      41.666   7.328  52.204  1.00  0.00     0.185 C 
BRANCH  16  17
HETATM   17  C3  UNL     1      42.142   8.727  52.277  1.00  0.00     0.227 C 
HETATM   18  O1  UNL     1      42.462   9.190  53.396  1.00  0.00    -0.273 OA
HETATM   19  N3  UNL     1      42.244   9.550  51.122  1.00  0.00    -0.356 N 
ATOM     20  H3  UNL     1      41.980   9.165  50.215  1.00  0.00     0.162 HD
BRANCH  19  21
HETATM   21  C4  UNL     1      42.712  10.926  51.196  1.00  0.00     0.087 C 
HETATM   22  C5  UNL     1      41.578  11.826  50.817  1.00  0.00     0.055 C 
HETATM   23  C6  UNL     1      41.935  12.824  49.743  1.00  0.00     0.275 C 
HETATM   24  N4  UNL     1      43.164  13.455  50.123  1.00  0.00     0.093 N 
HETATM   25  C12 UNL     1      44.231  12.531  49.966  1.00  0.00     0.275 C 
HETATM   26  C13 UNL     1      43.974  11.145  50.454  1.00  0.00     0.055 C 
BRANCH  24  27
HETATM   27  C7  UNL     1      43.424  14.666  49.440  1.00  0.00     0.223 C 
HETATM   28  C8  UNL     1      44.285  15.665  50.139  1.00  0.00     0.036 C 
HETATM   29  C9  UNL     1      44.480  16.719  49.037  1.00  0.00     0.002 C 
HETATM   30  C10 UNL     1      44.281  15.982  47.723  1.00  0.00     0.002 C 
HETATM   31  C11 UNL     1      44.192  14.500  48.129  1.00  0.00     0.036 C 
ENDBRANCH  24  27
ENDBRANCH  19  21
ENDBRANCH  16  17
ENDBRANCH  15  16
ENDBRANCH   2  15
BRANCH   1  32
HETATM   32  N1  UNL     1      41.863   8.042  48.119  1.00  0.00    -0.335 N 
ATOM     33  H12 UNL     1      42.627   8.085  47.445  1.00  0.00     0.177 HD
ATOM     34  H11 UNL     1      41.780   8.929  48.615  1.00  0.00     0.177 HD
ENDBRANCH   1  32
TORSDOF 6
ENDMDL
