MODEL 1
REMARK VINA RESULT: -7.542566867      0.000      0.000
REMARK  7 active torsions:
REMARK  status: ('A' for Active; 'I' for Inactive)
REMARK    1  A    between atoms: C6_6  and  C7_7 
REMARK    2  A    between atoms: C7_7  and  O1_8 
REMARK    3  A    between atoms: C7_7  and  N1_10 
REMARK    4  A    between atoms: N1_10  and  C8_12 
REMARK    5  A    between atoms: C8_12  and  C9_13 
REMARK       I    between atoms: N2_18  and  C13_19 
REMARK    6  A    between atoms: C13_19  and  C14_21 
REMARK    7  A    between atoms: N3_25  and  N4_26 
ROOT
HETATM    1  C1  UNL     1      44.742   9.960  49.616  1.00  0.00     0.068 C 
HETATM    2  C2  UNL     1      43.515  10.742  49.401  1.00  0.00     0.008 C 
HETATM    3  C3  UNL     1      43.409  11.604  48.372  1.00  0.00    -0.002 C 
HETATM    4  C4  UNL     1      42.159  12.373  48.187  1.00  0.00     0.031 C 
HETATM    5  C5  UNL     1      41.574  12.818  49.508  1.00  0.00     0.038 C 
HETATM    6  C6  UNL     1      41.727  11.898  50.650  1.00  0.00     0.167 C 
HETATM    7  N2  UNL     1      42.388  10.646  50.248  1.00  0.00    -0.307 N 
HETATM    8  C13 UNL     1      41.926   9.393  50.667  1.00  0.00     0.259 C 
HETATM    9  O2  UNL     1      40.918   9.431  51.472  1.00  0.00    -0.270 OA
ENDROOT
BRANCH   6  10
HETATM   10  C7  UNL     1      42.431  12.470  51.863  1.00  0.00     0.139 C 
BRANCH  10  11
HETATM   11  O1  UNL     1      42.742  11.505  52.814  1.00  0.00    -0.348 OA
ATOM     12  H1  UNL     1      42.812  11.860  53.693  1.00  0.00     0.219 HD
ENDBRANCH  10  11
BRANCH  10  13
HETATM   13  N1  UNL     1      43.401  13.444  51.595  1.00  0.00    -0.347 N 
ATOM     14  H1  UNL     1      44.228  13.192  51.054  1.00  0.00     0.167 HD
BRANCH  13  15
HETATM   15  C8  UNL     1      43.254  14.763  52.060  1.00  0.00     0.108 C 
BRANCH  15  16
HETATM   16  C9  UNL     1      43.719  15.683  50.949  1.00  0.00     0.020 A 
HETATM   17  C10 UNL     1      44.038  15.371  49.657  1.00  0.00     0.021 A 
HETATM   18  C11 UNL     1      44.426  16.371  48.860  1.00  0.00     0.008 A 
HETATM   19  C12 UNL     1      44.471  17.628  49.399  1.00  0.00     0.050 A 
HETATM   20  S1  UNL     1      43.968  17.368  51.010  1.00  0.00    -0.101 SA
ENDBRANCH  15  16
ENDBRANCH  13  15
ENDBRANCH  10  13
ENDBRANCH   6  10
BRANCH   8  21
HETATM   21  C14 UNL     1      42.415   8.073  50.323  1.00  0.00     0.261 C 
HETATM   22  S2  UNL     1      41.403   7.295  48.997  1.00  0.00    -0.131 SA
HETATM   23  C15 UNL     1      40.535   6.081  50.034  1.00  0.00     0.098 C 
HETATM   24  C16 UNL     1      40.840   6.646  51.404  1.00  0.00     0.161 C 
HETATM   25  N3  UNL     1      42.210   7.099  51.389  1.00  0.00    -0.244 N 
BRANCH  25  26
HETATM   26  N4  UNL     1      43.237   6.706  52.244  1.00  0.00    -0.040 N 
HETATM   27  O3  UNL     1      43.438   5.519  52.526  1.00  0.00    -0.517 OA
HETATM   28  O4  UNL     1      44.041   7.671  52.782  1.00  0.00    -0.517 OA
ENDBRANCH  25  26
ENDBRANCH   8  21
TORSDOF 7
ENDMDL
MODEL 2
REMARK VINA RESULT: -7.000039766      0.929      1.035
REMARK  7 active torsions:
REMARK  status: ('A' for Active; 'I' for Inactive)
REMARK    1  A    between atoms: C6_6  and  C7_7 
REMARK    2  A    between atoms: C7_7  and  O1_8 
REMARK    3  A    between atoms: C7_7  and  N1_10 
REMARK    4  A    between atoms: N1_10  and  C8_12 
REMARK    5  A    between atoms: C8_12  and  C9_13 
REMARK       I    between atoms: N2_18  and  C13_19 
REMARK    6  A    between atoms: C13_19  and  C14_21 
REMARK    7  A    between atoms: N3_25  and  N4_26 
ROOT
HETATM    1  C1  UNL     1      44.755  10.208  49.956  1.00  0.00     0.068 C 
HETATM    2  C2  UNL     1      43.420  10.815  49.845  1.00  0.00     0.008 C 
HETATM    3  C3  UNL     1      43.185  11.830  48.989  1.00  0.00    -0.002 C 
HETATM    4  C4  UNL     1      41.829  12.415  48.905  1.00  0.00     0.031 C 
HETATM    5  C5  UNL     1      41.172  12.507  50.262  1.00  0.00     0.038 C 
HETATM    6  C6  UNL     1      41.462  11.423  51.220  1.00  0.00     0.167 C 
HETATM    7  N2  UNL     1      42.317  10.387  50.617  1.00  0.00    -0.307 N 
HETATM    8  C13 UNL     1      42.058   9.021  50.780  1.00  0.00     0.259 C 
HETATM    9  O2  UNL     1      41.052   8.750  51.540  1.00  0.00    -0.270 OA
ENDROOT
BRANCH   6  10
HETATM   10  C7  UNL     1      42.057  11.858  52.542  1.00  0.00     0.139 C 
BRANCH  10  11
HETATM   11  O1  UNL     1      42.251  10.800  53.423  1.00  0.00    -0.348 OA
ATOM     12  H1  UNL     1      42.917  10.979  54.076  1.00  0.00     0.219 HD
ENDBRANCH  10  11
BRANCH  10  13
HETATM   13  N1  UNL     1      43.071  12.820  52.461  1.00  0.00    -0.347 N 
ATOM     14  H1  UNL     1      43.917  12.614  51.930  1.00  0.00     0.167 HD
BRANCH  13  15
HETATM   15  C8  UNL     1      42.943  14.067  53.100  1.00  0.00     0.108 C 
BRANCH  15  16
HETATM   16  C9  UNL     1      43.269  15.131  52.072  1.00  0.00     0.020 A 
HETATM   17  C10 UNL     1      43.798  14.980  50.820  1.00  0.00     0.021 A 
HETATM   18  C11 UNL     1      43.994  16.085  50.097  1.00  0.00     0.008 A 
HETATM   19  C12 UNL     1      43.650  17.282  50.664  1.00  0.00     0.050 A 
HETATM   20  S1  UNL     1      43.061  16.818  52.198  1.00  0.00    -0.101 SA
ENDBRANCH  15  16
ENDBRANCH  13  15
ENDBRANCH  10  13
ENDBRANCH   6  10
BRANCH   8  21
HETATM   21  C14 UNL     1      42.754   7.882  50.215  1.00  0.00     0.261 C 
HETATM   22  S2  UNL     1      42.034   7.375  48.599  1.00  0.00    -0.131 SA
HETATM   23  C15 UNL     1      41.201   5.864  49.167  1.00  0.00     0.098 C 
HETATM   24  C16 UNL     1      41.248   6.089  50.663  1.00  0.00     0.161 C 
HETATM   25  N3  UNL     1      42.538   6.656  50.974  1.00  0.00    -0.244 N 
BRANCH  25  26
HETATM   26  N4  UNL     1      43.486   6.155  51.863  1.00  0.00    -0.040 N 
HETATM   27  O3  UNL     1      44.520   5.598  51.477  1.00  0.00    -0.517 OA
HETATM   28  O4  UNL     1      43.254   6.290  53.204  1.00  0.00    -0.517 OA
ENDBRANCH  25  26
ENDBRANCH   8  21
TORSDOF 7
ENDMDL
MODEL 3
REMARK VINA RESULT: -6.835172622      2.797      3.882
REMARK  7 active torsions:
REMARK  status: ('A' for Active; 'I' for Inactive)
REMARK    1  A    between atoms: C6_6  and  C7_7 
REMARK    2  A    between atoms: C7_7  and  O1_8 
REMARK    3  A    between atoms: C7_7  and  N1_10 
REMARK    4  A    between atoms: N1_10  and  C8_12 
REMARK    5  A    between atoms: C8_12  and  C9_13 
REMARK       I    between atoms: N2_18  and  C13_19 
REMARK    6  A    between atoms: C13_19  and  C14_21 
REMARK    7  A    between atoms: N3_25  and  N4_26 
ROOT
HETATM    1  C1  UNL     1      44.413   9.742  48.481  1.00  0.00     0.068 C 
HETATM    2  C2  UNL     1      43.262  10.270  47.732  1.00  0.00     0.008 C 
HETATM    3  C3  UNL     1      42.809   9.650  46.624  1.00  0.00    -0.002 C 
HETATM    4  C4  UNL     1      41.649  10.210  45.897  1.00  0.00     0.031 C 
HETATM    5  C5  UNL     1      41.684  11.720  45.863  1.00  0.00     0.038 C 
HETATM    6  C6  UNL     1      42.222  12.403  47.054  1.00  0.00     0.167 C 
HETATM    7  N2  UNL     1      42.572  11.442  48.113  1.00  0.00    -0.307 N 
HETATM    8  C13 UNL     1      42.233  11.656  49.454  1.00  0.00     0.259 C 
HETATM    9  O2  UNL     1      41.645  12.780  49.689  1.00  0.00    -0.270 OA
ENDROOT
BRANCH   6  10
HETATM   10  C7  UNL     1      43.396  13.327  46.807  1.00  0.00     0.139 C 
BRANCH  10  11
HETATM   11  O1  UNL     1      43.515  13.708  45.475  1.00  0.00    -0.348 OA
ATOM     12  H1  UNL     1      44.058  14.478  45.357  1.00  0.00     0.219 HD
ENDBRANCH  10  11
BRANCH  10  13
HETATM   13  N1  UNL     1      43.601  14.316  47.777  1.00  0.00    -0.347 N 
ATOM     14  H1  UNL     1      43.294  14.149  48.736  1.00  0.00     0.167 HD
BRANCH  13  15
HETATM   15  C8  UNL     1      44.224  15.535  47.453  1.00  0.00     0.108 C 
BRANCH  15  16
HETATM   16  C9  UNL     1      44.291  16.355  48.725  1.00  0.00     0.020 A 
HETATM   17  C10 UNL     1      44.636  17.669  48.880  1.00  0.00     0.021 A 
HETATM   18  C11 UNL     1      44.617  18.169  50.118  1.00  0.00     0.008 A 
HETATM   19  C12 UNL     1      44.252  17.328  51.134  1.00  0.00     0.050 A 
HETATM   20  S1  UNL     1      43.947  15.859  50.319  1.00  0.00    -0.101 SA
ENDBRANCH  15  16
ENDBRANCH  13  15
ENDBRANCH  10  13
ENDBRANCH   6  10
BRANCH   8  21
HETATM   21  C14 UNL     1      42.446  10.797  50.602  1.00  0.00     0.261 C 
HETATM   22  S2  UNL     1      41.399   9.285  50.526  1.00  0.00    -0.131 SA
HETATM   23  C15 UNL     1      40.204   9.753  51.812  1.00  0.00     0.098 C 
HETATM   24  C16 UNL     1      40.514  11.229  51.929  1.00  0.00     0.161 C 
HETATM   25  N3  UNL     1      41.946  11.378  51.842  1.00  0.00    -0.244 N 
BRANCH  25  26
HETATM   26  N4  UNL     1      42.788  11.983  52.772  1.00  0.00    -0.040 N 
HETATM   27  O3  UNL     1      42.658  11.805  53.989  1.00  0.00    -0.517 OA
HETATM   28  O4  UNL     1      43.785  12.797  52.313  1.00  0.00    -0.517 OA
ENDBRANCH  25  26
ENDBRANCH   8  21
TORSDOF 7
ENDMDL
MODEL 4
REMARK VINA RESULT: -6.811539335      2.281      3.332
REMARK  7 active torsions:
REMARK  status: ('A' for Active; 'I' for Inactive)
REMARK    1  A    between atoms: C6_6  and  C7_7 
REMARK    2  A    between atoms: C7_7  and  O1_8 
REMARK    3  A    between atoms: C7_7  and  N1_10 
REMARK    4  A    between atoms: N1_10  and  C8_12 
REMARK    5  A    between atoms: C8_12  and  C9_13 
REMARK       I    between atoms: N2_18  and  C13_19 
REMARK    6  A    between atoms: C13_19  and  C14_21 
REMARK    7  A    between atoms: N3_25  and  N4_26 
ROOT
HETATM    1  C1  UNL     1      40.383  10.648  51.548  1.00  0.00     0.068 C 
HETATM    2  C2  UNL     1      41.682  11.253  51.876  1.00  0.00     0.008 C 
HETATM    3  C3  UNL     1      41.814  12.100  52.917  1.00  0.00    -0.002 C 
HETATM    4  C4  UNL     1      43.137  12.689  53.217  1.00  0.00     0.031 C 
HETATM    5  C5  UNL     1      43.893  13.041  51.956  1.00  0.00     0.038 C 
HETATM    6  C6  UNL     1      43.717  12.144  50.799  1.00  0.00     0.167 C 
HETATM    7  N2  UNL     1      42.856  10.997  51.133  1.00  0.00    -0.307 N 
HETATM    8  C13 UNL     1      43.176   9.690  50.749  1.00  0.00     0.259 C 
HETATM    9  O2  UNL     1      44.247   9.584  50.038  1.00  0.00    -0.270 OA
ENDROOT
BRANCH   6  10
HETATM   10  C7  UNL     1      43.211  12.799  49.532  1.00  0.00     0.139 C 
BRANCH  10  11
HETATM   11  O1  UNL     1      42.291  12.015  48.845  1.00  0.00    -0.348 OA
ATOM     12  H1  UNL     1      41.664  12.527  48.348  1.00  0.00     0.219 HD
ENDBRANCH  10  11
BRANCH  10  13
HETATM   13  N1  UNL     1      42.939  14.170  49.628  1.00  0.00    -0.347 N 
ATOM     14  H1  UNL     1      42.042  14.478  50.004  1.00  0.00     0.167 HD
BRANCH  13  15
HETATM   15  C8  UNL     1      43.882  15.129  49.216  1.00  0.00     0.108 C 
BRANCH  15  16
HETATM   16  C9  UNL     1      43.683  16.354  50.084  1.00  0.00     0.020 A 
HETATM   17  C10 UNL     1      42.927  16.488  51.216  1.00  0.00     0.021 A 
HETATM   18  C11 UNL     1      42.914  17.685  51.810  1.00  0.00     0.008 A 
HETATM   19  C12 UNL     1      43.658  18.682  51.239  1.00  0.00     0.050 A 
HETATM   20  S1  UNL     1      44.354  17.908  49.886  1.00  0.00    -0.101 SA
ENDBRANCH  15  16
ENDBRANCH  13  15
ENDBRANCH  10  13
ENDBRANCH   6  10
BRANCH   8  21
HETATM   21  C14 UNL     1      42.480   8.452  51.041  1.00  0.00     0.261 C 
HETATM   22  S2  UNL     1      43.443   7.382  52.188  1.00  0.00    -0.131 SA
HETATM   23  C15 UNL     1      43.971   6.137  50.974  1.00  0.00     0.098 C 
HETATM   24  C16 UNL     1      43.655   6.876  49.692  1.00  0.00     0.161 C 
HETATM   25  N3  UNL     1      42.402   7.564  49.887  1.00  0.00    -0.244 N 
BRANCH  25  26
HETATM   26  N4  UNL     1      41.247   7.445  49.118  1.00  0.00    -0.040 N 
HETATM   27  O3  UNL     1      41.102   8.055  48.052  1.00  0.00    -0.517 OA
HETATM   28  O4  UNL     1      40.249   6.625  49.566  1.00  0.00    -0.517 OA
ENDBRANCH  25  26
ENDBRANCH   8  21
TORSDOF 7
ENDMDL
MODEL 5
REMARK VINA RESULT: -6.798974169      0.971      1.070
REMARK  7 active torsions:
REMARK  status: ('A' for Active; 'I' for Inactive)
REMARK    1  A    between atoms: C6_6  and  C7_7 
REMARK    2  A    between atoms: C7_7  and  O1_8 
REMARK    3  A    between atoms: C7_7  and  N1_10 
REMARK    4  A    between atoms: N1_10  and  C8_12 
REMARK    5  A    between atoms: C8_12  and  C9_13 
REMARK       I    between atoms: N2_18  and  C13_19 
REMARK    6  A    between atoms: C13_19  and  C14_21 
REMARK    7  A    between atoms: N3_25  and  N4_26 
ROOT
HETATM    1  C1  UNL     1      44.716   9.688  48.902  1.00  0.00     0.068 C 
HETATM    2  C2  UNL     1      43.487  10.484  48.757  1.00  0.00     0.008 C 
HETATM    3  C3  UNL     1      43.222  11.155  47.619  1.00  0.00    -0.002 C 
HETATM    4  C4  UNL     1      41.975  11.944  47.510  1.00  0.00     0.031 C 
HETATM    5  C5  UNL     1      41.641  12.646  48.806  1.00  0.00     0.038 C 
HETATM    6  C6  UNL     1      41.972  11.936  50.055  1.00  0.00     0.167 C 
HETATM    7  N2  UNL     1      42.525  10.599  49.784  1.00  0.00    -0.307 N 
HETATM    8  C13 UNL     1      42.116   9.466  50.499  1.00  0.00     0.259 C 
HETATM    9  O2  UNL     1      41.266   9.700  51.441  1.00  0.00    -0.270 OA
ENDROOT
BRANCH   6  10
HETATM   10  C7  UNL     1      42.890  12.675  51.007  1.00  0.00     0.139 C 
BRANCH  10  11
HETATM   11  O1  UNL     1      43.455  11.846  51.969  1.00  0.00    -0.348 OA
ATOM     12  H1  UNL     1      43.560  12.274  52.811  1.00  0.00     0.219 HD
ENDBRANCH  10  11
BRANCH  10  13
HETATM   13  N1  UNL     1      43.722  13.636  50.418  1.00  0.00    -0.347 N 
ATOM     14  H1  UNL     1      43.697  13.770  49.408  1.00  0.00     0.167 HD
BRANCH  13  15
HETATM   15  C8  UNL     1      44.591  14.420  51.199  1.00  0.00     0.108 C 
BRANCH  15  16
HETATM   16  C9  UNL     1      44.064  15.840  51.164  1.00  0.00     0.020 A 
HETATM   17  C10 UNL     1      44.265  16.805  50.217  1.00  0.00     0.021 A 
HETATM   18  C11 UNL     1      43.686  17.993  50.415  1.00  0.00     0.008 A 
HETATM   19  C12 UNL     1      42.937  18.150  51.550  1.00  0.00     0.050 A 
HETATM   20  S1  UNL     1      43.069  16.624  52.305  1.00  0.00    -0.101 SA
ENDBRANCH  15  16
ENDBRANCH  13  15
ENDBRANCH  10  13
ENDBRANCH   6  10
BRANCH   8  21
HETATM   21  C14 UNL     1      42.509   8.082  50.325  1.00  0.00     0.261 C 
HETATM   22  S2  UNL     1      41.483   7.237  49.052  1.00  0.00    -0.131 SA
HETATM   23  C15 UNL     1      40.485   6.220  50.180  1.00  0.00     0.098 C 
HETATM   24  C16 UNL     1      40.789   6.913  51.490  1.00  0.00     0.161 C 
HETATM   25  N3  UNL     1      42.190   7.255  51.483  1.00  0.00    -0.244 N 
BRANCH  25  26
HETATM   26  N4  UNL     1      43.152   6.886  52.420  1.00  0.00    -0.040 N 
HETATM   27  O3  UNL     1      43.086   5.820  53.043  1.00  0.00    -0.517 OA
HETATM   28  O4  UNL     1      44.198   7.736  52.648  1.00  0.00    -0.517 OA
ENDBRANCH  25  26
ENDBRANCH   8  21
TORSDOF 7
ENDMDL
