MODEL 1
REMARK VINA RESULT: -9.556087600      0.000      0.000
REMARK  6 active torsions:
REMARK  status: ('A' for Active; 'I' for Inactive)
REMARK    1  A    between atoms: C1_2  and  C2_3 
REMARK       I    between atoms: C1_2  and  N6_18 
REMARK    2  A    between atoms: C2_3  and  N1_4 
REMARK    3  A    between atoms: C3_11  and  N5_12 
REMARK    4  A    between atoms: N6_18  and  C9_20 
REMARK    5  A    between atoms: C14_25  and  N7_26 
REMARK       I    between atoms: N7_26  and  C15_28 
REMARK    6  A    between atoms: C15_28  and  C16_30 
ROOT
HETATM    1  O1  UNL     1      45.136  13.461  50.966  1.00  0.00    -0.271 OA
HETATM    2  C1  UNL     1      43.962  13.632  50.660  1.00  0.00     0.242 C 
HETATM    3  N6  UNL     1      43.274  14.817  50.330  1.00  0.00    -0.324 N 
ATOM      4  H6  UNL     1      42.281  14.745  50.106  1.00  0.00     0.169 HD
ENDROOT
BRANCH   3   5
HETATM    5  C9  UNL     1      43.861  16.081  50.288  1.00  0.00     0.061 A 
HETATM    6  C10 UNL     1      44.128  16.814  51.444  1.00  0.00     0.032 A 
HETATM    7  C11 UNL     1      44.757  18.043  51.435  1.00  0.00     0.002 A 
HETATM    8  C12 UNL     1      45.130  18.551  50.223  1.00  0.00     0.002 A 
HETATM    9  C13 UNL     1      44.874  17.834  49.048  1.00  0.00     0.032 A 
HETATM   10  C14 UNL     1      44.250  16.614  49.036  1.00  0.00     0.062 A 
BRANCH  10  11
HETATM   11  N7  UNL     1      43.935  15.937  47.826  1.00  0.00    -0.321 N 
HETATM   12  C15 UNL     1      44.713  15.803  46.685  1.00  0.00     0.252 C 
HETATM   13  O2  UNL     1      45.847  16.260  46.556  1.00  0.00    -0.268 OA
ATOM     14  H7  UNL     1      43.018  15.492  47.793  1.00  0.00     0.169 HD
BRANCH  12  15
HETATM   15  C16 UNL     1      44.148  15.054  45.515  1.00  0.00     0.010 C 
HETATM   16  C17 UNL     1      43.498  13.934  45.718  1.00  0.00     0.012 C 
HETATM   17  C18 UNL     1      42.936  13.183  44.580  1.00  0.00     0.195 C 
HETATM   18  O3  UNL     1      42.680  13.968  43.485  1.00  0.00    -0.387 OA
HETATM   19  C19 UNL     1      43.736  14.747  43.106  1.00  0.00     0.172 C 
HETATM   20  C20 UNL     1      44.356  15.577  44.155  1.00  0.00     0.070 C 
ENDBRANCH  12  15
ENDBRANCH  10  11
ENDBRANCH   3   5
BRANCH   2  21
HETATM   21  C2  UNL     1      43.115  12.371  50.634  1.00  0.00     0.272 C 
BRANCH  21  22
HETATM   22  N1  UNL     1      42.775  12.021  51.976  1.00  0.00    -0.098 N 
HETATM   23  N2  UNL     1      42.796  12.754  53.081  1.00  0.00    -0.211 N 
HETATM   24  N3  UNL     1      42.368  12.048  54.100  1.00  0.00    -0.213 N 
ATOM     25  H2  UNL     1      43.102  13.725  53.132  1.00  0.00     0.210 HD
HETATM   26  N4  UNL     1      42.057  10.838  53.677  1.00  0.00    -0.115 N 
ATOM     27  H3  UNL     1      42.287  12.380  55.061  1.00  0.00     0.210 HD
HETATM   28  C3  UNL     1      42.305  10.802  52.351  1.00  0.00     0.714 A 
ATOM     29  H4  UNL     1      41.696  10.073  54.246  1.00  0.00     0.207 HD
BRANCH  28  30
HETATM   30  N5  UNL     1      42.164   9.714  51.458  1.00  0.00    -0.215 N 
HETATM   31  C4  UNL     1      43.358   8.966  51.015  1.00  0.00     0.141 C 
HETATM   32  C5  UNL     1      43.263   7.597  51.625  1.00  0.00     0.020 C 
HETATM   33  C6  UNL     1      41.862   7.189  51.955  1.00  0.00     0.003 C 
HETATM   34  C7  UNL     1      40.838   7.766  51.005  1.00  0.00     0.020 C 
HETATM   35  C8  UNL     1      40.906   9.264  50.897  1.00  0.00     0.141 C 
ENDBRANCH  28  30
ENDBRANCH  21  22
ENDBRANCH   2  21
TORSDOF 6
ENDMDL
MODEL 2
REMARK VINA RESULT: -9.297983340      1.572      1.976
REMARK  6 active torsions:
REMARK  status: ('A' for Active; 'I' for Inactive)
REMARK    1  A    between atoms: C1_2  and  C2_3 
REMARK       I    between atoms: C1_2  and  N6_18 
REMARK    2  A    between atoms: C2_3  and  N1_4 
REMARK    3  A    between atoms: C3_11  and  N5_12 
REMARK    4  A    between atoms: N6_18  and  C9_20 
REMARK    5  A    between atoms: C14_25  and  N7_26 
REMARK       I    between atoms: N7_26  and  C15_28 
REMARK    6  A    between atoms: C15_28  and  C16_30 
ROOT
HETATM    1  O1  UNL     1      43.557  12.593  52.790  1.00  0.00    -0.271 OA
HETATM    2  C1  UNL     1      43.207  12.612  51.616  1.00  0.00     0.242 C 
HETATM    3  N6  UNL     1      42.975  13.704  50.757  1.00  0.00    -0.324 N 
ATOM      4  H6  UNL     1      42.680  13.504  49.800  1.00  0.00     0.169 HD
ENDROOT
BRANCH   3   5
HETATM    5  C9  UNL     1      43.120  15.041  51.127  1.00  0.00     0.061 A 
HETATM    6  C10 UNL     1      42.831  15.489  52.415  1.00  0.00     0.032 A 
HETATM    7  C11 UNL     1      43.018  16.796  52.824  1.00  0.00     0.002 A 
HETATM    8  C12 UNL     1      43.511  17.679  51.905  1.00  0.00     0.002 A 
HETATM    9  C13 UNL     1      43.810  17.252  50.605  1.00  0.00     0.032 A 
HETATM   10  C14 UNL     1      43.631  15.962  50.181  1.00  0.00     0.062 A 
BRANCH  10  11
HETATM   11  N7  UNL     1      43.871  15.567  48.837  1.00  0.00    -0.321 N 
HETATM   12  C15 UNL     1      44.616  16.221  47.866  1.00  0.00     0.252 C 
HETATM   13  O2  UNL     1      45.217  17.279  48.042  1.00  0.00    -0.268 OA
ATOM     14  H7  UNL     1      43.440  14.689  48.548  1.00  0.00     0.169 HD
BRANCH  12  15
HETATM   15  C16 UNL     1      44.706  15.612  46.498  1.00  0.00     0.010 C 
HETATM   16  C17 UNL     1      43.800  14.745  46.117  1.00  0.00     0.012 C 
HETATM   17  C18 UNL     1      43.871  14.135  44.777  1.00  0.00     0.195 C 
HETATM   18  O3  UNL     1      44.551  14.902  43.866  1.00  0.00    -0.387 OA
HETATM   19  C19 UNL     1      45.779  15.316  44.300  1.00  0.00     0.172 C 
HETATM   20  C20 UNL     1      45.826  15.980  45.616  1.00  0.00     0.070 C 
ENDBRANCH  12  15
ENDBRANCH  10  11
ENDBRANCH   3   5
BRANCH   2  21
HETATM   21  C2  UNL     1      42.990  11.245  50.988  1.00  0.00     0.272 C 
BRANCH  21  22
HETATM   22  N1  UNL     1      41.925  10.590  51.679  1.00  0.00    -0.098 N 
HETATM   23  N2  UNL     1      40.917  11.099  52.375  1.00  0.00    -0.211 N 
HETATM   24  N3  UNL     1      40.141  10.138  52.815  1.00  0.00    -0.213 N 
ATOM     25  H2  UNL     1      40.768  12.094  52.544  1.00  0.00     0.210 HD
HETATM   26  N4  UNL     1      40.629   8.981  52.412  1.00  0.00    -0.115 N 
ATOM     27  H3  UNL     1      39.298  10.265  53.375  1.00  0.00     0.210 HD
HETATM   28  C3  UNL     1      41.745   9.243  51.701  1.00  0.00     0.714 A 
ATOM     29  H4  UNL     1      40.235   8.060  52.604  1.00  0.00     0.207 HD
BRANCH  28  30
HETATM   30  N5  UNL     1      42.637   8.329  51.094  1.00  0.00    -0.215 N 
HETATM   31  C4  UNL     1      43.682   7.672  51.905  1.00  0.00     0.141 C 
HETATM   32  C5  UNL     1      43.319   6.217  51.984  1.00  0.00     0.020 C 
HETATM   33  C6  UNL     1      42.462   5.755  50.848  1.00  0.00     0.003 C 
HETATM   34  C7  UNL     1      42.745   6.488  49.558  1.00  0.00     0.020 C 
HETATM   35  C8  UNL     1      42.634   7.983  49.687  1.00  0.00     0.141 C 
ENDBRANCH  28  30
ENDBRANCH  21  22
ENDBRANCH   2  21
TORSDOF 6
ENDMDL
MODEL 3
REMARK VINA RESULT: -9.187162156      0.675      1.274
REMARK  6 active torsions:
REMARK  status: ('A' for Active; 'I' for Inactive)
REMARK    1  A    between atoms: C1_2  and  C2_3 
REMARK       I    between atoms: C1_2  and  N6_18 
REMARK    2  A    between atoms: C2_3  and  N1_4 
REMARK    3  A    between atoms: C3_11  and  N5_12 
REMARK    4  A    between atoms: N6_18  and  C9_20 
REMARK    5  A    between atoms: C14_25  and  N7_26 
REMARK       I    between atoms: N7_26  and  C15_28 
REMARK    6  A    between atoms: C15_28  and  C16_30 
ROOT
HETATM    1  O1  UNL     1      45.726  13.509  50.807  1.00  0.00    -0.271 OA
HETATM    2  C1  UNL     1      44.509  13.513  50.668  1.00  0.00     0.242 C 
HETATM    3  N6  UNL     1      43.622  14.589  50.471  1.00  0.00    -0.324 N 
ATOM      4  H6  UNL     1      42.628  14.377  50.382  1.00  0.00     0.169 HD
ENDROOT
BRANCH   3   5
HETATM    5  C9  UNL     1      44.013  15.926  50.392  1.00  0.00     0.061 A 
HETATM    6  C10 UNL     1      44.277  16.690  51.528  1.00  0.00     0.032 A 
HETATM    7  C11 UNL     1      44.718  17.998  51.477  1.00  0.00     0.002 A 
HETATM    8  C12 UNL     1      44.898  18.554  50.242  1.00  0.00     0.002 A 
HETATM    9  C13 UNL     1      44.641  17.807  49.086  1.00  0.00     0.032 A 
HETATM   10  C14 UNL     1      44.202  16.509  49.116  1.00  0.00     0.062 A 
BRANCH  10  11
HETATM   11  N7  UNL     1      43.877  15.792  47.932  1.00  0.00    -0.321 N 
HETATM   12  C15 UNL     1      44.618  15.673  46.765  1.00  0.00     0.252 C 
HETATM   13  O2  UNL     1      45.722  16.183  46.584  1.00  0.00    -0.268 OA
ATOM     14  H7  UNL     1      42.983  15.302  47.942  1.00  0.00     0.169 HD
BRANCH  12  15
HETATM   15  C16 UNL     1      44.049  14.874  45.631  1.00  0.00     0.010 C 
HETATM   16  C17 UNL     1      43.440  13.740  45.882  1.00  0.00     0.012 C 
HETATM   17  C18 UNL     1      42.874  12.939  44.781  1.00  0.00     0.195 C 
HETATM   18  O3  UNL     1      42.566  13.683  43.671  1.00  0.00    -0.387 OA
HETATM   19  C19 UNL     1      43.587  14.484  43.243  1.00  0.00     0.172 C 
HETATM   20  C20 UNL     1      44.206  15.363  44.252  1.00  0.00     0.070 C 
ENDBRANCH  12  15
ENDBRANCH  10  11
ENDBRANCH   3   5
BRANCH   2  21
HETATM   21  C2  UNL     1      43.854  12.142  50.715  1.00  0.00     0.272 C 
BRANCH  21  22
HETATM   22  N1  UNL     1      43.054  12.059  51.895  1.00  0.00    -0.098 N 
HETATM   23  N2  UNL     1      42.822  12.964  52.836  1.00  0.00    -0.211 N 
HETATM   24  N3  UNL     1      41.993  12.485  53.732  1.00  0.00    -0.213 N 
ATOM     25  H2  UNL     1      43.231  13.899  52.860  1.00  0.00     0.210 HD
HETATM   26  N4  UNL     1      41.667  11.253  53.390  1.00  0.00    -0.115 N 
ATOM     27  H3  UNL     1      41.656  12.982  54.556  1.00  0.00     0.210 HD
HETATM   28  C3  UNL     1      42.321  10.969  52.244  1.00  0.00     0.714 A 
ATOM     29  H4  UNL     1      41.038  10.632  53.898  1.00  0.00     0.207 HD
BRANCH  28  30
HETATM   30  N5  UNL     1      42.321   9.762  51.508  1.00  0.00    -0.215 N 
HETATM   31  C4  UNL     1      41.355   9.571  50.407  1.00  0.00     0.141 C 
HETATM   32  C5  UNL     1      42.148   9.555  49.132  1.00  0.00     0.020 C 
HETATM   33  C6  UNL     1      43.575   9.152  49.324  1.00  0.00     0.003 C 
HETATM   34  C7  UNL     1      43.764   8.162  50.450  1.00  0.00     0.020 C 
HETATM   35  C8  UNL     1      43.203   8.640  51.761  1.00  0.00     0.141 C 
ENDBRANCH  28  30
ENDBRANCH  21  22
ENDBRANCH   2  21
TORSDOF 6
ENDMDL
MODEL 4
REMARK VINA RESULT: -9.058203071      1.530      2.210
REMARK  6 active torsions:
REMARK  status: ('A' for Active; 'I' for Inactive)
REMARK    1  A    between atoms: C1_2  and  C2_3 
REMARK       I    between atoms: C1_2  and  N6_18 
REMARK    2  A    between atoms: C2_3  and  N1_4 
REMARK    3  A    between atoms: C3_11  and  N5_12 
REMARK    4  A    between atoms: N6_18  and  C9_20 
REMARK    5  A    between atoms: C14_25  and  N7_26 
REMARK       I    between atoms: N7_26  and  C15_28 
REMARK    6  A    between atoms: C15_28  and  C16_30 
ROOT
HETATM    1  O1  UNL     1      43.541  12.210  51.888  1.00  0.00    -0.271 OA
HETATM    2  C1  UNL     1      42.721  12.498  51.024  1.00  0.00     0.242 C 
HETATM    3  N6  UNL     1      42.391  13.750  50.469  1.00  0.00    -0.324 N 
ATOM      4  H6  UNL     1      41.665  13.777  49.752  1.00  0.00     0.169 HD
ENDROOT
BRANCH   3   5
HETATM    5  C9  UNL     1      42.990  14.955  50.835  1.00  0.00     0.061 A 
HETATM    6  C10 UNL     1      42.865  15.486  52.118  1.00  0.00     0.032 A 
HETATM    7  C11 UNL     1      43.492  16.648  52.523  1.00  0.00     0.002 A 
HETATM    8  C12 UNL     1      44.269  17.297  51.606  1.00  0.00     0.002 A 
HETATM    9  C13 UNL     1      44.412  16.783  50.311  1.00  0.00     0.032 A 
HETATM   10  C14 UNL     1      43.797  15.633  49.890  1.00  0.00     0.062 A 
BRANCH  10  11
HETATM   11  N7  UNL     1      43.896  15.169  48.551  1.00  0.00    -0.321 N 
HETATM   12  C15 UNL     1      44.274  15.876  47.418  1.00  0.00     0.252 C 
HETATM   13  O2  UNL     1      44.608  17.059  47.413  1.00  0.00    -0.268 OA
ATOM     14  H7  UNL     1      43.659  14.188  48.402  1.00  0.00     0.169 HD
BRANCH  12  15
HETATM   15  C16 UNL     1      44.280  15.166  46.097  1.00  0.00     0.010 C 
HETATM   16  C17 UNL     1      43.534  14.101  45.933  1.00  0.00     0.012 C 
HETATM   17  C18 UNL     1      43.526  13.389  44.642  1.00  0.00     0.195 C 
HETATM   18  O3  UNL     1      43.875  14.185  43.581  1.00  0.00    -0.387 OA
HETATM   19  C19 UNL     1      45.036  14.879  43.770  1.00  0.00     0.172 C 
HETATM   20  C20 UNL     1      45.143  15.664  45.013  1.00  0.00     0.070 C 
ENDBRANCH  12  15
ENDBRANCH  10  11
ENDBRANCH   3   5
BRANCH   2  21
HETATM   21  C2  UNL     1      41.939  11.322  50.464  1.00  0.00     0.272 C 
BRANCH  21  22
HETATM   22  N1  UNL     1      41.618  10.435  51.537  1.00  0.00    -0.098 N 
HETATM   23  N2  UNL     1      41.056  10.684  52.712  1.00  0.00    -0.211 N 
HETATM   24  N3  UNL     1      40.908   9.570  53.387  1.00  0.00    -0.213 N 
ATOM     25  H2  UNL     1      40.780  11.609  53.043  1.00  0.00     0.210 HD
HETATM   26  N4  UNL     1      41.371   8.570  52.663  1.00  0.00    -0.115 N 
ATOM     27  H3  UNL     1      40.500   9.489  54.319  1.00  0.00     0.210 HD
HETATM   28  C3  UNL     1      41.820   9.091  51.501  1.00  0.00     0.714 A 
ATOM     29  H4  UNL     1      41.387   7.586  52.930  1.00  0.00     0.207 HD
BRANCH  28  30
HETATM   30  N5  UNL     1      42.437   8.425  50.418  1.00  0.00    -0.215 N 
HETATM   31  C4  UNL     1      41.616   7.650  49.466  1.00  0.00     0.141 C 
HETATM   32  C5  UNL     1      41.662   8.383  48.156  1.00  0.00     0.020 C 
HETATM   33  C6  UNL     1      42.875   9.243  47.999  1.00  0.00     0.003 C 
HETATM   34  C7  UNL     1      44.092   8.684  48.699  1.00  0.00     0.020 C 
HETATM   35  C8  UNL     1      43.863   8.412  50.161  1.00  0.00     0.141 C 
ENDBRANCH  28  30
ENDBRANCH  21  22
ENDBRANCH   2  21
TORSDOF 6
ENDMDL
MODEL 5
REMARK VINA RESULT: -8.849172261      1.196      1.522
REMARK  6 active torsions:
REMARK  status: ('A' for Active; 'I' for Inactive)
REMARK    1  A    between atoms: C1_2  and  C2_3 
REMARK       I    between atoms: C1_2  and  N6_18 
REMARK    2  A    between atoms: C2_3  and  N1_4 
REMARK    3  A    between atoms: C3_11  and  N5_12 
REMARK    4  A    between atoms: N6_18  and  C9_20 
REMARK    5  A    between atoms: C14_25  and  N7_26 
REMARK       I    between atoms: N7_26  and  C15_28 
REMARK    6  A    between atoms: C15_28  and  C16_30 
ROOT
HETATM    1  O1  UNL     1      42.379  14.041  50.300  1.00  0.00    -0.271 OA
HETATM    2  C1  UNL     1      43.555  13.819  50.562  1.00  0.00     0.242 C 
HETATM    3  N6  UNL     1      44.632  14.714  50.723  1.00  0.00    -0.324 N 
ATOM      4  H6  UNL     1      45.549  14.322  50.938  1.00  0.00     0.169 HD
ENDROOT
BRANCH   3   5
HETATM    5  C9  UNL     1      44.526  16.100  50.609  1.00  0.00     0.061 A 
HETATM    6  C10 UNL     1      44.737  16.952  51.692  1.00  0.00     0.032 A 
HETATM    7  C11 UNL     1      44.693  18.329  51.594  1.00  0.00     0.002 A 
HETATM    8  C12 UNL     1      44.428  18.865  50.366  1.00  0.00     0.002 A 
HETATM    9  C13 UNL     1      44.214  18.030  49.263  1.00  0.00     0.032 A 
HETATM   10  C14 UNL     1      44.252  16.663  49.339  1.00  0.00     0.062 A 
BRANCH  10  11
HETATM   11  N7  UNL     1      43.960  15.834  48.223  1.00  0.00    -0.321 N 
HETATM   12  C15 UNL     1      44.633  15.748  47.013  1.00  0.00     0.252 C 
HETATM   13  O2  UNL     1      45.636  16.397  46.724  1.00  0.00    -0.268 OA
ATOM     14  H7  UNL     1      43.150  15.222  48.324  1.00  0.00     0.169 HD
BRANCH  12  15
HETATM   15  C16 UNL     1      44.115  14.805  45.968  1.00  0.00     0.010 C 
HETATM   16  C17 UNL     1      44.339  15.058  44.701  1.00  0.00     0.012 C 
HETATM   17  C18 UNL     1      43.838  14.144  43.659  1.00  0.00     0.195 C 
HETATM   18  O3  UNL     1      43.649  12.861  44.107  1.00  0.00    -0.387 OA
HETATM   19  C19 UNL     1      42.908  12.780  45.252  1.00  0.00     0.172 C 
HETATM   20  C20 UNL     1      43.341  13.623  46.382  1.00  0.00     0.070 C 
ENDBRANCH  12  15
ENDBRANCH  10  11
ENDBRANCH   3   5
BRANCH   2  21
HETATM   21  C2  UNL     1      43.909  12.352  50.739  1.00  0.00     0.272 C 
BRANCH  21  22
HETATM   22  N1  UNL     1      42.948  11.754  51.611  1.00  0.00    -0.098 N 
HETATM   23  N2  UNL     1      42.377  12.229  52.709  1.00  0.00    -0.211 N 
HETATM   24  N3  UNL     1      41.518  11.361  53.185  1.00  0.00    -0.213 N 
ATOM     25  H2  UNL     1      42.578  13.140  53.124  1.00  0.00     0.210 HD
HETATM   26  N4  UNL     1      41.512  10.299  52.404  1.00  0.00    -0.115 N 
ATOM     27  H3  UNL     1      40.948  11.486  54.022  1.00  0.00     0.210 HD
HETATM   28  C3  UNL     1      42.400  10.526  51.413  1.00  0.00     0.714 A 
ATOM     29  H4  UNL     1      40.942   9.462  52.525  1.00  0.00     0.207 HD
BRANCH  28  30
HETATM   30  N5  UNL     1      42.773   9.668  50.352  1.00  0.00    -0.215 N 
HETATM   31  C4  UNL     1      43.774   8.607  50.581  1.00  0.00     0.141 C 
HETATM   32  C5  UNL     1      43.048   7.296  50.480  1.00  0.00     0.020 C 
HETATM   33  C6  UNL     1      41.801   7.369  49.657  1.00  0.00     0.003 C 
HETATM   34  C7  UNL     1      41.893   8.374  48.532  1.00  0.00     0.020 C 
HETATM   35  C8  UNL     1      42.260   9.756  49.000  1.00  0.00     0.141 C 
ENDBRANCH  28  30
ENDBRANCH  21  22
ENDBRANCH   2  21
TORSDOF 6
ENDMDL
