MODEL 1
REMARK VINA RESULT: -7.962547135      0.000      0.000
REMARK  9 active torsions:
REMARK  status: ('A' for Active; 'I' for Inactive)
REMARK    1  A    between atoms: C3_3  and  C4_4 
REMARK    2  A    between atoms: C4_4  and  C5_5 
REMARK    3  A    between atoms: C4_4  and  C7_9 
REMARK    4  A    between atoms: C5_5  and  O2_7 
REMARK    5  A    between atoms: C7_9  and  O3_10 
REMARK    6  A    between atoms: C7_9  and  O4_12 
REMARK    7  A    between atoms: O4_12  and  C8_13 
REMARK    8  A    between atoms: C10_15  and  C11_16 
REMARK    9  A    between atoms: C19_27  and  N1_28 
ROOT
HETATM    1  C8  UNL     1      42.529  12.453  51.787  1.00  0.00     0.174 C 
HETATM    2  C9  UNL     1      43.016  13.859  51.941  1.00  0.00     0.044 C 
HETATM    3  C10 UNL     1      42.816  14.685  50.919  1.00  0.00     0.077 C 
HETATM    4  O7  UNL     1      42.174  14.136  49.824  1.00  0.00    -0.348 OA
HETATM    5  C18 UNL     1      42.544  12.864  49.329  1.00  0.00     0.203 C 
HETATM    6  C19 UNL     1      42.919  11.909  50.434  1.00  0.00     0.135 C 
ENDROOT
BRANCH   1   7
HETATM    7  O4  UNL     1      42.952  11.724  52.859  1.00  0.00    -0.349 OA
BRANCH   7   8
HETATM    8  C7  UNL     1      41.941  10.910  53.316  1.00  0.00     0.274 C 
BRANCH   8   9
HETATM    9  C4  UNL     1      41.495   9.873  52.290  1.00  0.00     0.163 C 
BRANCH   9  10
HETATM   10  C3  UNL     1      40.017   9.815  52.370  1.00  0.00    -0.012 C 
HETATM   11  C2  UNL     1      39.199  10.840  52.429  1.00  0.00    -0.034 C 
HETATM   12  C1  UNL     1      37.714  10.595  52.505  1.00  0.00     0.036 C 
ENDBRANCH   9  10
BRANCH   9  13
HETATM   13  C5  UNL     1      42.075   8.548  52.683  1.00  0.00     0.271 C 
HETATM   14  O1  UNL     1      41.296   7.690  53.131  1.00  0.00    -0.264 OA
BRANCH  13  15
HETATM   15  O2  UNL     1      43.405   8.240  52.575  1.00  0.00    -0.326 OA
HETATM   16  C6  UNL     1      43.905   7.317  51.599  1.00  0.00     0.213 C 
ENDBRANCH  13  15
ENDBRANCH   9  13
ENDBRANCH   8   9
BRANCH   8  17
HETATM   17  O3  UNL     1      42.376  10.152  54.430  1.00  0.00    -0.370 OA
ATOM     18  H3  UNL     1      42.690  10.797  55.053  1.00  0.00     0.212 HD
ENDBRANCH   8  17
ENDBRANCH   7   8
ENDBRANCH   1   7
BRANCH   6  19
HETATM   19  N1  UNL     1      44.236  11.427  50.370  1.00  0.00    -0.412 N 
HETATM   20  C20 UNL     1      45.301  12.365  50.348  1.00  0.00     0.143 C 
HETATM   21  C21 UNL     1      44.517  10.274  49.599  1.00  0.00     0.143 C 
ENDBRANCH   6  19
BRANCH   3  22
HETATM   22  C11 UNL     1      43.254  16.097  50.961  1.00  0.00    -0.000 A 
HETATM   23  C12 UNL     1      42.541  16.949  51.792  1.00  0.00     0.017 A 
HETATM   24  C13 UNL     1      42.890  18.281  51.888  1.00  0.00     0.040 A 
HETATM   25  C14 UNL     1      43.948  18.789  51.165  1.00  0.00     0.105 A 
HETATM   26  C15 UNL     1      44.657  17.941  50.339  1.00  0.00     0.105 A 
HETATM   27  O6  UNL     1      44.479  20.088  51.102  1.00  0.00    -0.323 OA
HETATM   28  C16 UNL     1      44.303  16.588  50.242  1.00  0.00     0.054 A 
HETATM   29  O5  UNL     1      45.648  18.713  49.747  1.00  0.00    -0.323 OA
HETATM   30  C17 UNL     1      45.728  19.969  50.426  1.00  0.00     0.352 C 
ENDBRANCH   3  22
TORSDOF 9
ENDMDL
MODEL 2
REMARK VINA RESULT: -7.915932913      2.703      3.730
REMARK  9 active torsions:
REMARK  status: ('A' for Active; 'I' for Inactive)
REMARK    1  A    between atoms: C3_3  and  C4_4 
REMARK    2  A    between atoms: C4_4  and  C5_5 
REMARK    3  A    between atoms: C4_4  and  C7_9 
REMARK    4  A    between atoms: C5_5  and  O2_7 
REMARK    5  A    between atoms: C7_9  and  O3_10 
REMARK    6  A    between atoms: C7_9  and  O4_12 
REMARK    7  A    between atoms: O4_12  and  C8_13 
REMARK    8  A    between atoms: C10_15  and  C11_16 
REMARK    9  A    between atoms: C19_27  and  N1_28 
ROOT
HETATM    1  C8  UNL     1      42.569  10.251  47.979  1.00  0.00     0.174 C 
HETATM    2  C9  UNL     1      43.239  11.554  48.281  1.00  0.00     0.044 C 
HETATM    3  C10 UNL     1      42.830  12.618  47.597  1.00  0.00     0.077 C 
HETATM    4  O7  UNL     1      41.823  12.387  46.678  1.00  0.00    -0.348 OA
HETATM    5  C18 UNL     1      41.872  11.268  45.814  1.00  0.00     0.203 C 
HETATM    6  C19 UNL     1      42.457  10.052  46.487  1.00  0.00     0.135 C 
ENDROOT
BRANCH   1   7
HETATM    7  O4  UNL     1      43.215   9.261  48.659  1.00  0.00    -0.349 OA
BRANCH   7   8
HETATM    8  C7  UNL     1      43.123   9.471  50.016  1.00  0.00     0.274 C 
BRANCH   8   9
HETATM    9  C4  UNL     1      42.383   8.357  50.748  1.00  0.00     0.163 C 
BRANCH   9  10
HETATM   10  C3  UNL     1      41.181   8.980  51.350  1.00  0.00    -0.012 C 
HETATM   11  C2  UNL     1      40.871  10.255  51.332  1.00  0.00    -0.034 C 
HETATM   12  C1  UNL     1      39.600  10.716  51.997  1.00  0.00     0.036 C 
ENDBRANCH   9  10
BRANCH   9  13
HETATM   13  C5  UNL     1      43.277   7.835  51.832  1.00  0.00     0.271 C 
HETATM   14  O1  UNL     1      43.219   8.389  52.943  1.00  0.00    -0.264 OA
BRANCH  13  15
HETATM   15  O2  UNL     1      44.145   6.789  51.660  1.00  0.00    -0.326 OA
HETATM   16  C6  UNL     1      43.713   5.423  51.651  1.00  0.00     0.213 C 
ENDBRANCH  13  15
ENDBRANCH   9  13
ENDBRANCH   8   9
BRANCH   8  17
HETATM   17  O3  UNL     1      44.411   9.495  50.605  1.00  0.00    -0.370 OA
ATOM     18  H3  UNL     1      44.346  10.138  51.302  1.00  0.00     0.212 HD
ENDBRANCH   8  17
ENDBRANCH   7   8
ENDBRANCH   1   7
BRANCH   6  19
HETATM   19  N1  UNL     1      43.626   9.555  45.888  1.00  0.00    -0.412 N 
HETATM   20  C20 UNL     1      44.226  10.306  44.846  1.00  0.00     0.143 C 
HETATM   21  C21 UNL     1      43.769   8.160  45.699  1.00  0.00     0.143 C 
ENDBRANCH   6  19
BRANCH   3  22
HETATM   22  C11 UNL     1      43.420  13.957  47.812  1.00  0.00    -0.000 A 
HETATM   23  C12 UNL     1      43.873  14.630  46.687  1.00  0.00     0.017 A 
HETATM   24  C13 UNL     1      44.434  15.886  46.804  1.00  0.00     0.040 A 
HETATM   25  C14 UNL     1      44.555  16.493  48.036  1.00  0.00     0.105 A 
HETATM   26  C15 UNL     1      44.104  15.823  49.155  1.00  0.00     0.105 A 
HETATM   27  O6  UNL     1      45.083  17.744  48.396  1.00  0.00    -0.323 OA
HETATM   28  C16 UNL     1      43.534  14.548  49.035  1.00  0.00     0.054 A 
HETATM   29  O5  UNL     1      44.351  16.661  50.236  1.00  0.00    -0.323 OA
HETATM   30  C17 UNL     1      44.689  17.962  49.749  1.00  0.00     0.352 C 
ENDBRANCH   3  22
TORSDOF 9
ENDMDL
MODEL 3
REMARK VINA RESULT: -7.886201971      3.336      5.709
REMARK  9 active torsions:
REMARK  status: ('A' for Active; 'I' for Inactive)
REMARK    1  A    between atoms: C3_3  and  C4_4 
REMARK    2  A    between atoms: C4_4  and  C5_5 
REMARK    3  A    between atoms: C4_4  and  C7_9 
REMARK    4  A    between atoms: C5_5  and  O2_7 
REMARK    5  A    between atoms: C7_9  and  O3_10 
REMARK    6  A    between atoms: C7_9  and  O4_12 
REMARK    7  A    between atoms: O4_12  and  C8_13 
REMARK    8  A    between atoms: C10_15  and  C11_16 
REMARK    9  A    between atoms: C19_27  and  N1_28 
ROOT
HETATM    1  C8  UNL     1      43.116  11.954  48.209  1.00  0.00     0.174 C 
HETATM    2  C9  UNL     1      42.957  13.387  48.608  1.00  0.00     0.044 C 
HETATM    3  C10 UNL     1      43.766  13.845  49.559  1.00  0.00     0.077 C 
HETATM    4  O7  UNL     1      44.667  12.928  50.069  1.00  0.00    -0.348 OA
HETATM    5  C18 UNL     1      44.257  11.615  50.399  1.00  0.00     0.203 C 
HETATM    6  C19 UNL     1      43.229  11.078  49.434  1.00  0.00     0.135 C 
ENDROOT
BRANCH   1   7
HETATM    7  O4  UNL     1      42.115  11.629  47.343  1.00  0.00    -0.349 OA
BRANCH   7   8
HETATM    8  C7  UNL     1      42.074  12.524  46.298  1.00  0.00     0.274 C 
BRANCH   8   9
HETATM    9  C4  UNL     1      43.166  12.287  45.261  1.00  0.00     0.163 C 
BRANCH   9  10
HETATM   10  C3  UNL     1      43.626  13.626  44.826  1.00  0.00    -0.012 C 
HETATM   11  C2  UNL     1      43.960  14.628  45.606  1.00  0.00    -0.034 C 
HETATM   12  C1  UNL     1      44.409  15.927  44.989  1.00  0.00     0.036 C 
ENDBRANCH   9  10
BRANCH   9  13
HETATM   13  C5  UNL     1      42.559  11.559  44.100  1.00  0.00     0.271 C 
HETATM   14  O1  UNL     1      42.375  12.201  43.052  1.00  0.00    -0.264 OA
BRANCH  13  15
HETATM   15  O2  UNL     1      42.202  10.237  44.136  1.00  0.00    -0.326 OA
HETATM   16  C6  UNL     1      43.004   9.241  44.781  1.00  0.00     0.213 C 
ENDBRANCH  13  15
ENDBRANCH   9  13
ENDBRANCH   8   9
BRANCH   8  17
HETATM   17  O3  UNL     1      40.861  12.396  45.579  1.00  0.00    -0.370 OA
ATOM     18  H3  UNL     1      40.218  12.857  46.106  1.00  0.00     0.212 HD
ENDBRANCH   8  17
ENDBRANCH   7   8
ENDBRANCH   1   7
BRANCH   6  19
HETATM   19  N1  UNL     1      41.995  10.748  50.015  1.00  0.00    -0.412 N 
HETATM   20  C20 UNL     1      41.585  11.447  51.180  1.00  0.00     0.143 C 
HETATM   21  C21 UNL     1      41.568   9.399  50.017  1.00  0.00     0.143 C 
ENDBRANCH   6  19
BRANCH   3  22
HETATM   22  C11 UNL     1      43.700  15.244  50.031  1.00  0.00    -0.000 A 
HETATM   23  C12 UNL     1      42.865  15.502  51.109  1.00  0.00     0.017 A 
HETATM   24  C13 UNL     1      42.750  16.783  51.611  1.00  0.00     0.040 A 
HETATM   25  C14 UNL     1      43.458  17.826  51.054  1.00  0.00     0.105 A 
HETATM   26  C15 UNL     1      44.288  17.569  49.982  1.00  0.00     0.105 A 
HETATM   27  O6  UNL     1      43.501  19.190  51.388  1.00  0.00    -0.323 OA
HETATM   28  C16 UNL     1      44.405  16.269  49.473  1.00  0.00     0.054 A 
HETATM   29  O5  UNL     1      44.863  18.786  49.635  1.00  0.00    -0.323 OA
HETATM   30  C17 UNL     1      44.607  19.735  50.673  1.00  0.00     0.352 C 
ENDBRANCH   3  22
TORSDOF 9
ENDMDL
MODEL 4
REMARK VINA RESULT: -7.831320969      2.515      3.659
REMARK  9 active torsions:
REMARK  status: ('A' for Active; 'I' for Inactive)
REMARK    1  A    between atoms: C3_3  and  C4_4 
REMARK    2  A    between atoms: C4_4  and  C5_5 
REMARK    3  A    between atoms: C4_4  and  C7_9 
REMARK    4  A    between atoms: C5_5  and  O2_7 
REMARK    5  A    between atoms: C7_9  and  O3_10 
REMARK    6  A    between atoms: C7_9  and  O4_12 
REMARK    7  A    between atoms: O4_12  and  C8_13 
REMARK    8  A    between atoms: C10_15  and  C11_16 
REMARK    9  A    between atoms: C19_27  and  N1_28 
ROOT
HETATM    1  C8  UNL     1      42.450  10.357  48.421  1.00  0.00     0.174 C 
HETATM    2  C9  UNL     1      43.143  11.659  48.668  1.00  0.00     0.044 C 
HETATM    3  C10 UNL     1      42.819  12.677  47.877  1.00  0.00     0.077 C 
HETATM    4  O7  UNL     1      41.869  12.404  46.910  1.00  0.00    -0.348 OA
HETATM    5  C18 UNL     1      41.939  11.220  46.140  1.00  0.00     0.203 C 
HETATM    6  C19 UNL     1      42.434  10.044  46.944  1.00  0.00     0.135 C 
ENDROOT
BRANCH   1   7
HETATM    7  O4  UNL     1      43.013   9.405  49.219  1.00  0.00    -0.349 OA
BRANCH   7   8
HETATM    8  C7  UNL     1      43.022   9.821  50.530  1.00  0.00     0.274 C 
BRANCH   8   9
HETATM    9  C4  UNL     1      41.624   9.965  51.124  1.00  0.00     0.163 C 
BRANCH   9  10
HETATM   10  C3  UNL     1      41.731  10.974  52.203  1.00  0.00    -0.012 C 
HETATM   11  C2  UNL     1      42.530  12.016  52.222  1.00  0.00    -0.034 C 
HETATM   12  C1  UNL     1      42.506  12.944  53.408  1.00  0.00     0.036 C 
ENDBRANCH   9  10
BRANCH   9  13
HETATM   13  C5  UNL     1      41.224   8.643  51.706  1.00  0.00     0.271 C 
HETATM   14  O1  UNL     1      41.472   8.445  52.907  1.00  0.00    -0.264 OA
BRANCH  13  15
HETATM   15  O2  UNL     1      40.606   7.654  50.987  1.00  0.00    -0.326 OA
HETATM   16  C6  UNL     1      41.212   6.377  50.757  1.00  0.00     0.213 C 
ENDBRANCH  13  15
ENDBRANCH   9  13
ENDBRANCH   8   9
BRANCH   8  17
HETATM   17  O3  UNL     1      43.666   8.865  51.353  1.00  0.00    -0.370 OA
ATOM     18  H3  UNL     1      43.375   8.024  51.019  1.00  0.00     0.212 HD
ENDBRANCH   8  17
ENDBRANCH   7   8
ENDBRANCH   1   7
BRANCH   6  19
HETATM   19  N1  UNL     1      43.623   9.467  46.470  1.00  0.00    -0.412 N 
HETATM   20  C20 UNL     1      44.246  10.038  45.330  1.00  0.00     0.143 C 
HETATM   21  C21 UNL     1      43.782   8.062  46.525  1.00  0.00     0.143 C 
ENDBRANCH   6  19
BRANCH   3  22
HETATM   22  C11 UNL     1      43.439  14.011  48.031  1.00  0.00    -0.000 A 
HETATM   23  C12 UNL     1      43.901  14.624  46.875  1.00  0.00     0.017 A 
HETATM   24  C13 UNL     1      44.490  15.871  46.934  1.00  0.00     0.040 A 
HETATM   25  C14 UNL     1      44.630  16.529  48.137  1.00  0.00     0.105 A 
HETATM   26  C15 UNL     1      44.170  15.920  49.286  1.00  0.00     0.105 A 
HETATM   27  O6  UNL     1      45.187  17.783  48.439  1.00  0.00    -0.323 OA
HETATM   28  C16 UNL     1      43.572  14.654  49.226  1.00  0.00     0.054 A 
HETATM   29  O5  UNL     1      44.440  16.799  50.327  1.00  0.00    -0.323 OA
HETATM   30  C17 UNL     1      44.805  18.070  49.782  1.00  0.00     0.352 C 
ENDBRANCH   3  22
TORSDOF 9
ENDMDL
MODEL 5
REMARK VINA RESULT: -7.742552246      3.131      4.402
REMARK  9 active torsions:
REMARK  status: ('A' for Active; 'I' for Inactive)
REMARK    1  A    between atoms: C3_3  and  C4_4 
REMARK    2  A    between atoms: C4_4  and  C5_5 
REMARK    3  A    between atoms: C4_4  and  C7_9 
REMARK    4  A    between atoms: C5_5  and  O2_7 
REMARK    5  A    between atoms: C7_9  and  O3_10 
REMARK    6  A    between atoms: C7_9  and  O4_12 
REMARK    7  A    between atoms: O4_12  and  C8_13 
REMARK    8  A    between atoms: C10_15  and  C11_16 
REMARK    9  A    between atoms: C19_27  and  N1_28 
ROOT
HETATM    1  C8  UNL     1      42.283  11.881  50.528  1.00  0.00     0.174 C 
HETATM    2  C9  UNL     1      42.349  12.767  49.325  1.00  0.00     0.044 C 
HETATM    3  C10 UNL     1      43.557  13.123  48.900  1.00  0.00     0.077 C 
HETATM    4  O7  UNL     1      44.619  12.624  49.632  1.00  0.00    -0.348 OA
HETATM    5  C18 UNL     1      44.597  12.645  51.047  1.00  0.00     0.203 C 
HETATM    6  C19 UNL     1      43.219  12.382  51.601  1.00  0.00     0.135 C 
ENDROOT
BRANCH   1   7
HETATM    7  O4  UNL     1      40.977  11.748  50.901  1.00  0.00    -0.349 OA
BRANCH   7   8
HETATM    8  C7  UNL     1      40.696  10.436  51.203  1.00  0.00     0.274 C 
BRANCH   8   9
HETATM    9  C4  UNL     1      41.856   9.490  50.913  1.00  0.00     0.163 C 
BRANCH   9  10
HETATM   10  C3  UNL     1      41.401   8.589  49.829  1.00  0.00    -0.012 C 
HETATM   11  C2  UNL     1      41.776   8.630  48.572  1.00  0.00    -0.034 C 
HETATM   12  C1  UNL     1      41.209   7.630  47.598  1.00  0.00     0.036 C 
ENDBRANCH   9  10
BRANCH   9  13
HETATM   13  C5  UNL     1      42.130   8.691  52.152  1.00  0.00     0.271 C 
HETATM   14  O1  UNL     1      42.853   9.207  53.020  1.00  0.00    -0.264 OA
BRANCH  13  15
HETATM   15  O2  UNL     1      41.627   7.436  52.371  1.00  0.00    -0.326 OA
HETATM   16  C6  UNL     1      42.441   6.259  52.304  1.00  0.00     0.213 C 
ENDBRANCH  13  15
ENDBRANCH   9  13
ENDBRANCH   8   9
BRANCH   8  17
HETATM   17  O3  UNL     1      40.446  10.285  52.589  1.00  0.00    -0.370 OA
ATOM     18  H3  UNL     1      39.705   9.692  52.637  1.00  0.00     0.212 HD
ENDBRANCH   8  17
ENDBRANCH   7   8
ENDBRANCH   1   7
BRANCH   6  19
HETATM   19  N1  UNL     1      42.692  13.426  52.377  1.00  0.00    -0.412 N 
HETATM   20  C20 UNL     1      43.146  14.748  52.137  1.00  0.00     0.143 C 
HETATM   21  C21 UNL     1      42.402  13.195  53.744  1.00  0.00     0.143 C 
ENDBRANCH   6  19
BRANCH   3  22
HETATM   22  C11 UNL     1      43.743  13.995  47.720  1.00  0.00    -0.000 A 
HETATM   23  C12 UNL     1      44.260  15.261  47.952  1.00  0.00     0.017 A 
HETATM   24  C13 UNL     1      44.465  16.134  46.903  1.00  0.00     0.040 A 
HETATM   25  C14 UNL     1      44.162  15.767  45.610  1.00  0.00     0.105 A 
HETATM   26  C15 UNL     1      43.648  14.507  45.379  1.00  0.00     0.105 A 
HETATM   27  O6  UNL     1      44.283  16.473  44.401  1.00  0.00    -0.323 OA
HETATM   28  C16 UNL     1      43.439  13.621  46.445  1.00  0.00     0.054 A 
HETATM   29  O5  UNL     1      43.441  14.416  44.008  1.00  0.00    -0.323 OA
HETATM   30  C17 UNL     1      44.096  15.513  43.364  1.00  0.00     0.352 C 
ENDBRANCH   3  22
TORSDOF 9
ENDMDL
