MODEL 1
REMARK VINA RESULT: -9.147823665      0.000      0.000
REMARK  15 active torsions:
REMARK  status: ('A' for Active; 'I' for Inactive)
REMARK    1  A    between atoms: C4_4  and  C5_5 
REMARK    2  A    between atoms: C5_5  and  N1_6 
REMARK    3  A    between atoms: N1_6  and  C6_8 
REMARK    4  A    between atoms: C6_8  and  O1_9 
REMARK    5  A    between atoms: C6_8  and  C7_11 
REMARK    6  A    between atoms: C7_11  and  N2_12 
REMARK    7  A    between atoms: C7_11  and  C18_25 
REMARK       I    between atoms: N2_12  and  C8_14 
REMARK    8  A    between atoms: C8_14  and  C9_16 
REMARK    9  A    between atoms: C9_16  and  C10_17 
REMARK   10  A    between atoms: C10_17  and  C11_18 
REMARK   11  A    between atoms: C11_18  and  C12_19 
REMARK   12  A    between atoms: C18_25  and  C19_26 
REMARK   13  A    between atoms: C19_26  and  C20_27 
REMARK   14  A    between atoms: C20_27  and  C21_28 
REMARK   15  A    between atoms: N4_31  and  N5_33 
REMARK       I    between atoms: N5_33  and  C22_35 
ROOT
HETATM    1  C7  UNL     1      46.198  49.884  42.295  1.00  0.00     0.110 C 
ENDROOT
BRANCH   1   2
HETATM    2  C6  UNL     1      46.181  50.678  41.115  1.00  0.00     0.165 C 
BRANCH   2   3
HETATM    3  N1  UNL     1      45.170  50.947  40.171  1.00  0.00    -0.365 N 
ATOM      4  H1  UNL     1      44.212  51.118  40.473  1.00  0.00     0.162 HD
BRANCH   3   5
HETATM    5  C5  UNL     1      45.523  50.977  38.728  1.00  0.00     0.162 C 
BRANCH   5   6
HETATM    6  C4  UNL     1      44.402  50.549  37.875  1.00  0.00    -0.017 A 
HETATM    7  C3  UNL     1      43.288  51.256  37.549  1.00  0.00     0.035 A 
HETATM    8  C2  UNL     1      42.489  50.476  36.763  1.00  0.00     0.006 A 
HETATM    9  C1  UNL     1      41.160  50.889  36.188  1.00  0.00     0.068 C 
HETATM   10  N7  UNL     1      43.124  49.310  36.621  1.00  0.00    -0.363 N 
HETATM   11  C23 UNL     1      44.290  49.292  37.272  1.00  0.00     0.013 A 
ATOM     12  H7  UNL     1      42.761  48.525  36.080  1.00  0.00     0.165 HD
HETATM   13  C24 UNL     1      45.305  48.214  37.380  1.00  0.00     0.068 C 
ENDBRANCH   5   6
ENDBRANCH   3   5
ENDBRANCH   2   3
BRANCH   2  14
HETATM   14  O1  UNL     1      47.313  51.281  40.842  1.00  0.00    -0.345 OA
ATOM     15  H1  UNL     1      47.513  51.989  41.443  1.00  0.00     0.219 HD
ENDBRANCH   2  14
ENDBRANCH   1   2
BRANCH   1  16
HETATM   16  N2  UNL     1      47.051  48.910  42.384  1.00  0.00    -0.322 N 
HETATM   17  C8  UNL     1      47.686  48.139  41.424  1.00  0.00     0.222 C 
HETATM   18  O2  UNL     1      48.720  48.628  40.884  1.00  0.00    -0.273 OA
ATOM     19  H2  UNL     1      47.300  48.664  43.342  1.00  0.00     0.169 HD
BRANCH  17  20
HETATM   20  C9  UNL     1      47.116  46.812  41.100  1.00  0.00     0.103 C 
BRANCH  20  21
HETATM   21  C10 UNL     1      45.768  46.818  40.459  1.00  0.00     0.010 C 
BRANCH  21  22
HETATM   22  C11 UNL     1      44.694  46.475  41.427  1.00  0.00     0.005 C 
BRANCH  22  23
HETATM   23  C12 UNL     1      43.303  46.769  40.876  1.00  0.00    -0.014 C 
HETATM   24  C13 UNL     1      43.101  48.236  40.864  1.00  0.00     0.004 C 
HETATM   25  C14 UNL     1      41.950  48.718  40.064  1.00  0.00     0.000 C 
HETATM   26  C15 UNL     1      41.146  47.569  39.536  1.00  0.00     0.000 C 
HETATM   27  C16 UNL     1      42.093  46.727  38.681  1.00  0.00     0.000 C 
HETATM   28  C17 UNL     1      43.178  46.110  39.531  1.00  0.00     0.004 C 
ENDBRANCH  22  23
ENDBRANCH  21  22
ENDBRANCH  20  21
ENDBRANCH  17  20
ENDBRANCH   1  16
BRANCH   1  29
HETATM   29  C18 UNL     1      45.335  50.044  43.465  1.00  0.00     0.057 C 
HETATM   30  N4  UNL     1      45.267  51.184  44.097  1.00  0.00    -0.299 N 
ATOM     31  H4  UNL     1      44.639  51.209  44.900  1.00  0.00     0.186 HD
BRANCH  29  32
HETATM   32  C19 UNL     1      44.514  48.968  44.054  1.00  0.00     0.070 C 
BRANCH  32  33
HETATM   33  C20 UNL     1      45.143  48.390  45.322  1.00  0.00     0.105 C 
BRANCH  33  34
HETATM   34  C21 UNL     1      45.790  47.085  45.090  1.00  0.00     0.231 C 
HETATM   35  N3  UNL     1      45.087  45.854  45.261  1.00  0.00    -0.062 NA
HETATM   36  O3  UNL     1      46.998  47.040  44.734  1.00  0.00    -0.277 OA
ENDBRANCH  33  34
ENDBRANCH  32  33
ENDBRANCH  29  32
BRANCH  30  37
HETATM   37  N5  UNL     1      45.928  52.346  43.822  1.00  0.00    -0.254 N 
HETATM   38  C22 UNL     1      45.300  53.452  43.224  1.00  0.00     0.347 C 
HETATM   39  N6  UNL     1      46.084  54.638  42.973  1.00  0.00    -0.038 NA
HETATM   40  O4  UNL     1      44.094  53.433  42.907  1.00  0.00    -0.249 OA
ATOM     41  H5  UNL     1      46.917  52.414  44.061  1.00  0.00     0.191 HD
ENDBRANCH  30  37
ENDBRANCH   1  29
TORSDOF 15
ENDMDL
MODEL 2
REMARK VINA RESULT: -9.001528606      1.882      5.016
REMARK  15 active torsions:
REMARK  status: ('A' for Active; 'I' for Inactive)
REMARK    1  A    between atoms: C4_4  and  C5_5 
REMARK    2  A    between atoms: C5_5  and  N1_6 
REMARK    3  A    between atoms: N1_6  and  C6_8 
REMARK    4  A    between atoms: C6_8  and  O1_9 
REMARK    5  A    between atoms: C6_8  and  C7_11 
REMARK    6  A    between atoms: C7_11  and  N2_12 
REMARK    7  A    between atoms: C7_11  and  C18_25 
REMARK       I    between atoms: N2_12  and  C8_14 
REMARK    8  A    between atoms: C8_14  and  C9_16 
REMARK    9  A    between atoms: C9_16  and  C10_17 
REMARK   10  A    between atoms: C10_17  and  C11_18 
REMARK   11  A    between atoms: C11_18  and  C12_19 
REMARK   12  A    between atoms: C18_25  and  C19_26 
REMARK   13  A    between atoms: C19_26  and  C20_27 
REMARK   14  A    between atoms: C20_27  and  C21_28 
REMARK   15  A    between atoms: N4_31  and  N5_33 
REMARK       I    between atoms: N5_33  and  C22_35 
ROOT
HETATM    1  C7  UNL     1      45.558  49.414  42.995  1.00  0.00     0.110 C 
ENDROOT
BRANCH   1   2
HETATM    2  C6  UNL     1      44.739  49.529  41.837  1.00  0.00     0.165 C 
BRANCH   2   3
HETATM    3  N1  UNL     1      44.547  50.575  40.914  1.00  0.00    -0.365 N 
ATOM      4  H1  UNL     1      43.609  50.912  40.701  1.00  0.00     0.162 HD
BRANCH   3   5
HETATM    5  C5  UNL     1      45.734  51.179  40.254  1.00  0.00     0.162 C 
BRANCH   5   6
HETATM    6  C4  UNL     1      46.199  52.390  40.951  1.00  0.00    -0.017 A 
HETATM    7  C3  UNL     1      47.281  52.518  41.763  1.00  0.00     0.035 A 
HETATM    8  C2  UNL     1      47.331  53.802  42.227  1.00  0.00     0.006 A 
HETATM    9  C1  UNL     1      48.381  54.354  43.155  1.00  0.00     0.068 C 
HETATM   10  N7  UNL     1      46.282  54.434  41.696  1.00  0.00    -0.363 N 
HETATM   11  C23 UNL     1      45.557  53.632  40.912  1.00  0.00     0.013 A 
ATOM     12  H7  UNL     1      46.061  55.416  41.868  1.00  0.00     0.165 HD
HETATM   13  C24 UNL     1      44.326  53.919  40.133  1.00  0.00     0.068 C 
ENDBRANCH   5   6
ENDBRANCH   3   5
ENDBRANCH   2   3
BRANCH   2  14
HETATM   14  O1  UNL     1      44.021  48.465  41.565  1.00  0.00    -0.345 OA
ATOM     15  H1  UNL     1      44.424  47.658  41.863  1.00  0.00     0.219 HD
ENDBRANCH   2  14
ENDBRANCH   1   2
BRANCH   1  16
HETATM   16  N2  UNL     1      46.663  48.738  42.918  1.00  0.00    -0.322 N 
HETATM   17  C8  UNL     1      47.442  48.349  41.840  1.00  0.00     0.222 C 
HETATM   18  O2  UNL     1      48.255  49.201  41.379  1.00  0.00    -0.273 OA
ATOM     19  H2  UNL     1      47.027  48.436  43.822  1.00  0.00     0.169 HD
BRANCH  17  20
HETATM   20  C9  UNL     1      47.271  46.977  41.310  1.00  0.00     0.103 C 
BRANCH  20  21
HETATM   21  C10 UNL     1      46.993  46.871  39.848  1.00  0.00     0.010 C 
BRANCH  21  22
HETATM   22  C11 UNL     1      45.757  46.094  39.574  1.00  0.00     0.005 C 
BRANCH  22  23
HETATM   23  C12 UNL     1      44.899  46.735  38.489  1.00  0.00    -0.014 C 
HETATM   24  C13 UNL     1      43.481  46.674  38.911  1.00  0.00     0.004 C 
HETATM   25  C14 UNL     1      42.546  47.533  38.145  1.00  0.00     0.000 C 
HETATM   26  C15 UNL     1      43.244  48.191  36.995  1.00  0.00     0.000 C 
HETATM   27  C16 UNL     1      44.385  49.017  37.590  1.00  0.00     0.000 C 
HETATM   28  C17 UNL     1      45.416  48.123  38.235  1.00  0.00     0.004 C 
ENDBRANCH  22  23
ENDBRANCH  21  22
ENDBRANCH  20  21
ENDBRANCH  17  20
ENDBRANCH   1  16
BRANCH   1  29
HETATM   29  C18 UNL     1      45.290  49.992  44.311  1.00  0.00     0.057 C 
HETATM   30  N4  UNL     1      44.835  49.256  45.287  1.00  0.00    -0.299 N 
ATOM     31  H4  UNL     1      44.678  49.737  46.172  1.00  0.00     0.186 HD
BRANCH  29  32
HETATM   32  C19 UNL     1      45.461  51.419  44.650  1.00  0.00     0.070 C 
BRANCH  32  33
HETATM   33  C20 UNL     1      44.314  52.280  44.120  1.00  0.00     0.105 C 
BRANCH  33  34
HETATM   34  C21 UNL     1      44.293  53.628  44.719  1.00  0.00     0.231 C 
HETATM   35  N3  UNL     1      44.099  54.801  43.929  1.00  0.00    -0.062 NA
HETATM   36  O3  UNL     1      44.453  53.763  45.962  1.00  0.00    -0.277 OA
ENDBRANCH  33  34
ENDBRANCH  32  33
ENDBRANCH  29  32
BRANCH  30  37
HETATM   37  N5  UNL     1      44.542  47.923  45.276  1.00  0.00    -0.254 N 
HETATM   38  C22 UNL     1      45.518  46.929  45.465  1.00  0.00     0.347 C 
HETATM   39  N6  UNL     1      45.110  45.545  45.437  1.00  0.00    -0.038 NA
HETATM   40  O4  UNL     1      46.718  47.214  45.653  1.00  0.00    -0.249 OA
ATOM     41  H5  UNL     1      43.575  47.636  45.125  1.00  0.00     0.191 HD
ENDBRANCH  30  37
ENDBRANCH   1  29
TORSDOF 15
ENDMDL
MODEL 3
REMARK VINA RESULT: -8.975092321      2.216      5.428
REMARK  15 active torsions:
REMARK  status: ('A' for Active; 'I' for Inactive)
REMARK    1  A    between atoms: C4_4  and  C5_5 
REMARK    2  A    between atoms: C5_5  and  N1_6 
REMARK    3  A    between atoms: N1_6  and  C6_8 
REMARK    4  A    between atoms: C6_8  and  O1_9 
REMARK    5  A    between atoms: C6_8  and  C7_11 
REMARK    6  A    between atoms: C7_11  and  N2_12 
REMARK    7  A    between atoms: C7_11  and  C18_25 
REMARK       I    between atoms: N2_12  and  C8_14 
REMARK    8  A    between atoms: C8_14  and  C9_16 
REMARK    9  A    between atoms: C9_16  and  C10_17 
REMARK   10  A    between atoms: C10_17  and  C11_18 
REMARK   11  A    between atoms: C11_18  and  C12_19 
REMARK   12  A    between atoms: C18_25  and  C19_26 
REMARK   13  A    between atoms: C19_26  and  C20_27 
REMARK   14  A    between atoms: C20_27  and  C21_28 
REMARK   15  A    between atoms: N4_31  and  N5_33 
REMARK       I    between atoms: N5_33  and  C22_35 
ROOT
HETATM    1  C7  UNL     1      45.373  48.276  42.014  1.00  0.00     0.110 C 
ENDROOT
BRANCH   1   2
HETATM    2  C6  UNL     1      46.275  49.340  41.737  1.00  0.00     0.165 C 
BRANCH   2   3
HETATM    3  N1  UNL     1      46.194  50.446  40.868  1.00  0.00    -0.365 N 
ATOM      4  H1  UNL     1      46.718  50.456  39.993  1.00  0.00     0.162 HD
BRANCH   3   5
HETATM    5  C5  UNL     1      45.334  51.598  41.246  1.00  0.00     0.162 C 
BRANCH   5   6
HETATM    6  C4  UNL     1      46.047  52.566  42.096  1.00  0.00    -0.017 A 
HETATM    7  C3  UNL     1      46.916  53.535  41.704  1.00  0.00     0.035 A 
HETATM    8  C2  UNL     1      47.373  54.188  42.813  1.00  0.00     0.006 A 
HETATM    9  C1  UNL     1      48.353  55.331  42.811  1.00  0.00     0.068 C 
HETATM   10  N7  UNL     1      46.779  53.610  43.860  1.00  0.00    -0.363 N 
HETATM   11  C23 UNL     1      45.963  52.620  43.491  1.00  0.00     0.013 A 
ATOM     12  H7  UNL     1      46.932  53.892  44.829  1.00  0.00     0.165 HD
HETATM   13  C24 UNL     1      45.115  51.724  44.318  1.00  0.00     0.068 C 
ENDBRANCH   5   6
ENDBRANCH   3   5
ENDBRANCH   2   3
BRANCH   2  14
HETATM   14  O1  UNL     1      47.398  49.299  42.413  1.00  0.00    -0.345 OA
ATOM     15  H1  UNL     1      47.730  48.417  42.531  1.00  0.00     0.219 HD
ENDBRANCH   2  14
ENDBRANCH   1   2
BRANCH   1  16
HETATM   16  N2  UNL     1      45.591  47.113  41.480  1.00  0.00    -0.322 N 
HETATM   17  C8  UNL     1      46.422  46.705  40.449  1.00  0.00     0.222 C 
HETATM   18  O2  UNL     1      47.635  46.493  40.736  1.00  0.00    -0.273 OA
ATOM     19  H2  UNL     1      45.048  46.358  41.898  1.00  0.00     0.169 HD
BRANCH  17  20
HETATM   20  C9  UNL     1      45.837  46.545  39.098  1.00  0.00     0.103 C 
BRANCH  20  21
HETATM   21  C10 UNL     1      45.542  47.808  38.360  1.00  0.00     0.010 C 
BRANCH  21  22
HETATM   22  C11 UNL     1      44.398  47.649  37.425  1.00  0.00     0.005 C 
BRANCH  22  23
HETATM   23  C12 UNL     1      43.954  48.977  36.821  1.00  0.00    -0.014 C 
HETATM   24  C13 UNL     1      42.514  48.886  36.490  1.00  0.00     0.004 C 
HETATM   25  C14 UNL     1      41.840  50.174  36.203  1.00  0.00     0.000 C 
HETATM   26  C15 UNL     1      42.825  51.302  36.184  1.00  0.00     0.000 C 
HETATM   27  C16 UNL     1      43.490  51.326  37.561  1.00  0.00     0.000 C 
HETATM   28  C17 UNL     1      44.305  50.075  37.784  1.00  0.00     0.004 C 
ENDBRANCH  22  23
ENDBRANCH  21  22
ENDBRANCH  20  21
ENDBRANCH  17  20
ENDBRANCH   1  16
BRANCH   1  29
HETATM   29  C18 UNL     1      44.184  48.340  42.863  1.00  0.00     0.057 C 
HETATM   30  N4  UNL     1      44.279  48.235  44.160  1.00  0.00    -0.299 N 
ATOM     31  H4  UNL     1      43.402  48.294  44.676  1.00  0.00     0.186 HD
BRANCH  29  32
HETATM   32  C19 UNL     1      42.803  48.485  42.361  1.00  0.00     0.070 C 
BRANCH  32  33
HETATM   33  C20 UNL     1      42.755  48.643  40.842  1.00  0.00     0.105 C 
BRANCH  33  34
HETATM   34  C21 UNL     1      42.082  47.512  40.175  1.00  0.00     0.231 C 
HETATM   35  N3  UNL     1      42.624  46.191  40.199  1.00  0.00    -0.062 NA
HETATM   36  O3  UNL     1      40.999  47.703  39.559  1.00  0.00    -0.277 OA
ENDBRANCH  33  34
ENDBRANCH  32  33
ENDBRANCH  29  32
BRANCH  30  37
HETATM   37  N5  UNL     1      45.402  48.057  44.915  1.00  0.00    -0.254 N 
HETATM   38  C22 UNL     1      45.813  46.796  45.379  1.00  0.00     0.347 C 
HETATM   39  N6  UNL     1      47.016  46.709  46.172  1.00  0.00    -0.038 NA
HETATM   40  O4  UNL     1      45.167  45.759  45.126  1.00  0.00    -0.249 OA
ATOM     41  H5  UNL     1      45.967  48.873  45.152  1.00  0.00     0.191 HD
ENDBRANCH  30  37
ENDBRANCH   1  29
TORSDOF 15
ENDMDL
MODEL 4
REMARK VINA RESULT: -8.882958390      1.658      3.990
REMARK  15 active torsions:
REMARK  status: ('A' for Active; 'I' for Inactive)
REMARK    1  A    between atoms: C4_4  and  C5_5 
REMARK    2  A    between atoms: C5_5  and  N1_6 
REMARK    3  A    between atoms: N1_6  and  C6_8 
REMARK    4  A    between atoms: C6_8  and  O1_9 
REMARK    5  A    between atoms: C6_8  and  C7_11 
REMARK    6  A    between atoms: C7_11  and  N2_12 
REMARK    7  A    between atoms: C7_11  and  C18_25 
REMARK       I    between atoms: N2_12  and  C8_14 
REMARK    8  A    between atoms: C8_14  and  C9_16 
REMARK    9  A    between atoms: C9_16  and  C10_17 
REMARK   10  A    between atoms: C10_17  and  C11_18 
REMARK   11  A    between atoms: C11_18  and  C12_19 
REMARK   12  A    between atoms: C18_25  and  C19_26 
REMARK   13  A    between atoms: C19_26  and  C20_27 
REMARK   14  A    between atoms: C20_27  and  C21_28 
REMARK   15  A    between atoms: N4_31  and  N5_33 
REMARK       I    between atoms: N5_33  and  C22_35 
ROOT
HETATM    1  C7  UNL     1      45.412  49.354  43.118  1.00  0.00     0.110 C 
ENDROOT
BRANCH   1   2
HETATM    2  C6  UNL     1      44.400  49.182  42.133  1.00  0.00     0.165 C 
BRANCH   2   3
HETATM    3  N1  UNL     1      44.315  49.581  40.785  1.00  0.00    -0.365 N 
ATOM      4  H1  UNL     1      44.218  48.886  40.044  1.00  0.00     0.162 HD
BRANCH   3   5
HETATM    5  C5  UNL     1      44.370  51.029  40.457  1.00  0.00     0.162 C 
BRANCH   5   6
HETATM    6  C4  UNL     1      43.962  51.299  39.068  1.00  0.00    -0.017 A 
HETATM    7  C3  UNL     1      42.746  51.081  38.502  1.00  0.00     0.035 A 
HETATM    8  C2  UNL     1      42.806  51.441  37.185  1.00  0.00     0.006 A 
HETATM    9  C1  UNL     1      41.666  51.355  36.205  1.00  0.00     0.068 C 
HETATM   10  N7  UNL     1      44.052  51.869  36.969  1.00  0.00    -0.363 N 
HETATM   11  C23 UNL     1      44.802  51.808  38.073  1.00  0.00     0.013 A 
ATOM     12  H7  UNL     1      44.391  52.204  36.067  1.00  0.00     0.165 HD
HETATM   13  C24 UNL     1      46.224  52.181  38.281  1.00  0.00     0.068 C 
ENDBRANCH   5   6
ENDBRANCH   3   5
ENDBRANCH   2   3
BRANCH   2  14
HETATM   14  O1  UNL     1      43.339  48.529  42.544  1.00  0.00    -0.345 OA
ATOM     15  H1  UNL     1      43.011  48.840  43.380  1.00  0.00     0.219 HD
ENDBRANCH   2  14
ENDBRANCH   1   2
BRANCH   1  16
HETATM   16  N2  UNL     1      46.622  48.972  42.847  1.00  0.00    -0.322 N 
HETATM   17  C8  UNL     1      47.244  48.624  41.659  1.00  0.00     0.222 C 
HETATM   18  O2  UNL     1      47.676  49.567  40.936  1.00  0.00    -0.273 OA
ATOM     19  H2  UNL     1      47.231  48.918  43.664  1.00  0.00     0.169 HD
BRANCH  17  20
HETATM   20  C9  UNL     1      47.360  47.186  41.323  1.00  0.00     0.103 C 
BRANCH  20  21
HETATM   21  C10 UNL     1      46.937  46.802  39.944  1.00  0.00     0.010 C 
BRANCH  21  22
HETATM   22  C11 UNL     1      45.727  45.938  39.957  1.00  0.00     0.005 C 
BRANCH  22  23
HETATM   23  C12 UNL     1      44.734  46.317  38.864  1.00  0.00    -0.014 C 
HETATM   24  C13 UNL     1      43.439  46.653  39.501  1.00  0.00     0.004 C 
HETATM   25  C14 UNL     1      42.462  47.354  38.634  1.00  0.00     0.000 C 
HETATM   26  C15 UNL     1      42.968  47.453  37.228  1.00  0.00     0.000 C 
HETATM   27  C16 UNL     1      44.291  48.217  37.291  1.00  0.00     0.000 C 
HETATM   28  C17 UNL     1      45.332  47.424  38.044  1.00  0.00     0.004 C 
ENDBRANCH  22  23
ENDBRANCH  21  22
ENDBRANCH  20  21
ENDBRANCH  17  20
ENDBRANCH   1  16
BRANCH   1  29
HETATM   29  C18 UNL     1      45.241  49.933  44.450  1.00  0.00     0.057 C 
HETATM   30  N4  UNL     1      44.866  49.195  45.458  1.00  0.00    -0.299 N 
ATOM     31  H4  UNL     1      44.774  49.678  46.352  1.00  0.00     0.186 HD
BRANCH  29  32
HETATM   32  C19 UNL     1      45.429  51.361  44.773  1.00  0.00     0.070 C 
BRANCH  32  33
HETATM   33  C20 UNL     1      44.477  52.261  43.986  1.00  0.00     0.105 C 
BRANCH  33  34
HETATM   34  C21 UNL     1      44.338  53.602  44.585  1.00  0.00     0.231 C 
HETATM   35  N3  UNL     1      44.118  54.765  43.788  1.00  0.00    -0.062 NA
HETATM   36  O3  UNL     1      44.418  53.740  45.836  1.00  0.00    -0.277 OA
ENDBRANCH  33  34
ENDBRANCH  32  33
ENDBRANCH  29  32
BRANCH  30  37
HETATM   37  N5  UNL     1      44.581  47.861  45.472  1.00  0.00    -0.254 N 
HETATM   38  C22 UNL     1      45.579  46.871  45.485  1.00  0.00     0.347 C 
HETATM   39  N6  UNL     1      45.177  45.484  45.500  1.00  0.00    -0.038 NA
HETATM   40  O4  UNL     1      46.792  47.161  45.485  1.00  0.00    -0.249 OA
ATOM     41  H5  UNL     1      43.603  47.569  45.472  1.00  0.00     0.191 HD
ENDBRANCH  30  37
ENDBRANCH   1  29
TORSDOF 15
ENDMDL
MODEL 5
REMARK VINA RESULT: -8.810656617      2.063      5.000
REMARK  15 active torsions:
REMARK  status: ('A' for Active; 'I' for Inactive)
REMARK    1  A    between atoms: C4_4  and  C5_5 
REMARK    2  A    between atoms: C5_5  and  N1_6 
REMARK    3  A    between atoms: N1_6  and  C6_8 
REMARK    4  A    between atoms: C6_8  and  O1_9 
REMARK    5  A    between atoms: C6_8  and  C7_11 
REMARK    6  A    between atoms: C7_11  and  N2_12 
REMARK    7  A    between atoms: C7_11  and  C18_25 
REMARK       I    between atoms: N2_12  and  C8_14 
REMARK    8  A    between atoms: C8_14  and  C9_16 
REMARK    9  A    between atoms: C9_16  and  C10_17 
REMARK   10  A    between atoms: C10_17  and  C11_18 
REMARK   11  A    between atoms: C11_18  and  C12_19 
REMARK   12  A    between atoms: C18_25  and  C19_26 
REMARK   13  A    between atoms: C19_26  and  C20_27 
REMARK   14  A    between atoms: C20_27  and  C21_28 
REMARK   15  A    between atoms: N4_31  and  N5_33 
REMARK       I    between atoms: N5_33  and  C22_35 
ROOT
HETATM    1  C7  UNL     1      46.222  48.981  41.926  1.00  0.00     0.110 C 
ENDROOT
BRANCH   1   2
HETATM    2  C6  UNL     1      47.112  50.086  41.834  1.00  0.00     0.165 C 
BRANCH   2   3
HETATM    3  N1  UNL     1      46.944  51.461  42.093  1.00  0.00    -0.365 N 
ATOM      4  H1  UNL     1      47.460  51.913  42.847  1.00  0.00     0.162 HD
BRANCH   3   5
HETATM    5  C5  UNL     1      46.001  52.241  41.250  1.00  0.00     0.162 C 
BRANCH   5   6
HETATM    6  C4  UNL     1      45.056  53.028  42.059  1.00  0.00    -0.017 A 
HETATM    7  C3  UNL     1      44.748  52.862  43.373  1.00  0.00     0.035 A 
HETATM    8  C2  UNL     1      43.800  53.783  43.720  1.00  0.00     0.006 A 
HETATM    9  C1  UNL     1      43.191  53.935  45.089  1.00  0.00     0.068 C 
HETATM   10  N7  UNL     1      43.545  54.493  42.618  1.00  0.00    -0.363 N 
HETATM   11  C23 UNL     1      44.275  54.084  41.578  1.00  0.00     0.013 A 
ATOM     12  H7  UNL     1      42.872  55.259  42.577  1.00  0.00     0.165 HD
HETATM   13  C24 UNL     1      44.311  54.587  40.181  1.00  0.00     0.068 C 
ENDBRANCH   5   6
ENDBRANCH   3   5
ENDBRANCH   2   3
BRANCH   2  14
HETATM   14  O1  UNL     1      48.325  49.783  41.435  1.00  0.00    -0.345 OA
ATOM     15  H1  UNL     1      48.958  50.469  41.613  1.00  0.00     0.219 HD
ENDBRANCH   2  14
ENDBRANCH   1   2
BRANCH   1  16
HETATM   16  N2  UNL     1      46.642  47.804  41.576  1.00  0.00    -0.322 N 
HETATM   17  C8  UNL     1      46.832  47.216  40.336  1.00  0.00     0.222 C 
HETATM   18  O2  UNL     1      47.911  47.478  39.732  1.00  0.00    -0.273 OA
ATOM     19  H2  UNL     1      46.878  47.198  42.361  1.00  0.00     0.169 HD
BRANCH  17  20
HETATM   20  C9  UNL     1      45.768  46.330  39.810  1.00  0.00     0.103 C 
BRANCH  20  21
HETATM   21  C10 UNL     1      45.243  46.671  38.455  1.00  0.00     0.010 C 
BRANCH  21  22
HETATM   22  C11 UNL     1      45.660  48.031  38.026  1.00  0.00     0.005 C 
BRANCH  22  23
HETATM   23  C12 UNL     1      44.530  49.048  38.147  1.00  0.00    -0.014 C 
HETATM   24  C13 UNL     1      45.121  50.405  38.197  1.00  0.00     0.004 C 
HETATM   25  C14 UNL     1      44.173  51.525  37.984  1.00  0.00     0.000 C 
HETATM   26  C15 UNL     1      42.764  51.024  37.893  1.00  0.00     0.000 C 
HETATM   27  C16 UNL     1      42.724  50.041  36.722  1.00  0.00     0.000 C 
HETATM   28  C17 UNL     1      43.571  48.826  37.012  1.00  0.00     0.004 C 
ENDBRANCH  22  23
ENDBRANCH  21  22
ENDBRANCH  20  21
ENDBRANCH  17  20
ENDBRANCH   1  16
BRANCH   1  29
HETATM   29  C18 UNL     1      44.835  49.017  42.389  1.00  0.00     0.057 C 
HETATM   30  N4  UNL     1      44.535  48.763  43.633  1.00  0.00    -0.299 N 
ATOM     31  H4  UNL     1      43.545  48.813  43.871  1.00  0.00     0.186 HD
BRANCH  29  32
HETATM   32  C19 UNL     1      43.670  49.293  41.523  1.00  0.00     0.070 C 
BRANCH  32  33
HETATM   33  C20 UNL     1      42.523  48.314  41.769  1.00  0.00     0.105 C 
BRANCH  33  34
HETATM   34  C21 UNL     1      41.922  47.818  40.517  1.00  0.00     0.231 C 
HETATM   35  N3  UNL     1      41.073  48.636  39.711  1.00  0.00    -0.062 NA
HETATM   36  O3  UNL     1      42.153  46.639  40.135  1.00  0.00    -0.277 OA
ENDBRANCH  33  34
ENDBRANCH  32  33
ENDBRANCH  29  32
BRANCH  30  37
HETATM   37  N5  UNL     1      45.377  48.440  44.657  1.00  0.00    -0.254 N 
HETATM   38  C22 UNL     1      45.660  47.111  45.017  1.00  0.00     0.347 C 
HETATM   39  N6  UNL     1      46.565  46.870  46.116  1.00  0.00    -0.038 NA
HETATM   40  O4  UNL     1      45.153  46.144  44.414  1.00  0.00    -0.249 OA
ATOM     41  H5  UNL     1      45.818  49.194  45.184  1.00  0.00     0.191 HD
ENDBRANCH  30  37
ENDBRANCH   1  29
TORSDOF 15
ENDMDL
