MODEL 1
REMARK VINA RESULT: -8.076658675      0.000      0.000
REMARK  17 active torsions:
REMARK  status: ('A' for Active; 'I' for Inactive)
REMARK    1  A    between atoms: O1_2  and  C2_3 
REMARK    2  A    between atoms: C3_4  and  C4_5 
REMARK    3  A    between atoms: C5_6  and  C6_7 
REMARK    4  A    between atoms: C6_7  and  C7_8 
REMARK    5  A    between atoms: C7_8  and  C8_9 
REMARK    6  A    between atoms: C8_9  and  C9_10 
REMARK    7  A    between atoms: C9_10  and  C10_11 
REMARK    8  A    between atoms: C10_11  and  C11_12 
REMARK    9  A    between atoms: C11_12  and  C12_13 
REMARK   10  A    between atoms: C12_13  and  C13_14 
REMARK   11  A    between atoms: C13_14  and  C14_15 
REMARK   12  A    between atoms: C14_15  and  C15_16 
REMARK       I    between atoms: C15_16  and  N1_18 
REMARK   13  A    between atoms: N1_18  and  C16_20 
REMARK   14  A    between atoms: C21_25  and  C22_26 
REMARK   15  A    between atoms: C23_27  and  C24_28 
REMARK   16  A    between atoms: C26_35  and  O4_36 
REMARK   17  A    between atoms: C27_38  and  O5_39 
ROOT
HETATM    1  C16 UNL     1      43.624  47.618  39.017  1.00  0.00     0.116 C 
HETATM    2  C17 UNL     1      43.874  48.857  39.814  1.00  0.00     0.034 C 
HETATM    3  C18 UNL     1      44.386  48.631  41.193  1.00  0.00     0.021 C 
HETATM    4  C19 UNL     1      43.237  48.567  42.184  1.00  0.00     0.009 C 
HETATM    5  C20 UNL     1      43.827  48.856  43.549  1.00  0.00     0.037 C 
HETATM    6  C21 UNL     1      45.160  48.179  43.661  1.00  0.00     0.209 C 
HETATM    7  N3  UNL     1      45.224  47.033  42.775  1.00  0.00    -0.060 N 
ATOM      8  H31 UNL     1      44.464  46.378  42.957  1.00  0.00     0.278 HD
ATOM      9  H32 UNL     1      46.013  46.428  43.004  1.00  0.00     0.278 HD
HETATM   10  C25 UNL     1      45.254  47.434  41.379  1.00  0.00     0.221 C 
HETATM   11  C26 UNL     1      44.847  46.238  40.566  1.00  0.00     0.179 C 
HETATM   12  C27 UNL     1      44.801  46.691  39.110  1.00  0.00     0.171 C 
ENDROOT
BRANCH   1  13
HETATM   13  N1  UNL     1      43.360  48.023  37.647  1.00  0.00    -0.354 N 
HETATM   14  C15 UNL     1      42.149  47.742  36.983  1.00  0.00     0.217 C 
HETATM   15  O2  UNL     1      41.276  47.114  37.618  1.00  0.00    -0.274 OA
ATOM     16  H1  UNL     1      44.085  48.533  37.142  1.00  0.00     0.162 HD
BRANCH  14  17
HETATM   17  C14 UNL     1      41.944  48.179  35.596  1.00  0.00     0.103 C 
BRANCH  17  18
HETATM   18  C13 UNL     1      40.570  48.601  35.230  1.00  0.00     0.009 C 
BRANCH  18  19
HETATM   19  C12 UNL     1      40.268  50.054  35.346  1.00  0.00     0.000 C 
BRANCH  19  20
HETATM   20  C11 UNL     1      41.447  50.843  35.866  1.00  0.00     0.000 C 
BRANCH  20  21
HETATM   21  C10 UNL     1      41.264  51.242  37.301  1.00  0.00     0.000 C 
BRANCH  21  22
HETATM   22  C9  UNL     1      42.585  51.588  37.904  1.00  0.00     0.000 C 
BRANCH  22  23
HETATM   23  C8  UNL     1      43.723  51.449  36.911  1.00  0.00     0.001 C 
BRANCH  23  24
HETATM   24  C7  UNL     1      44.971  51.114  37.685  1.00  0.00     0.012 C 
BRANCH  24  25
HETATM   25  C6  UNL     1      45.664  52.322  38.254  1.00  0.00     0.095 C 
BRANCH  25  26
HETATM   26  C5  UNL     1      45.304  52.424  39.669  1.00  0.00    -0.092 C 
HETATM   27  C4  UNL     1      45.022  52.523  40.837  1.00  0.00    -0.013 C 
BRANCH  27  28
HETATM   28  C3  UNL     1      44.707  52.658  42.209  1.00  0.00     0.015 C 
HETATM   29  C2  UNL     1      44.418  52.773  43.375  1.00  0.00     0.068 C 
BRANCH  29  30
HETATM   30  O1  UNL     1      44.072  52.922  44.695  1.00  0.00    -0.308 OA
HETATM   31  C1  UNL     1      43.327  54.043  45.150  1.00  0.00     0.223 C 
ENDBRANCH  29  30
ENDBRANCH  27  28
ENDBRANCH  25  26
ENDBRANCH  24  25
ENDBRANCH  23  24
ENDBRANCH  22  23
ENDBRANCH  21  22
ENDBRANCH  20  21
ENDBRANCH  19  20
ENDBRANCH  18  19
ENDBRANCH  17  18
ENDBRANCH  14  17
ENDBRANCH   1  13
BRANCH  12  32
HETATM   32  O5  UNL     1      46.009  47.287  38.832  1.00  0.00    -0.391 OA
ATOM     33  H5  UNL     1      46.149  48.109  39.287  1.00  0.00     0.210 HD
ENDBRANCH  12  32
BRANCH  11  34
HETATM   34  O4  UNL     1      43.676  45.651  40.972  1.00  0.00    -0.391 OA
ATOM     35  H4  UNL     1      42.972  45.703  40.336  1.00  0.00     0.210 HD
ENDBRANCH  11  34
BRANCH   6  36
HETATM   36  C22 UNL     1      45.342  47.684  45.043  1.00  0.00     0.011 C 
HETATM   37  C23 UNL     1      45.190  46.406  45.332  1.00  0.00     0.069 C 
BRANCH  37  38
HETATM   38  C24 UNL     1      45.366  45.909  46.684  1.00  0.00     0.254 C 
HETATM   39  N2  UNL     1      44.252  45.347  47.355  1.00  0.00    -0.058 NA
HETATM   40  O3  UNL     1      46.461  45.953  47.294  1.00  0.00    -0.272 OA
ENDBRANCH  37  38
ENDBRANCH   6  36
TORSDOF 17
ENDMDL
MODEL 2
REMARK VINA RESULT: -8.015381205      3.987      7.676
REMARK  17 active torsions:
REMARK  status: ('A' for Active; 'I' for Inactive)
REMARK    1  A    between atoms: O1_2  and  C2_3 
REMARK    2  A    between atoms: C3_4  and  C4_5 
REMARK    3  A    between atoms: C5_6  and  C6_7 
REMARK    4  A    between atoms: C6_7  and  C7_8 
REMARK    5  A    between atoms: C7_8  and  C8_9 
REMARK    6  A    between atoms: C8_9  and  C9_10 
REMARK    7  A    between atoms: C9_10  and  C10_11 
REMARK    8  A    between atoms: C10_11  and  C11_12 
REMARK    9  A    between atoms: C11_12  and  C12_13 
REMARK   10  A    between atoms: C12_13  and  C13_14 
REMARK   11  A    between atoms: C13_14  and  C14_15 
REMARK   12  A    between atoms: C14_15  and  C15_16 
REMARK       I    between atoms: C15_16  and  N1_18 
REMARK   13  A    between atoms: N1_18  and  C16_20 
REMARK   14  A    between atoms: C21_25  and  C22_26 
REMARK   15  A    between atoms: C23_27  and  C24_28 
REMARK   16  A    between atoms: C26_35  and  O4_36 
REMARK   17  A    between atoms: C27_38  and  O5_39 
ROOT
HETATM    1  C16 UNL     1      45.780  45.560  47.192  1.00  0.00     0.116 C 
HETATM    2  C17 UNL     1      47.211  45.906  47.451  1.00  0.00     0.034 C 
HETATM    3  C18 UNL     1      47.706  45.580  48.816  1.00  0.00     0.021 C 
HETATM    4  C19 UNL     1      47.545  46.775  49.740  1.00  0.00     0.009 C 
HETATM    5  C20 UNL     1      48.503  46.559  50.894  1.00  0.00     0.037 C 
HETATM    6  C21 UNL     1      48.494  45.110  51.276  1.00  0.00     0.209 C 
HETATM    7  N3  UNL     1      47.235  44.494  50.904  1.00  0.00    -0.060 N 
ATOM      8  H31 UNL     1      46.443  44.987  51.316  1.00  0.00     0.278 HD
ATOM      9  H32 UNL     1      47.114  43.589  51.359  1.00  0.00     0.278 HD
HETATM   10  C25 UNL     1      47.098  44.383  49.462  1.00  0.00     0.221 C 
HETATM   11  C26 UNL     1      45.636  44.193  49.170  1.00  0.00     0.179 C 
HETATM   12  C27 UNL     1      45.490  44.160  47.652  1.00  0.00     0.171 C 
ENDROOT
BRANCH   1  13
HETATM   13  N1  UNL     1      45.538  45.724  45.770  1.00  0.00    -0.354 N 
HETATM   14  C15 UNL     1      45.430  46.985  45.149  1.00  0.00     0.217 C 
HETATM   15  O2  UNL     1      45.550  47.995  45.873  1.00  0.00    -0.274 OA
ATOM     16  H1  UNL     1      45.442  44.888  45.193  1.00  0.00     0.162 HD
BRANCH  14  17
HETATM   17  C14 UNL     1      45.185  47.083  43.705  1.00  0.00     0.103 C 
BRANCH  17  18
HETATM   18  C13 UNL     1      46.382  47.177  42.834  1.00  0.00     0.009 C 
BRANCH  18  19
HETATM   19  C12 UNL     1      46.158  46.997  41.373  1.00  0.00     0.000 C 
BRANCH  19  20
HETATM   20  C11 UNL     1      44.798  46.411  41.072  1.00  0.00     0.000 C 
BRANCH  20  21
HETATM   21  C10 UNL     1      44.616  46.146  39.606  1.00  0.00     0.000 C 
BRANCH  21  22
HETATM   22  C9  UNL     1      45.755  46.730  38.840  1.00  0.00     0.000 C 
BRANCH  22  23
HETATM   23  C8  UNL     1      45.294  47.728  37.794  1.00  0.00     0.001 C 
BRANCH  23  24
HETATM   24  C7  UNL     1      43.823  47.969  38.005  1.00  0.00     0.012 C 
BRANCH  24  25
HETATM   25  C6  UNL     1      43.478  49.418  38.208  1.00  0.00     0.095 C 
BRANCH  25  26
HETATM   26  C5  UNL     1      43.912  49.802  39.552  1.00  0.00    -0.092 C 
HETATM   27  C4  UNL     1      44.282  50.100  40.660  1.00  0.00    -0.013 C 
BRANCH  27  28
HETATM   28  C3  UNL     1      44.729  50.431  41.961  1.00  0.00     0.015 C 
HETATM   29  C2  UNL     1      45.098  50.698  43.078  1.00  0.00     0.068 C 
BRANCH  29  30
HETATM   30  O1  UNL     1      45.495  50.998  44.357  1.00  0.00    -0.308 OA
HETATM   31  C1  UNL     1      45.581  52.339  44.817  1.00  0.00     0.223 C 
ENDBRANCH  29  30
ENDBRANCH  27  28
ENDBRANCH  25  26
ENDBRANCH  24  25
ENDBRANCH  23  24
ENDBRANCH  22  23
ENDBRANCH  21  22
ENDBRANCH  20  21
ENDBRANCH  19  20
ENDBRANCH  18  19
ENDBRANCH  17  18
ENDBRANCH  14  17
ENDBRANCH   1  13
BRANCH  12  32
HETATM   32  O5  UNL     1      46.376  43.220  47.180  1.00  0.00    -0.391 OA
ATOM     33  H5  UNL     1      46.712  43.405  46.312  1.00  0.00     0.210 HD
ENDBRANCH  12  32
BRANCH  11  34
HETATM   34  O4  UNL     1      44.818  45.125  49.757  1.00  0.00    -0.391 OA
ATOM     35  H4  UNL     1      44.262  45.597  49.147  1.00  0.00     0.210 HD
ENDBRANCH  11  34
BRANCH   6  36
HETATM   36  C22 UNL     1      48.631  44.991  52.744  1.00  0.00     0.011 C 
HETATM   37  C23 UNL     1      48.464  46.038  53.529  1.00  0.00     0.069 C 
BRANCH  37  38
HETATM   38  C24 UNL     1      48.596  45.934  54.970  1.00  0.00     0.254 C 
HETATM   39  N2  UNL     1      49.295  46.950  55.667  1.00  0.00    -0.058 NA
HETATM   40  O3  UNL     1      48.121  44.982  55.635  1.00  0.00    -0.272 OA
ENDBRANCH  37  38
ENDBRANCH   6  36
TORSDOF 17
ENDMDL
MODEL 3
REMARK VINA RESULT: -7.982381091      5.065     11.810
REMARK  17 active torsions:
REMARK  status: ('A' for Active; 'I' for Inactive)
REMARK    1  A    between atoms: O1_2  and  C2_3 
REMARK    2  A    between atoms: C3_4  and  C4_5 
REMARK    3  A    between atoms: C5_6  and  C6_7 
REMARK    4  A    between atoms: C6_7  and  C7_8 
REMARK    5  A    between atoms: C7_8  and  C8_9 
REMARK    6  A    between atoms: C8_9  and  C9_10 
REMARK    7  A    between atoms: C9_10  and  C10_11 
REMARK    8  A    between atoms: C10_11  and  C11_12 
REMARK    9  A    between atoms: C11_12  and  C12_13 
REMARK   10  A    between atoms: C12_13  and  C13_14 
REMARK   11  A    between atoms: C13_14  and  C14_15 
REMARK   12  A    between atoms: C14_15  and  C15_16 
REMARK       I    between atoms: C15_16  and  N1_18 
REMARK   13  A    between atoms: N1_18  and  C16_20 
REMARK   14  A    between atoms: C21_25  and  C22_26 
REMARK   15  A    between atoms: C23_27  and  C24_28 
REMARK   16  A    between atoms: C26_35  and  O4_36 
REMARK   17  A    between atoms: C27_38  and  O5_39 
ROOT
HETATM    1  C16 UNL     1      45.603  47.246  43.761  1.00  0.00     0.116 C 
HETATM    2  C17 UNL     1      46.641  47.147  42.691  1.00  0.00     0.034 C 
HETATM    3  C18 UNL     1      46.207  47.605  41.343  1.00  0.00     0.021 C 
HETATM    4  C19 UNL     1      45.667  46.440  40.532  1.00  0.00     0.009 C 
HETATM    5  C20 UNL     1      45.741  46.856  39.077  1.00  0.00     0.037 C 
HETATM    6  C21 UNL     1      45.355  48.300  38.958  1.00  0.00     0.209 C 
HETATM    7  N3  UNL     1      44.493  48.688  40.058  1.00  0.00    -0.060 N 
ATOM      8  H31 UNL     1      43.668  48.090  40.113  1.00  0.00     0.278 HD
ATOM      9  H32 UNL     1      44.032  49.579  39.873  1.00  0.00     0.278 HD
HETATM   10  C25 UNL     1      45.212  48.715  41.319  1.00  0.00     0.221 C 
HETATM   11  C26 UNL     1      44.186  48.653  42.415  1.00  0.00     0.179 C 
HETATM   12  C27 UNL     1      44.951  48.599  43.734  1.00  0.00     0.171 C 
ENDROOT
BRANCH   1  13
HETATM   13  N1  UNL     1      46.257  46.986  45.032  1.00  0.00    -0.354 N 
HETATM   14  C15 UNL     1      45.646  46.260  46.075  1.00  0.00     0.217 C 
HETATM   15  O2  UNL     1      44.491  45.831  45.878  1.00  0.00    -0.274 OA
ATOM     16  H1  UNL     1      47.200  47.345  45.176  1.00  0.00     0.162 HD
BRANCH  14  17
HETATM   17  C14 UNL     1      46.361  46.031  47.337  1.00  0.00     0.103 C 
BRANCH  17  18
HETATM   18  C13 UNL     1      47.812  46.342  47.343  1.00  0.00     0.009 C 
BRANCH  18  19
HETATM   19  C12 UNL     1      48.654  45.565  48.294  1.00  0.00     0.000 C 
BRANCH  19  20
HETATM   20  C11 UNL     1      47.990  45.398  49.641  1.00  0.00     0.000 C 
BRANCH  20  21
HETATM   21  C10 UNL     1      48.143  46.623  50.495  1.00  0.00     0.000 C 
BRANCH  21  22
HETATM   22  C9  UNL     1      49.089  46.344  51.616  1.00  0.00     0.000 C 
BRANCH  22  23
HETATM   23  C8  UNL     1      49.087  47.446  52.658  1.00  0.00     0.001 C 
BRANCH  23  24
HETATM   24  C7  UNL     1      48.041  47.106  53.686  1.00  0.00     0.012 C 
BRANCH  24  25
HETATM   25  C6  UNL     1      48.531  46.158  54.746  1.00  0.00     0.095 C 
BRANCH  25  26
HETATM   26  C5  UNL     1      47.468  45.187  55.009  1.00  0.00    -0.092 C 
HETATM   27  C4  UNL     1      46.582  44.401  55.236  1.00  0.00    -0.013 C 
BRANCH  27  28
HETATM   28  C3  UNL     1      45.531  43.496  55.514  1.00  0.00     0.015 C 
HETATM   29  C2  UNL     1      44.636  42.717  55.731  1.00  0.00     0.068 C 
BRANCH  29  30
HETATM   30  O1  UNL     1      43.608  41.835  55.956  1.00  0.00    -0.308 OA
HETATM   31  C1  UNL     1      43.664  40.492  55.497  1.00  0.00     0.223 C 
ENDBRANCH  29  30
ENDBRANCH  27  28
ENDBRANCH  25  26
ENDBRANCH  24  25
ENDBRANCH  23  24
ENDBRANCH  22  23
ENDBRANCH  21  22
ENDBRANCH  20  21
ENDBRANCH  19  20
ENDBRANCH  18  19
ENDBRANCH  17  18
ENDBRANCH  14  17
ENDBRANCH   1  13
BRANCH  12  32
HETATM   32  O5  UNL     1      45.838  49.649  43.731  1.00  0.00    -0.391 OA
ATOM     33  H5  UNL     1      46.016  50.009  44.591  1.00  0.00     0.210 HD
ENDBRANCH  12  32
BRANCH  11  34
HETATM   34  O4  UNL     1      43.285  47.626  42.287  1.00  0.00    -0.391 OA
ATOM     35  H4  UNL     1      42.597  47.626  42.943  1.00  0.00     0.210 HD
ENDBRANCH  11  34
BRANCH   6  36
HETATM   36  C22 UNL     1      44.596  48.500  37.705  1.00  0.00     0.011 C 
HETATM   37  C23 UNL     1      43.288  48.334  37.669  1.00  0.00     0.069 C 
BRANCH  37  38
HETATM   38  C24 UNL     1      42.532  48.528  36.446  1.00  0.00     0.254 C 
HETATM   39  N2  UNL     1      41.508  47.604  36.122  1.00  0.00    -0.058 NA
HETATM   40  O3  UNL     1      42.742  49.478  35.653  1.00  0.00    -0.272 OA
ENDBRANCH  37  38
ENDBRANCH   6  36
TORSDOF 17
ENDMDL
MODEL 4
REMARK VINA RESULT: -7.941769046      4.581      8.533
REMARK  17 active torsions:
REMARK  status: ('A' for Active; 'I' for Inactive)
REMARK    1  A    between atoms: O1_2  and  C2_3 
REMARK    2  A    between atoms: C3_4  and  C4_5 
REMARK    3  A    between atoms: C5_6  and  C6_7 
REMARK    4  A    between atoms: C6_7  and  C7_8 
REMARK    5  A    between atoms: C7_8  and  C8_9 
REMARK    6  A    between atoms: C8_9  and  C9_10 
REMARK    7  A    between atoms: C9_10  and  C10_11 
REMARK    8  A    between atoms: C10_11  and  C11_12 
REMARK    9  A    between atoms: C11_12  and  C12_13 
REMARK   10  A    between atoms: C12_13  and  C13_14 
REMARK   11  A    between atoms: C13_14  and  C14_15 
REMARK   12  A    between atoms: C14_15  and  C15_16 
REMARK       I    between atoms: C15_16  and  N1_18 
REMARK   13  A    between atoms: N1_18  and  C16_20 
REMARK   14  A    between atoms: C21_25  and  C22_26 
REMARK   15  A    between atoms: C23_27  and  C24_28 
REMARK   16  A    between atoms: C26_35  and  O4_36 
REMARK   17  A    between atoms: C27_38  and  O5_39 
ROOT
HETATM    1  C16 UNL     1      45.931  44.706  48.067  1.00  0.00     0.116 C 
HETATM    2  C17 UNL     1      45.048  44.812  49.268  1.00  0.00     0.034 C 
HETATM    3  C18 UNL     1      45.094  43.648  50.194  1.00  0.00     0.021 C 
HETATM    4  C19 UNL     1      44.012  42.643  49.840  1.00  0.00     0.009 C 
HETATM    5  C20 UNL     1      43.788  41.797  51.077  1.00  0.00     0.037 C 
HETATM    6  C21 UNL     1      45.109  41.517  51.728  1.00  0.00     0.209 C 
HETATM    7  N3  UNL     1      46.180  41.582  50.752  1.00  0.00    -0.060 N 
ATOM      8  H31 UNL     1      46.012  40.946  49.972  1.00  0.00     0.278 HD
ATOM      9  H32 UNL     1      47.039  41.167  51.113  1.00  0.00     0.278 HD
HETATM   10  C25 UNL     1      46.402  42.940  50.289  1.00  0.00     0.221 C 
HETATM   11  C26 UNL     1      47.154  42.848  48.991  1.00  0.00     0.179 C 
HETATM   12  C27 UNL     1      47.311  44.273  48.470  1.00  0.00     0.171 C 
ENDROOT
BRANCH   1  13
HETATM   13  N1  UNL     1      45.939  46.001  47.411  1.00  0.00    -0.354 N 
HETATM   14  C15 UNL     1      45.514  46.192  46.081  1.00  0.00     0.217 C 
HETATM   15  O2  UNL     1      45.116  45.188  45.454  1.00  0.00    -0.274 OA
ATOM     16  H1  UNL     1      46.269  46.811  47.937  1.00  0.00     0.162 HD
BRANCH  14  17
HETATM   17  C14 UNL     1      45.547  47.529  45.475  1.00  0.00     0.103 C 
BRANCH  17  18
HETATM   18  C13 UNL     1      45.041  47.639  44.084  1.00  0.00     0.009 C 
BRANCH  18  19
HETATM   19  C12 UNL     1      46.042  47.464  42.997  1.00  0.00     0.000 C 
BRANCH  19  20
HETATM   20  C11 UNL     1      45.415  46.950  41.721  1.00  0.00     0.000 C 
BRANCH  20  21
HETATM   21  C10 UNL     1      46.428  46.790  40.625  1.00  0.00     0.000 C 
BRANCH  21  22
HETATM   22  C9  UNL     1      45.804  46.106  39.455  1.00  0.00     0.000 C 
BRANCH  22  23
HETATM   23  C8  UNL     1      44.790  46.986  38.748  1.00  0.00     0.001 C 
BRANCH  23  24
HETATM   24  C7  UNL     1      45.547  48.027  37.968  1.00  0.00     0.012 C 
BRANCH  24  25
HETATM   25  C6  UNL     1      44.866  49.368  37.944  1.00  0.00     0.095 C 
BRANCH  25  26
HETATM   26  C5  UNL     1      44.845  49.888  39.312  1.00  0.00    -0.092 C 
HETATM   27  C4  UNL     1      44.831  50.298  40.446  1.00  0.00    -0.013 C 
BRANCH  27  28
HETATM   28  C3  UNL     1      44.818  50.755  41.784  1.00  0.00     0.015 C 
HETATM   29  C2  UNL     1      44.806  51.126  42.932  1.00  0.00     0.068 C 
BRANCH  29  30
HETATM   30  O1  UNL     1      44.775  51.531  44.244  1.00  0.00    -0.308 OA
HETATM   31  C1  UNL     1      45.539  52.638  44.701  1.00  0.00     0.223 C 
ENDBRANCH  29  30
ENDBRANCH  27  28
ENDBRANCH  25  26
ENDBRANCH  24  25
ENDBRANCH  23  24
ENDBRANCH  22  23
ENDBRANCH  21  22
ENDBRANCH  20  21
ENDBRANCH  19  20
ENDBRANCH  18  19
ENDBRANCH  17  18
ENDBRANCH  14  17
ENDBRANCH   1  13
BRANCH  12  32
HETATM   32  O5  UNL     1      47.857  45.019  49.489  1.00  0.00    -0.391 OA
ATOM     33  H5  UNL     1      47.377  44.969  50.306  1.00  0.00     0.210 HD
ENDBRANCH  12  32
BRANCH  11  34
HETATM   34  O4  UNL     1      46.585  42.010  48.067  1.00  0.00    -0.391 OA
ATOM     35  H4  UNL     1      46.937  42.099  47.189  1.00  0.00     0.210 HD
ENDBRANCH  11  34
BRANCH   6  36
HETATM   36  C22 UNL     1      45.098  40.147  52.286  1.00  0.00     0.011 C 
HETATM   37  C23 UNL     1      43.962  39.542  52.576  1.00  0.00     0.069 C 
BRANCH  37  38
HETATM   38  C24 UNL     1      43.938  38.199  53.124  1.00  0.00     0.254 C 
HETATM   39  N2  UNL     1      43.160  37.210  52.474  1.00  0.00    -0.058 NA
HETATM   40  O3  UNL     1      44.575  37.865  54.153  1.00  0.00    -0.272 OA
ENDBRANCH  37  38
ENDBRANCH   6  36
TORSDOF 17
ENDMDL
MODEL 5
REMARK VINA RESULT: -7.902895163      4.537      9.036
REMARK  17 active torsions:
REMARK  status: ('A' for Active; 'I' for Inactive)
REMARK    1  A    between atoms: O1_2  and  C2_3 
REMARK    2  A    between atoms: C3_4  and  C4_5 
REMARK    3  A    between atoms: C5_6  and  C6_7 
REMARK    4  A    between atoms: C6_7  and  C7_8 
REMARK    5  A    between atoms: C7_8  and  C8_9 
REMARK    6  A    between atoms: C8_9  and  C9_10 
REMARK    7  A    between atoms: C9_10  and  C10_11 
REMARK    8  A    between atoms: C10_11  and  C11_12 
REMARK    9  A    between atoms: C11_12  and  C12_13 
REMARK   10  A    between atoms: C12_13  and  C13_14 
REMARK   11  A    between atoms: C13_14  and  C14_15 
REMARK   12  A    between atoms: C14_15  and  C15_16 
REMARK       I    between atoms: C15_16  and  N1_18 
REMARK   13  A    between atoms: N1_18  and  C16_20 
REMARK   14  A    between atoms: C21_25  and  C22_26 
REMARK   15  A    between atoms: C23_27  and  C24_28 
REMARK   16  A    between atoms: C26_35  and  O4_36 
REMARK   17  A    between atoms: C27_38  and  O5_39 
ROOT
HETATM    1  C16 UNL     1      45.868  44.808  48.002  1.00  0.00     0.116 C 
HETATM    2  C17 UNL     1      44.977  44.855  49.200  1.00  0.00     0.034 C 
HETATM    3  C18 UNL     1      45.061  43.673  50.100  1.00  0.00     0.021 C 
HETATM    4  C19 UNL     1      44.018  42.637  49.718  1.00  0.00     0.009 C 
HETATM    5  C20 UNL     1      43.819  41.756  50.934  1.00  0.00     0.037 C 
HETATM    6  C21 UNL     1      45.147  41.509  51.585  1.00  0.00     0.209 C 
HETATM    7  N3  UNL     1      46.219  41.635  50.616  1.00  0.00    -0.060 N 
ATOM      8  H31 UNL     1      46.078  41.012  49.822  1.00  0.00     0.278 HD
ATOM      9  H32 UNL     1      47.091  41.244  50.973  1.00  0.00     0.278 HD
HETATM   10  C25 UNL     1      46.393  43.011  50.185  1.00  0.00     0.221 C 
HETATM   11  C26 UNL     1      47.155  42.976  48.890  1.00  0.00     0.179 C 
HETATM   12  C27 UNL     1      47.262  44.418  48.403  1.00  0.00     0.171 C 
ENDROOT
BRANCH   1  13
HETATM   13  N1  UNL     1      45.832  46.118  47.375  1.00  0.00    -0.354 N 
HETATM   14  C15 UNL     1      45.437  46.319  46.037  1.00  0.00     0.217 C 
HETATM   15  O2  UNL     1      45.107  45.312  45.377  1.00  0.00    -0.274 OA
ATOM     16  H1  UNL     1      46.106  46.930  47.929  1.00  0.00     0.162 HD
BRANCH  14  17
HETATM   17  C14 UNL     1      45.422  47.670  45.462  1.00  0.00     0.103 C 
BRANCH  17  18
HETATM   18  C13 UNL     1      44.632  47.853  44.220  1.00  0.00     0.009 C 
BRANCH  18  19
HETATM   19  C12 UNL     1      44.340  49.257  43.819  1.00  0.00     0.000 C 
BRANCH  19  20
HETATM   20  C11 UNL     1      44.054  49.380  42.340  1.00  0.00     0.000 C 
BRANCH  20  21
HETATM   21  C10 UNL     1      45.021  50.304  41.658  1.00  0.00     0.000 C 
BRANCH  21  22
HETATM   22  C9  UNL     1      46.346  50.247  42.344  1.00  0.00     0.000 C 
BRANCH  22  23
HETATM   23  C8  UNL     1      47.367  49.448  41.557  1.00  0.00     0.001 C 
BRANCH  23  24
HETATM   24  C7  UNL     1      47.631  48.170  42.308  1.00  0.00     0.012 C 
BRANCH  24  25
HETATM   25  C6  UNL     1      47.686  46.956  41.422  1.00  0.00     0.095 C 
BRANCH  25  26
HETATM   26  C5  UNL     1      46.424  46.880  40.683  1.00  0.00    -0.092 C 
HETATM   27  C4  UNL     1      45.385  46.838  40.072  1.00  0.00    -0.013 C 
BRANCH  27  28
HETATM   28  C3  UNL     1      44.168  46.812  39.353  1.00  0.00     0.015 C 
HETATM   29  C2  UNL     1      43.121  46.777  38.755  1.00  0.00     0.068 C 
BRANCH  29  30
HETATM   30  O1  UNL     1      41.928  46.714  38.078  1.00  0.00    -0.308 OA
HETATM   31  C1  UNL     1      41.605  47.636  37.048  1.00  0.00     0.223 C 
ENDBRANCH  29  30
ENDBRANCH  27  28
ENDBRANCH  25  26
ENDBRANCH  24  25
ENDBRANCH  23  24
ENDBRANCH  22  23
ENDBRANCH  21  22
ENDBRANCH  20  21
ENDBRANCH  19  20
ENDBRANCH  18  19
ENDBRANCH  17  18
ENDBRANCH  14  17
ENDBRANCH   1  13
BRANCH  12  32
HETATM   32  O5  UNL     1      47.775  45.159  49.440  1.00  0.00    -0.391 OA
ATOM     33  H5  UNL     1      48.166  44.639  50.133  1.00  0.00     0.210 HD
ENDBRANCH  12  32
BRANCH  11  34
HETATM   34  O4  UNL     1      46.620  42.139  47.944  1.00  0.00    -0.391 OA
ATOM     35  H4  UNL     1      47.172  42.008  47.181  1.00  0.00     0.210 HD
ENDBRANCH  11  34
BRANCH   6  36
HETATM   36  C22 UNL     1      45.183  40.128  52.112  1.00  0.00     0.011 C 
HETATM   37  C23 UNL     1      44.072  39.437  52.284  1.00  0.00     0.069 C 
BRANCH  37  38
HETATM   38  C24 UNL     1      44.095  38.081  52.800  1.00  0.00     0.254 C 
HETATM   39  N2  UNL     1      43.081  37.179  52.395  1.00  0.00    -0.058 NA
HETATM   40  O3  UNL     1      44.973  37.664  53.594  1.00  0.00    -0.272 OA
ENDBRANCH  37  38
ENDBRANCH   6  36
TORSDOF 17
ENDMDL
