MODEL 1
REMARK VINA RESULT: -8.267709221      0.000      0.000
REMARK  15 active torsions:
REMARK  status: ('A' for Active; 'I' for Inactive)
REMARK    1  A    between atoms: C7_7  and  C8_8 
REMARK    2  A    between atoms: C8_8  and  C19_28 
REMARK       I    between atoms: N1_9  and  C9_11 
REMARK    3  A    between atoms: C9_11  and  C10_13 
REMARK    4  A    between atoms: C10_13  and  C11_14 
REMARK    5  A    between atoms: C11_14  and  C12_15 
REMARK    6  A    between atoms: C12_15  and  C13_16 
REMARK    7  A    between atoms: C13_16  and  C14_17 
REMARK    8  A    between atoms: C19_28  and  O3_29 
REMARK    9  A    between atoms: C19_28  and  N4_31 
REMARK   10  A    between atoms: N4_31  and  C20_32 
REMARK   11  A    between atoms: C20_32  and  C21_33 
REMARK   12  A    between atoms: C21_33  and  C22_34 
REMARK   13  A    between atoms: C22_34  and  C23_35 
REMARK   14  A    between atoms: C23_35  and  C24_36 
REMARK   15  A    between atoms: C24_36  and  N5_37 
ROOT
HETATM    1  C8  UNL     1      44.923  51.258  39.121  1.00  0.00     0.082 C 
HETATM    2  N1  UNL     1      44.246  50.313  39.524  1.00  0.00    -0.326 N 
ATOM      3  H1  UNL     1      44.209  50.328  40.543  1.00  0.00     0.168 HD
HETATM    4  C9  UNL     1      43.526  49.248  39.053  1.00  0.00     0.222 C 
HETATM    5  O1  UNL     1      42.243  49.272  39.210  1.00  0.00    -0.273 OA
ENDROOT
BRANCH   1   6
HETATM    6  C7  UNL     1      45.560  52.235  40.106  1.00  0.00     0.045 C 
HETATM    7  C2  UNL     1      45.202  53.643  39.722  1.00  0.00    -0.009 C 
HETATM    8  C1  UNL     1      46.238  54.675  40.048  1.00  0.00     0.011 C 
HETATM    9  C3  UNL     1      43.884  54.041  40.403  1.00  0.00     0.005 C 
HETATM   10  C4  UNL     1      44.051  54.019  41.898  1.00  0.00     0.000 C 
HETATM   11  C5  UNL     1      45.108  53.072  42.386  1.00  0.00     0.001 C 
HETATM   12  C6  UNL     1      45.136  51.859  41.501  1.00  0.00     0.011 C 
ENDBRANCH   1   6
BRANCH   1  13
HETATM   13  C19 UNL     1      45.118  51.571  37.685  1.00  0.00     0.232 C 
BRANCH  13  14
HETATM   14  O3  UNL     1      46.380  51.825  37.445  1.00  0.00    -0.334 OA
ATOM     15  H3  UNL     1      46.929  51.149  37.826  1.00  0.00     0.220 HD
ENDBRANCH  13  14
BRANCH  13  16
HETATM   16  N4  UNL     1      44.121  51.585  36.823  1.00  0.00    -0.423 NA
BRANCH  16  17
HETATM   17  C20 UNL     1      43.079  51.601  35.922  1.00  0.00     0.221 C 
BRANCH  17  18
HETATM   18  C21 UNL     1      42.471  50.204  35.738  1.00  0.00     0.033 C 
BRANCH  18  19
HETATM   19  C22 UNL     1      40.977  50.266  35.792  1.00  0.00     0.004 C 
BRANCH  19  20
HETATM   20  C23 UNL     1      40.428  51.573  36.239  1.00  0.00     0.027 C 
BRANCH  20  21
HETATM   21  C24 UNL     1      39.353  52.001  35.236  1.00  0.00     0.229 C 
BRANCH  21  22
HETATM   22  N5  UNL     1      39.077  50.826  34.419  1.00  0.00    -0.079 N 
ATOM     23  H53 UNL     1      39.654  50.767  33.580  1.00  0.00     0.274 HD
ATOM     24  H52 UNL     1      39.388  49.952  34.844  1.00  0.00     0.274 HD
ATOM     25  H51 UNL     1      38.076  50.850  34.223  1.00  0.00     0.274 HD
ENDBRANCH  21  22
ENDBRANCH  20  21
ENDBRANCH  19  20
ENDBRANCH  18  19
ENDBRANCH  17  18
ENDBRANCH  16  17
ENDBRANCH  13  16
ENDBRANCH   1  13
BRANCH   4  26
HETATM   26  C10 UNL     1      44.075  48.066  38.380  1.00  0.00     0.103 C 
BRANCH  26  27
HETATM   27  C11 UNL     1      45.587  48.206  38.394  1.00  0.00     0.009 C 
BRANCH  27  28
HETATM   28  C12 UNL     1      46.298  47.378  39.385  1.00  0.00     0.002 C 
BRANCH  28  29
HETATM   29  C13 UNL     1      46.505  47.903  40.748  1.00  0.00     0.017 C 
BRANCH  29  30
HETATM   30  C14 UNL     1      46.205  46.993  41.888  1.00  0.00     0.072 C 
HETATM   31  S1  UNL     1      44.410  46.586  41.729  1.00  0.00    -0.160 SA
HETATM   32  C15 UNL     1      43.858  48.207  42.399  1.00  0.00     0.101 C 
HETATM   33  C16 UNL     1      44.945  48.489  43.374  1.00  0.00     0.119 C 
HETATM   34  N2  UNL     1      44.463  48.061  44.701  1.00  0.00    -0.336 N 
HETATM   35  C18 UNL     1      46.169  47.764  43.166  1.00  0.00     0.123 C 
HETATM   36  C17 UNL     1      45.182  46.909  45.099  1.00  0.00     0.316 C 
ATOM     37  H2  UNL     1      43.732  48.521  45.243  1.00  0.00     0.164 HD
HETATM   38  O2  UNL     1      44.809  46.104  45.996  1.00  0.00    -0.247 OA
HETATM   39  N3  UNL     1      46.357  46.874  44.295  1.00  0.00    -0.335 N 
ATOM     40  H3  UNL     1      47.191  46.317  44.482  1.00  0.00     0.164 HD
ENDBRANCH  29  30
ENDBRANCH  28  29
ENDBRANCH  27  28
ENDBRANCH  26  27
ENDBRANCH   4  26
TORSDOF 15
ENDMDL
MODEL 2
REMARK VINA RESULT: -8.243243922      1.422      1.840
REMARK  15 active torsions:
REMARK  status: ('A' for Active; 'I' for Inactive)
REMARK    1  A    between atoms: C7_7  and  C8_8 
REMARK    2  A    between atoms: C8_8  and  C19_28 
REMARK       I    between atoms: N1_9  and  C9_11 
REMARK    3  A    between atoms: C9_11  and  C10_13 
REMARK    4  A    between atoms: C10_13  and  C11_14 
REMARK    5  A    between atoms: C11_14  and  C12_15 
REMARK    6  A    between atoms: C12_15  and  C13_16 
REMARK    7  A    between atoms: C13_16  and  C14_17 
REMARK    8  A    between atoms: C19_28  and  O3_29 
REMARK    9  A    between atoms: C19_28  and  N4_31 
REMARK   10  A    between atoms: N4_31  and  C20_32 
REMARK   11  A    between atoms: C20_32  and  C21_33 
REMARK   12  A    between atoms: C21_33  and  C22_34 
REMARK   13  A    between atoms: C22_34  and  C23_35 
REMARK   14  A    between atoms: C23_35  and  C24_36 
REMARK   15  A    between atoms: C24_36  and  N5_37 
ROOT
HETATM    1  C8  UNL     1      45.054  51.273  39.149  1.00  0.00     0.082 C 
HETATM    2  N1  UNL     1      44.444  50.310  39.613  1.00  0.00    -0.326 N 
ATOM      3  H1  UNL     1      44.437  50.368  40.631  1.00  0.00     0.168 HD
HETATM    4  C9  UNL     1      43.774  49.187  39.211  1.00  0.00     0.222 C 
HETATM    5  O1  UNL     1      42.496  49.145  39.408  1.00  0.00    -0.273 OA
ENDROOT
BRANCH   1   6
HETATM    6  C7  UNL     1      45.662  52.327  40.070  1.00  0.00     0.045 C 
HETATM    7  C2  UNL     1      45.220  53.695  39.633  1.00  0.00    -0.009 C 
HETATM    8  C1  UNL     1      46.207  54.793  39.883  1.00  0.00     0.011 C 
HETATM    9  C3  UNL     1      43.900  54.055  40.331  1.00  0.00     0.005 C 
HETATM   10  C4  UNL     1      44.105  54.111  41.820  1.00  0.00     0.000 C 
HETATM   11  C5  UNL     1      45.224  53.245  42.322  1.00  0.00     0.001 C 
HETATM   12  C6  UNL     1      45.294  51.995  41.492  1.00  0.00     0.011 C 
ENDBRANCH   1   6
BRANCH   1  13
HETATM   13  C19 UNL     1      45.188  51.532  37.695  1.00  0.00     0.232 C 
BRANCH  13  14
HETATM   14  O3  UNL     1      46.441  51.758  37.390  1.00  0.00    -0.334 OA
ATOM     15  H3  UNL     1      46.559  52.668  37.143  1.00  0.00     0.220 HD
ENDBRANCH  13  14
BRANCH  13  16
HETATM   16  N4  UNL     1      44.153  51.531  36.879  1.00  0.00    -0.423 NA
BRANCH  16  17
HETATM   17  C20 UNL     1      43.072  51.532  36.025  1.00  0.00     0.221 C 
BRANCH  17  18
HETATM   18  C21 UNL     1      41.749  51.387  36.790  1.00  0.00     0.033 C 
BRANCH  18  19
HETATM   19  C22 UNL     1      40.676  50.852  35.896  1.00  0.00     0.004 C 
BRANCH  19  20
HETATM   20  C23 UNL     1      40.910  49.467  35.409  1.00  0.00     0.027 C 
BRANCH  20  21
HETATM   21  C24 UNL     1      39.701  49.052  34.566  1.00  0.00     0.229 C 
BRANCH  21  22
HETATM   22  N5  UNL     1      39.135  50.288  34.043  1.00  0.00    -0.079 N 
ATOM     23  H53 UNL     1      38.125  50.249  33.907  1.00  0.00     0.274 HD
ATOM     24  H52 UNL     1      39.137  51.055  34.717  1.00  0.00     0.274 HD
ATOM     25  H51 UNL     1      39.653  50.494  33.189  1.00  0.00     0.274 HD
ENDBRANCH  21  22
ENDBRANCH  20  21
ENDBRANCH  19  20
ENDBRANCH  18  19
ENDBRANCH  17  18
ENDBRANCH  16  17
ENDBRANCH  13  16
ENDBRANCH   1  13
BRANCH   4  26
HETATM   26  C10 UNL     1      44.369  48.008  38.572  1.00  0.00     0.103 C 
BRANCH  26  27
HETATM   27  C11 UNL     1      43.852  46.789  39.314  1.00  0.00     0.009 C 
BRANCH  27  28
HETATM   28  C12 UNL     1      44.797  46.165  40.259  1.00  0.00     0.002 C 
BRANCH  28  29
HETATM   29  C13 UNL     1      44.682  46.464  41.698  1.00  0.00     0.017 C 
BRANCH  29  30
HETATM   30  C14 UNL     1      45.094  47.821  42.153  1.00  0.00     0.072 C 
HETATM   31  S1  UNL     1      46.747  47.590  42.945  1.00  0.00    -0.160 SA
HETATM   32  C15 UNL     1      46.043  46.884  44.490  1.00  0.00     0.101 C 
HETATM   33  C16 UNL     1      44.761  47.633  44.579  1.00  0.00     0.119 C 
HETATM   34  N2  UNL     1      44.981  48.766  45.497  1.00  0.00    -0.336 N 
HETATM   35  C18 UNL     1      44.302  48.224  43.352  1.00  0.00     0.123 C 
HETATM   36  C17 UNL     1      44.973  49.968  44.749  1.00  0.00     0.316 C 
ATOM     37  H2  UNL     1      45.117  48.696  46.505  1.00  0.00     0.164 HD
HETATM   38  O2  UNL     1      45.453  51.065  45.147  1.00  0.00    -0.247 OA
HETATM   39  N3  UNL     1      44.333  49.665  43.513  1.00  0.00    -0.335 N 
ATOM     40  H3  UNL     1      43.959  50.346  42.853  1.00  0.00     0.164 HD
ENDBRANCH  29  30
ENDBRANCH  28  29
ENDBRANCH  27  28
ENDBRANCH  26  27
ENDBRANCH   4  26
TORSDOF 15
ENDMDL
MODEL 3
REMARK VINA RESULT: -8.232042810     11.530     15.452
REMARK  15 active torsions:
REMARK  status: ('A' for Active; 'I' for Inactive)
REMARK    1  A    between atoms: C7_7  and  C8_8 
REMARK    2  A    between atoms: C8_8  and  C19_28 
REMARK       I    between atoms: N1_9  and  C9_11 
REMARK    3  A    between atoms: C9_11  and  C10_13 
REMARK    4  A    between atoms: C10_13  and  C11_14 
REMARK    5  A    between atoms: C11_14  and  C12_15 
REMARK    6  A    between atoms: C12_15  and  C13_16 
REMARK    7  A    between atoms: C13_16  and  C14_17 
REMARK    8  A    between atoms: C19_28  and  O3_29 
REMARK    9  A    between atoms: C19_28  and  N4_31 
REMARK   10  A    between atoms: N4_31  and  C20_32 
REMARK   11  A    between atoms: C20_32  and  C21_33 
REMARK   12  A    between atoms: C21_33  and  C22_34 
REMARK   13  A    between atoms: C22_34  and  C23_35 
REMARK   14  A    between atoms: C23_35  and  C24_36 
REMARK   15  A    between atoms: C24_36  and  N5_37 
ROOT
HETATM    1  C8  UNL     1      44.812  41.901  49.417  1.00  0.00     0.082 C 
HETATM    2  N1  UNL     1      45.394  42.362  48.434  1.00  0.00    -0.326 N 
ATOM      3  H1  UNL     1      45.542  41.623  47.747  1.00  0.00     0.168 HD
HETATM    4  C9  UNL     1      45.907  43.539  47.962  1.00  0.00     0.222 C 
HETATM    5  O1  UNL     1      45.323  44.086  46.946  1.00  0.00    -0.273 OA
ENDROOT
BRANCH   1   6
HETATM    6  C7  UNL     1      44.427  40.426  49.472  1.00  0.00     0.045 C 
HETATM    7  C2  UNL     1      45.656  39.577  49.306  1.00  0.00    -0.009 C 
HETATM    8  C1  UNL     1      45.434  38.262  48.623  1.00  0.00     0.011 C 
HETATM    9  C3  UNL     1      46.288  39.315  50.681  1.00  0.00     0.005 C 
HETATM   10  C4  UNL     1      45.331  38.542  51.547  1.00  0.00     0.000 C 
HETATM   11  C5  UNL     1      43.884  38.751  51.206  1.00  0.00     0.001 C 
HETATM   12  C6  UNL     1      43.681  40.169  50.754  1.00  0.00     0.011 C 
ENDBRANCH   1   6
BRANCH   1  13
HETATM   13  C19 UNL     1      44.378  42.726  50.570  1.00  0.00     0.232 C 
BRANCH  13  14
HETATM   14  O3  UNL     1      43.294  43.394  50.265  1.00  0.00    -0.334 OA
ATOM     15  H3  UNL     1      43.215  44.162  50.819  1.00  0.00     0.220 HD
ENDBRANCH  13  14
BRANCH  13  16
HETATM   16  N4  UNL     1      45.037  42.748  51.711  1.00  0.00    -0.423 NA
BRANCH  16  17
HETATM   17  C20 UNL     1      45.727  42.773  52.904  1.00  0.00     0.221 C 
BRANCH  17  18
HETATM   18  C21 UNL     1      45.528  41.474  53.697  1.00  0.00     0.033 C 
BRANCH  18  19
HETATM   19  C22 UNL     1      44.314  41.566  54.567  1.00  0.00     0.004 C 
BRANCH  19  20
HETATM   20  C23 UNL     1      44.373  42.632  55.601  1.00  0.00     0.027 C 
BRANCH  20  21
HETATM   21  C24 UNL     1      44.526  41.958  56.967  1.00  0.00     0.229 C 
BRANCH  21  22
HETATM   22  N5  UNL     1      43.964  40.622  56.818  1.00  0.00    -0.079 N 
ATOM     23  H53 UNL     1      44.403  40.074  56.078  1.00  0.00     0.274 HD
ATOM     24  H52 UNL     1      44.195  39.993  57.588  1.00  0.00     0.274 HD
ATOM     25  H51 UNL     1      42.961  40.753  56.687  1.00  0.00     0.274 HD
ENDBRANCH  21  22
ENDBRANCH  20  21
ENDBRANCH  19  20
ENDBRANCH  18  19
ENDBRANCH  17  18
ENDBRANCH  16  17
ENDBRANCH  13  16
ENDBRANCH   1  13
BRANCH   4  26
HETATM   26  C10 UNL     1      47.070  44.252  48.502  1.00  0.00     0.103 C 
BRANCH  26  27
HETATM   27  C11 UNL     1      47.906  43.233  49.257  1.00  0.00     0.009 C 
BRANCH  27  28
HETATM   28  C12 UNL     1      48.436  43.679  50.560  1.00  0.00     0.002 C 
BRANCH  28  29
HETATM   29  C13 UNL     1      48.586  45.122  50.822  1.00  0.00     0.017 C 
BRANCH  29  30
HETATM   30  C14 UNL     1      49.525  45.530  51.903  1.00  0.00     0.072 C 
HETATM   31  S1  UNL     1      48.858  44.764  53.446  1.00  0.00    -0.160 SA
HETATM   32  C15 UNL     1      47.521  46.012  53.633  1.00  0.00     0.101 C 
HETATM   33  C16 UNL     1      48.190  47.221  53.083  1.00  0.00     0.119 C 
HETATM   34  N2  UNL     1      48.718  47.986  54.228  1.00  0.00    -0.336 N 
HETATM   35  C18 UNL     1      49.327  46.971  52.240  1.00  0.00     0.123 C 
HETATM   36  C17 UNL     1      50.131  47.900  54.224  1.00  0.00     0.316 C 
ATOM     37  H2  UNL     1      48.157  48.494  54.912  1.00  0.00     0.164 HD
HETATM   38  O2  UNL     1      50.869  48.143  55.217  1.00  0.00    -0.247 OA
HETATM   39  N3  UNL     1      50.502  47.497  52.909  1.00  0.00    -0.335 N 
ATOM     40  H3  UNL     1      51.436  47.566  52.505  1.00  0.00     0.164 HD
ENDBRANCH  29  30
ENDBRANCH  28  29
ENDBRANCH  27  28
ENDBRANCH  26  27
ENDBRANCH   4  26
TORSDOF 15
ENDMDL
MODEL 4
REMARK VINA RESULT: -8.113915028      2.785      8.243
REMARK  15 active torsions:
REMARK  status: ('A' for Active; 'I' for Inactive)
REMARK    1  A    between atoms: C7_7  and  C8_8 
REMARK    2  A    between atoms: C8_8  and  C19_28 
REMARK       I    between atoms: N1_9  and  C9_11 
REMARK    3  A    between atoms: C9_11  and  C10_13 
REMARK    4  A    between atoms: C10_13  and  C11_14 
REMARK    5  A    between atoms: C11_14  and  C12_15 
REMARK    6  A    between atoms: C12_15  and  C13_16 
REMARK    7  A    between atoms: C13_16  and  C14_17 
REMARK    8  A    between atoms: C19_28  and  O3_29 
REMARK    9  A    between atoms: C19_28  and  N4_31 
REMARK   10  A    between atoms: N4_31  and  C20_32 
REMARK   11  A    between atoms: C20_32  and  C21_33 
REMARK   12  A    between atoms: C21_33  and  C22_34 
REMARK   13  A    between atoms: C22_34  and  C23_35 
REMARK   14  A    between atoms: C23_35  and  C24_36 
REMARK   15  A    between atoms: C24_36  and  N5_37 
ROOT
HETATM    1  C8  UNL     1      45.917  48.422  41.972  1.00  0.00     0.082 C 
HETATM    2  N1  UNL     1      46.484  47.975  40.974  1.00  0.00    -0.326 N 
ATOM      3  H1  UNL     1      46.985  48.725  40.500  1.00  0.00     0.168 HD
HETATM    4  C9  UNL     1      46.662  46.801  40.294  1.00  0.00     0.222 C 
HETATM    5  O1  UNL     1      47.846  46.283  40.287  1.00  0.00    -0.273 OA
ENDROOT
BRANCH   1   6
HETATM    6  C7  UNL     1      46.028  49.901  42.331  1.00  0.00     0.045 C 
HETATM    7  C2  UNL     1      46.758  50.632  41.241  1.00  0.00    -0.009 C 
HETATM    8  C1  UNL     1      47.572  51.806  41.696  1.00  0.00     0.011 C 
HETATM    9  C3  UNL     1      45.753  51.113  40.184  1.00  0.00     0.005 C 
HETATM   10  C4  UNL     1      44.787  52.088  40.799  1.00  0.00     0.000 C 
HETATM   11  C5  UNL     1      44.577  51.900  42.274  1.00  0.00     0.001 C 
HETATM   12  C6  UNL     1      44.647  50.436  42.603  1.00  0.00     0.011 C 
ENDBRANCH   1   6
BRANCH   1  13
HETATM   13  C19 UNL     1      45.159  47.579  42.928  1.00  0.00     0.232 C 
BRANCH  13  14
HETATM   14  O3  UNL     1      44.052  47.153  42.374  1.00  0.00    -0.334 OA
ATOM     15  H3  UNL     1      44.192  46.302  41.975  1.00  0.00     0.220 HD
ENDBRANCH  13  14
BRANCH  13  16
HETATM   16  N4  UNL     1      45.586  47.340  44.151  1.00  0.00    -0.423 NA
BRANCH  16  17
HETATM   17  C20 UNL     1      46.033  47.089  45.430  1.00  0.00     0.221 C 
BRANCH  17  18
HETATM   18  C21 UNL     1      44.993  46.313  46.249  1.00  0.00     0.033 C 
BRANCH  18  19
HETATM   19  C22 UNL     1      45.645  45.599  47.391  1.00  0.00     0.004 C 
BRANCH  19  20
HETATM   20  C23 UNL     1      44.725  44.763  48.205  1.00  0.00     0.027 C 
BRANCH  20  21
HETATM   21  C24 UNL     1      45.431  43.438  48.506  1.00  0.00     0.229 C 
BRANCH  21  22
HETATM   22  N5  UNL     1      46.102  43.053  47.271  1.00  0.00    -0.079 N 
ATOM     23  H53 UNL     1      45.736  42.196  46.857  1.00  0.00     0.274 HD
ATOM     24  H52 UNL     1      45.893  43.668  46.484  1.00  0.00     0.274 HD
ATOM     25  H51 UNL     1      47.096  43.004  47.496  1.00  0.00     0.274 HD
ENDBRANCH  21  22
ENDBRANCH  20  21
ENDBRANCH  19  20
ENDBRANCH  18  19
ENDBRANCH  17  18
ENDBRANCH  16  17
ENDBRANCH  13  16
ENDBRANCH   1  13
BRANCH   4  26
HETATM   26  C10 UNL     1      45.628  46.063  39.561  1.00  0.00     0.103 C 
BRANCH  26  27
HETATM   27  C11 UNL     1      44.989  47.038  38.588  1.00  0.00     0.009 C 
BRANCH  27  28
HETATM   28  C12 UNL     1      43.593  47.414  38.881  1.00  0.00     0.002 C 
BRANCH  28  29
HETATM   29  C13 UNL     1      43.257  48.835  39.086  1.00  0.00     0.017 C 
BRANCH  29  30
HETATM   30  C14 UNL     1      41.985  49.334  38.493  1.00  0.00     0.072 C 
HETATM   31  S1  UNL     1      41.717  48.310  36.979  1.00  0.00    -0.160 SA
HETATM   32  C15 UNL     1      42.966  49.228  35.990  1.00  0.00     0.101 C 
HETATM   33  C16 UNL     1      42.821  50.595  36.558  1.00  0.00     0.119 C 
HETATM   34  N2  UNL     1      41.927  51.348  35.660  1.00  0.00    -0.336 N 
HETATM   35  C18 UNL     1      42.202  50.665  37.854  1.00  0.00     0.123 C 
HETATM   36  C17 UNL     1      40.692  51.562  36.318  1.00  0.00     0.316 C 
ATOM     37  H2  UNL     1      42.160  51.664  34.719  1.00  0.00     0.164 HD
HETATM   38  O2  UNL     1      39.612  51.865  35.740  1.00  0.00    -0.247 OA
HETATM   39  N3  UNL     1      40.940  51.364  37.707  1.00  0.00    -0.335 N 
ATOM     40  H3  UNL     1      40.333  51.663  38.470  1.00  0.00     0.164 HD
ENDBRANCH  29  30
ENDBRANCH  28  29
ENDBRANCH  27  28
ENDBRANCH  26  27
ENDBRANCH   4  26
TORSDOF 15
ENDMDL
MODEL 5
REMARK VINA RESULT: -8.035332586      4.672      8.322
REMARK  15 active torsions:
REMARK  status: ('A' for Active; 'I' for Inactive)
REMARK    1  A    between atoms: C7_7  and  C8_8 
REMARK    2  A    between atoms: C8_8  and  C19_28 
REMARK       I    between atoms: N1_9  and  C9_11 
REMARK    3  A    between atoms: C9_11  and  C10_13 
REMARK    4  A    between atoms: C10_13  and  C11_14 
REMARK    5  A    between atoms: C11_14  and  C12_15 
REMARK    6  A    between atoms: C12_15  and  C13_16 
REMARK    7  A    between atoms: C13_16  and  C14_17 
REMARK    8  A    between atoms: C19_28  and  O3_29 
REMARK    9  A    between atoms: C19_28  and  N4_31 
REMARK   10  A    between atoms: N4_31  and  C20_32 
REMARK   11  A    between atoms: C20_32  and  C21_33 
REMARK   12  A    between atoms: C21_33  and  C22_34 
REMARK   13  A    between atoms: C22_34  and  C23_35 
REMARK   14  A    between atoms: C23_35  and  C24_36 
REMARK   15  A    between atoms: C24_36  and  N5_37 
ROOT
HETATM    1  C8  UNL     1      44.866  47.953  43.190  1.00  0.00     0.082 C 
HETATM    2  N1  UNL     1      45.466  47.100  43.842  1.00  0.00    -0.326 N 
ATOM      3  H1  UNL     1      45.830  46.383  43.215  1.00  0.00     0.168 HD
HETATM    4  C9  UNL     1      45.806  46.797  45.133  1.00  0.00     0.222 C 
HETATM    5  O1  UNL     1      47.056  46.859  45.457  1.00  0.00    -0.273 OA
ENDROOT
BRANCH   1   6
HETATM    6  C7  UNL     1      44.754  47.837  41.672  1.00  0.00     0.045 C 
HETATM    7  C2  UNL     1      45.869  48.608  41.024  1.00  0.00    -0.009 C 
HETATM    8  C1  UNL     1      45.537  49.209  39.692  1.00  0.00     0.011 C 
HETATM    9  C3  UNL     1      47.094  47.697  40.859  1.00  0.00     0.005 C 
HETATM   10  C4  UNL     1      46.761  46.549  39.945  1.00  0.00     0.000 C 
HETATM   11  C5  UNL     1      45.307  46.175  39.929  1.00  0.00     0.001 C 
HETATM   12  C6  UNL     1      44.728  46.378  41.300  1.00  0.00     0.011 C 
ENDBRANCH   1   6
BRANCH   1  13
HETATM   13  C19 UNL     1      44.276  49.175  43.789  1.00  0.00     0.232 C 
BRANCH  13  14
HETATM   14  O3  UNL     1      43.116  48.897  44.330  1.00  0.00    -0.334 OA
ATOM     15  H3  UNL     1      42.864  49.585  44.935  1.00  0.00     0.220 HD
ENDBRANCH  13  14
BRANCH  13  16
HETATM   16  N4  UNL     1      44.877  50.347  43.741  1.00  0.00    -0.423 NA
BRANCH  16  17
HETATM   17  C20 UNL     1      45.505  51.572  43.692  1.00  0.00     0.221 C 
BRANCH  17  18
HETATM   18  C21 UNL     1      44.826  52.514  42.689  1.00  0.00     0.033 C 
BRANCH  18  19
HETATM   19  C22 UNL     1      44.001  53.540  43.401  1.00  0.00     0.004 C 
BRANCH  19  20
HETATM   20  C23 UNL     1      44.385  53.767  44.818  1.00  0.00     0.027 C 
BRANCH  20  21
HETATM   21  C24 UNL     1      43.151  54.279  45.565  1.00  0.00     0.229 C 
BRANCH  21  22
HETATM   22  N5  UNL     1      43.620  54.679  46.886  1.00  0.00    -0.079 N 
ATOM     23  H53 UNL     1      43.906  53.894  47.472  1.00  0.00     0.274 HD
ATOM     24  H52 UNL     1      44.522  55.156  46.871  1.00  0.00     0.274 HD
ATOM     25  H51 UNL     1      42.870  55.238  47.292  1.00  0.00     0.274 HD
ENDBRANCH  21  22
ENDBRANCH  20  21
ENDBRANCH  19  20
ENDBRANCH  18  19
ENDBRANCH  17  18
ENDBRANCH  16  17
ENDBRANCH  13  16
ENDBRANCH   1  13
BRANCH   4  26
HETATM   26  C10 UNL     1      44.878  46.403  46.199  1.00  0.00     0.103 C 
BRANCH  26  27
HETATM   27  C11 UNL     1      45.689  45.649  47.239  1.00  0.00     0.009 C 
BRANCH  27  28
HETATM   28  C12 UNL     1      44.920  45.080  48.361  1.00  0.00     0.002 C 
BRANCH  28  29
HETATM   29  C13 UNL     1      45.632  44.652  49.579  1.00  0.00     0.017 C 
BRANCH  29  30
HETATM   30  C14 UNL     1      45.000  43.588  50.407  1.00  0.00     0.072 C 
HETATM   31  S1  UNL     1      46.391  42.502  50.954  1.00  0.00    -0.160 SA
HETATM   32  C15 UNL     1      46.535  41.661  49.326  1.00  0.00     0.101 C 
HETATM   33  C16 UNL     1      45.115  41.664  48.884  1.00  0.00     0.119 C 
HETATM   34  N2  UNL     1      44.547  40.348  49.230  1.00  0.00    -0.336 N 
HETATM   35  C18 UNL     1      44.266  42.624  49.535  1.00  0.00     0.123 C 
HETATM   36  C17 UNL     1      43.624  40.512  50.290  1.00  0.00     0.316 C 
ATOM     37  H2  UNL     1      44.782  39.464  48.779  1.00  0.00     0.164 HD
HETATM   38  O2  UNL     1      43.217  39.582  51.040  1.00  0.00    -0.247 OA
HETATM   39  N3  UNL     1      43.281  41.894  50.310  1.00  0.00    -0.335 N 
ATOM     40  H3  UNL     1      42.478  42.303  50.788  1.00  0.00     0.164 HD
ENDBRANCH  29  30
ENDBRANCH  28  29
ENDBRANCH  27  28
ENDBRANCH  26  27
ENDBRANCH   4  26
TORSDOF 15
ENDMDL
