MODEL 1
REMARK VINA RESULT: -8.975455169      0.000      0.000
REMARK  14 active torsions:
REMARK  status: ('A' for Active; 'I' for Inactive)
REMARK    1  A    between atoms: C2_2  and  C3_3 
REMARK    2  A    between atoms: C3_3  and  C4_4 
REMARK    3  A    between atoms: C4_4  and  C5_5 
REMARK    4  A    between atoms: C7_10  and  C8_11 
REMARK    5  A    between atoms: C8_11  and  C9_12 
REMARK    6  A    between atoms: C13_16  and  O2_17 
REMARK    7  A    between atoms: C15_20  and  C16_21 
REMARK    8  A    between atoms: C19_24  and  C20_25 
REMARK    9  A    between atoms: C20_25  and  C21_26 
REMARK   10  A    between atoms: C21_26  and  C22_27 
REMARK   11  A    between atoms: C22_27  and  C23_28 
REMARK   12  A    between atoms: C23_28  and  N2_29 
REMARK   13  A    between atoms: N2_29  and  C24_31 
REMARK   14  A    between atoms: C26_38  and  O3_39 
ROOT
HETATM    1  C5  UNL     1      44.197  50.081  38.504  1.00  0.00     0.177 C 
HETATM    2  N1  UNL     1      43.475  50.174  39.717  1.00  0.00    -0.344 N 
ATOM      3  H1  UNL     1      42.686  50.818  39.671  1.00  0.00     0.163 HD
HETATM    4  C6  UNL     1      43.622  49.562  40.969  1.00  0.00     0.246 C 
HETATM    5  O1  UNL     1      42.530  49.072  41.436  1.00  0.00    -0.268 OA
HETATM    6  C7  UNL     1      44.871  49.425  41.804  1.00  0.00     0.014 C 
HETATM    7  C19 UNL     1      45.589  48.201  41.686  1.00  0.00     0.118 C 
HETATM    8  N4  UNL     1      45.064  47.017  41.038  1.00  0.00    -0.361 N 
ATOM      9  H4  UNL     1      45.679  46.228  41.240  1.00  0.00     0.162 HD
HETATM   10  C26 UNL     1      44.042  46.589  40.257  1.00  0.00     0.159 C 
HETATM   11  C27 UNL     1      43.675  46.700  38.821  1.00  0.00     0.059 C 
HETATM   12  C28 UNL     1      42.171  46.826  38.609  1.00  0.00     0.072 C 
HETATM   13  N5  UNL     1      44.466  47.550  38.014  1.00  0.00    -0.325 N 
ATOM     14  H5  UNL     1      44.748  47.137  37.125  1.00  0.00     0.168 HD
HETATM   15  C29 UNL     1      44.933  48.849  38.210  1.00  0.00     0.244 C 
HETATM   16  O4  UNL     1      46.217  48.972  38.113  1.00  0.00    -0.271 OA
ENDROOT
BRANCH   6  17
HETATM   17  C8  UNL     1      45.522  50.795  41.836  1.00  0.00     0.082 C 
BRANCH  17  18
HETATM   18  C9  UNL     1      44.853  51.931  42.423  1.00  0.00    -0.037 A 
HETATM   19  C10 UNL     1      44.306  51.838  43.693  1.00  0.00    -0.052 A 
HETATM   20  C11 UNL     1      44.610  50.722  44.664  1.00  0.00     0.049 C 
HETATM   21  C12 UNL     1      43.504  52.870  44.180  1.00  0.00     0.043 A 
HETATM   22  C13 UNL     1      43.263  53.971  43.407  1.00  0.00     0.067 A 
HETATM   23  C14 UNL     1      43.815  54.043  42.174  1.00  0.00     0.048 A 
HETATM   24  C15 UNL     1      44.647  53.033  41.605  1.00  0.00    -0.025 A 
BRANCH  22  25
HETATM   25  O2  UNL     1      42.451  54.972  43.948  1.00  0.00    -0.361 OA
ATOM     26  H2  UNL     1      42.446  55.815  43.511  1.00  0.00     0.217 HD
ENDBRANCH  22  25
BRANCH  24  27
HETATM   27  C16 UNL     1      45.273  53.408  40.349  1.00  0.00    -0.077 C 
HETATM   28  C17 UNL     1      46.684  53.971  40.479  1.00  0.00     0.044 C 
HETATM   29  C18 UNL     1      44.616  53.684  39.082  1.00  0.00     0.044 C 
ENDBRANCH  24  27
ENDBRANCH  17  18
ENDBRANCH   6  17
BRANCH   7  30
HETATM   30  C20 UNL     1      46.154  47.707  43.043  1.00  0.00     0.030 C 
BRANCH  30  31
HETATM   31  C21 UNL     1      45.134  47.024  43.904  1.00  0.00     0.004 C 
BRANCH  31  32
HETATM   32  C22 UNL     1      45.511  47.164  45.379  1.00  0.00     0.020 C 
BRANCH  32  33
HETATM   33  C23 UNL     1      44.700  46.198  46.207  1.00  0.00     0.121 C 
BRANCH  33  34
HETATM   34  N2  UNL     1      45.580  45.364  46.990  1.00  0.00    -0.380 N 
ATOM     35  H2  UNL     1      46.554  45.654  47.071  1.00  0.00     0.160 HD
BRANCH  34  36
HETATM   36  C24 UNL     1      45.198  44.181  47.651  1.00  0.00     0.066 C 
HETATM   37  C25 UNL     1      44.341  44.150  48.856  1.00  0.00     0.088 C 
HETATM   38  N3  UNL     1      45.608  43.027  47.202  1.00  0.00    -0.389 N 
ATOM     39  H32 UNL     1      46.200  43.048  46.370  1.00  0.00     0.157 HD
ATOM     40  H31 UNL     1      45.332  42.170  47.681  1.00  0.00     0.157 HD
ENDBRANCH  34  36
ENDBRANCH  33  34
ENDBRANCH  32  33
ENDBRANCH  31  32
ENDBRANCH  30  31
ENDBRANCH   7  30
BRANCH   1  41
HETATM   41  C4  UNL     1      43.325  50.490  37.297  1.00  0.00     0.035 C 
BRANCH  41  42
HETATM   42  C3  UNL     1      41.872  50.591  37.617  1.00  0.00     0.002 C 
BRANCH  42  43
HETATM   43  C2  UNL     1      41.020  50.038  36.493  1.00  0.00    -0.004 C 
HETATM   44  C1  UNL     1      41.850  48.993  35.734  1.00  0.00     0.005 C 
ENDBRANCH  42  43
ENDBRANCH  41  42
ENDBRANCH   1  41
BRANCH  10  45
HETATM   45  O3  UNL     1      43.116  45.894  40.857  1.00  0.00    -0.345 OA
ATOM     46  H3  UNL     1      42.760  45.162  40.366  1.00  0.00     0.219 HD
ENDBRANCH  10  45
TORSDOF 14
ENDMDL
MODEL 2
REMARK VINA RESULT: -8.880682556      2.492      6.620
REMARK  14 active torsions:
REMARK  status: ('A' for Active; 'I' for Inactive)
REMARK    1  A    between atoms: C2_2  and  C3_3 
REMARK    2  A    between atoms: C3_3  and  C4_4 
REMARK    3  A    between atoms: C4_4  and  C5_5 
REMARK    4  A    between atoms: C7_10  and  C8_11 
REMARK    5  A    between atoms: C8_11  and  C9_12 
REMARK    6  A    between atoms: C13_16  and  O2_17 
REMARK    7  A    between atoms: C15_20  and  C16_21 
REMARK    8  A    between atoms: C19_24  and  C20_25 
REMARK    9  A    between atoms: C20_25  and  C21_26 
REMARK   10  A    between atoms: C21_26  and  C22_27 
REMARK   11  A    between atoms: C22_27  and  C23_28 
REMARK   12  A    between atoms: C23_28  and  N2_29 
REMARK   13  A    between atoms: N2_29  and  C24_31 
REMARK   14  A    between atoms: C26_38  and  O3_39 
ROOT
HETATM    1  C5  UNL     1      43.731  53.150  42.042  1.00  0.00     0.177 C 
HETATM    2  N1  UNL     1      44.132  53.175  40.686  1.00  0.00    -0.344 N 
ATOM      3  H1  UNL     1      43.818  54.005  40.184  1.00  0.00     0.163 HD
HETATM    4  C6  UNL     1      44.872  52.291  39.889  1.00  0.00     0.246 C 
HETATM    5  O1  UNL     1      45.800  52.863  39.208  1.00  0.00    -0.268 OA
HETATM    6  C7  UNL     1      44.705  50.799  39.740  1.00  0.00     0.014 C 
HETATM    7  C19 UNL     1      45.545  49.977  40.545  1.00  0.00     0.118 C 
HETATM    8  N4  UNL     1      46.695  50.469  41.275  1.00  0.00    -0.361 N 
ATOM      9  H4  UNL     1      47.233  49.673  41.620  1.00  0.00     0.162 HD
HETATM   10  C26 UNL     1      47.307  51.615  41.660  1.00  0.00     0.159 C 
HETATM   11  C27 UNL     1      47.070  52.661  42.690  1.00  0.00     0.059 C 
HETATM   12  C28 UNL     1      47.454  54.055  42.209  1.00  0.00     0.072 C 
HETATM   13  N5  UNL     1      45.857  52.591  43.415  1.00  0.00    -0.325 N 
ATOM     14  H5  UNL     1      45.968  52.702  44.423  1.00  0.00     0.168 HD
HETATM   15  C29 UNL     1      44.538  52.398  43.006  1.00  0.00     0.244 C 
HETATM   16  O4  UNL     1      43.946  51.400  43.575  1.00  0.00    -0.271 OA
ENDROOT
BRANCH   6  17
HETATM   17  C8  UNL     1      43.224  50.549  39.522  1.00  0.00     0.082 C 
BRANCH  17  18
HETATM   18  C9  UNL     1      42.754  49.707  38.449  1.00  0.00    -0.037 A 
HETATM   19  C10 UNL     1      42.561  50.235  37.182  1.00  0.00    -0.052 A 
HETATM   20  C11 UNL     1      43.090  51.577  36.736  1.00  0.00     0.049 C 
HETATM   21  C12 UNL     1      41.935  49.469  36.199  1.00  0.00     0.043 A 
HETATM   22  C13 UNL     1      41.517  48.199  36.486  1.00  0.00     0.067 A 
HETATM   23  C14 UNL     1      41.725  47.702  37.727  1.00  0.00     0.048 A 
HETATM   24  C15 UNL     1      42.359  48.420  38.785  1.00  0.00    -0.025 A 
BRANCH  22  25
HETATM   25  O2  UNL     1      40.896  47.479  35.462  1.00  0.00    -0.361 OA
ATOM     26  H2  UNL     1      40.887  46.533  35.535  1.00  0.00     0.217 HD
ENDBRANCH  22  25
BRANCH  24  27
HETATM   27  C16 UNL     1      42.638  47.624  39.967  1.00  0.00    -0.077 C 
HETATM   28  C17 UNL     1      42.948  46.157  39.695  1.00  0.00     0.044 C 
HETATM   29  C18 UNL     1      42.282  47.931  41.343  1.00  0.00     0.044 C 
ENDBRANCH  24  27
ENDBRANCH  17  18
ENDBRANCH   6  17
BRANCH   7  30
HETATM   30  C20 UNL     1      46.046  48.718  39.792  1.00  0.00     0.030 C 
BRANCH  30  31
HETATM   31  C21 UNL     1      46.984  47.871  40.600  1.00  0.00     0.004 C 
BRANCH  31  32
HETATM   32  C22 UNL     1      46.194  46.889  41.466  1.00  0.00     0.020 C 
BRANCH  32  33
HETATM   33  C23 UNL     1      46.289  47.297  42.915  1.00  0.00     0.121 C 
BRANCH  33  34
HETATM   34  N2  UNL     1      45.003  47.142  43.554  1.00  0.00    -0.380 N 
ATOM     35  H2  UNL     1      44.236  46.783  42.985  1.00  0.00     0.160 HD
BRANCH  34  36
HETATM   36  C24 UNL     1      44.725  47.448  44.899  1.00  0.00     0.066 C 
HETATM   37  C25 UNL     1      44.889  46.488  46.013  1.00  0.00     0.088 C 
HETATM   38  N3  UNL     1      44.296  48.639  45.218  1.00  0.00    -0.389 N 
ATOM     39  H32 UNL     1      44.183  49.301  44.450  1.00  0.00     0.157 HD
ATOM     40  H31 UNL     1      44.094  48.860  46.193  1.00  0.00     0.157 HD
ENDBRANCH  34  36
ENDBRANCH  33  34
ENDBRANCH  32  33
ENDBRANCH  31  32
ENDBRANCH  30  31
ENDBRANCH   7  30
BRANCH   1  41
HETATM   41  C4  UNL     1      43.444  54.573  42.570  1.00  0.00     0.035 C 
BRANCH  41  42
HETATM   42  C3  UNL     1      43.554  54.691  44.053  1.00  0.00     0.002 C 
BRANCH  42  43
HETATM   43  C2  UNL     1      42.262  54.292  44.735  1.00  0.00    -0.004 C 
HETATM   44  C1  UNL     1      41.892  55.392  45.739  1.00  0.00     0.005 C 
ENDBRANCH  42  43
ENDBRANCH  41  42
ENDBRANCH   1  41
BRANCH  10  45
HETATM   45  O3  UNL     1      48.388  51.935  41.003  1.00  0.00    -0.345 OA
ATOM     46  H3  UNL     1      48.378  52.782  40.572  1.00  0.00     0.219 HD
ENDBRANCH  10  45
TORSDOF 14
ENDMDL
MODEL 3
REMARK VINA RESULT: -8.769408278      3.129      5.768
REMARK  14 active torsions:
REMARK  status: ('A' for Active; 'I' for Inactive)
REMARK    1  A    between atoms: C2_2  and  C3_3 
REMARK    2  A    between atoms: C3_3  and  C4_4 
REMARK    3  A    between atoms: C4_4  and  C5_5 
REMARK    4  A    between atoms: C7_10  and  C8_11 
REMARK    5  A    between atoms: C8_11  and  C9_12 
REMARK    6  A    between atoms: C13_16  and  O2_17 
REMARK    7  A    between atoms: C15_20  and  C16_21 
REMARK    8  A    between atoms: C19_24  and  C20_25 
REMARK    9  A    between atoms: C20_25  and  C21_26 
REMARK   10  A    between atoms: C21_26  and  C22_27 
REMARK   11  A    between atoms: C22_27  and  C23_28 
REMARK   12  A    between atoms: C23_28  and  N2_29 
REMARK   13  A    between atoms: N2_29  and  C24_31 
REMARK   14  A    between atoms: C26_38  and  O3_39 
ROOT
HETATM    1  C5  UNL     1      44.224  52.625  39.719  1.00  0.00     0.177 C 
HETATM    2  N1  UNL     1      43.577  51.522  40.325  1.00  0.00    -0.344 N 
ATOM      3  H1  UNL     1      42.900  51.791  41.038  1.00  0.00     0.163 HD
HETATM    4  C6  UNL     1      43.677  50.136  40.146  1.00  0.00     0.246 C 
HETATM    5  O1  UNL     1      42.541  49.547  40.024  1.00  0.00    -0.268 OA
HETATM    6  C7  UNL     1      44.922  49.285  40.088  1.00  0.00     0.014 C 
HETATM    7  C19 UNL     1      45.430  48.979  38.794  1.00  0.00     0.118 C 
HETATM    8  N4  UNL     1      44.696  49.204  37.566  1.00  0.00    -0.361 N 
ATOM      9  H4  UNL     1      45.185  48.742  36.799  1.00  0.00     0.162 HD
HETATM   10  C26 UNL     1      43.587  49.812  37.078  1.00  0.00     0.159 C 
HETATM   11  C27 UNL     1      43.182  51.208  36.767  1.00  0.00     0.059 C 
HETATM   12  C28 UNL     1      41.711  51.471  37.062  1.00  0.00     0.072 C 
HETATM   13  N5  UNL     1      44.065  52.241  37.160  1.00  0.00    -0.325 N 
ATOM     14  H5  UNL     1      44.240  52.938  36.437  1.00  0.00     0.168 HD
HETATM   15  C29 UNL     1      44.741  52.482  38.356  1.00  0.00     0.244 C 
HETATM   16  O4  UNL     1      46.023  52.597  38.228  1.00  0.00    -0.271 OA
ENDROOT
BRANCH   6  17
HETATM   17  C8  UNL     1      45.784  49.702  41.266  1.00  0.00     0.082 C 
BRANCH  17  18
HETATM   18  C9  UNL     1      45.546  49.184  42.592  1.00  0.00    -0.037 A 
HETATM   19  C10 UNL     1      45.868  47.871  42.895  1.00  0.00    -0.052 A 
HETATM   20  C11 UNL     1      46.741  46.994  42.029  1.00  0.00     0.049 C 
HETATM   21  C12 UNL     1      45.469  47.322  44.113  1.00  0.00     0.043 A 
HETATM   22  C13 UNL     1      44.765  48.081  45.007  1.00  0.00     0.067 A 
HETATM   23  C14 UNL     1      44.470  49.364  44.691  1.00  0.00     0.048 A 
HETATM   24  C15 UNL     1      44.843  49.998  43.469  1.00  0.00    -0.025 A 
BRANCH  22  25
HETATM   25  O2  UNL     1      44.392  47.478  46.211  1.00  0.00    -0.361 OA
ATOM     26  H2  UNL     1      44.325  48.034  46.977  1.00  0.00     0.217 HD
ENDBRANCH  22  25
BRANCH  24  27
HETATM   27  C16 UNL     1      44.580  51.426  43.429  1.00  0.00    -0.077 C 
HETATM   28  C17 UNL     1      45.801  52.296  43.154  1.00  0.00     0.044 C 
HETATM   29  C18 UNL     1      43.439  52.130  43.991  1.00  0.00     0.044 C 
ENDBRANCH  24  27
ENDBRANCH  17  18
ENDBRANCH   6  17
BRANCH   7  30
HETATM   30  C20 UNL     1      45.965  47.528  38.691  1.00  0.00     0.030 C 
BRANCH  30  31
HETATM   31  C21 UNL     1      44.898  46.515  38.404  1.00  0.00     0.004 C 
BRANCH  31  32
HETATM   32  C22 UNL     1      44.486  45.804  39.693  1.00  0.00     0.020 C 
BRANCH  32  33
HETATM   33  C23 UNL     1      43.015  46.020  39.947  1.00  0.00     0.121 C 
BRANCH  33  34
HETATM   34  N2  UNL     1      42.405  46.644  38.797  1.00  0.00    -0.380 N 
ATOM     35  H2  UNL     1      43.018  46.908  38.026  1.00  0.00     0.160 HD
BRANCH  34  36
HETATM   36  C24 UNL     1      41.032  46.918  38.658  1.00  0.00     0.066 C 
HETATM   37  C25 UNL     1      40.308  46.866  37.368  1.00  0.00     0.088 C 
HETATM   38  N3  UNL     1      40.324  47.240  39.706  1.00  0.00    -0.389 N 
ATOM     39  H32 UNL     1      40.823  47.275  40.596  1.00  0.00     0.157 HD
ATOM     40  H31 UNL     1      39.329  47.438  39.604  1.00  0.00     0.157 HD
ENDBRANCH  34  36
ENDBRANCH  33  34
ENDBRANCH  32  33
ENDBRANCH  31  32
ENDBRANCH  30  31
ENDBRANCH   7  30
BRANCH   1  41
HETATM   41  C4  UNL     1      43.379  53.912  39.844  1.00  0.00     0.035 C 
BRANCH  41  42
HETATM   42  C3  UNL     1      44.147  55.081  40.361  1.00  0.00     0.002 C 
BRANCH  42  43
HETATM   43  C2  UNL     1      43.925  55.272  41.847  1.00  0.00    -0.004 C 
HETATM   44  C1  UNL     1      45.139  56.018  42.419  1.00  0.00     0.005 C 
ENDBRANCH  42  43
ENDBRANCH  41  42
ENDBRANCH   1  41
BRANCH  10  45
HETATM   45  O3  UNL     1      42.588  49.028  36.782  1.00  0.00    -0.345 OA
ATOM     46  H3  UNL     1      42.355  48.383  37.441  1.00  0.00     0.219 HD
ENDBRANCH  10  45
TORSDOF 14
ENDMDL
MODEL 4
REMARK VINA RESULT: -8.656280445      9.128     13.774
REMARK  14 active torsions:
REMARK  status: ('A' for Active; 'I' for Inactive)
REMARK    1  A    between atoms: C2_2  and  C3_3 
REMARK    2  A    between atoms: C3_3  and  C4_4 
REMARK    3  A    between atoms: C4_4  and  C5_5 
REMARK    4  A    between atoms: C7_10  and  C8_11 
REMARK    5  A    between atoms: C8_11  and  C9_12 
REMARK    6  A    between atoms: C13_16  and  O2_17 
REMARK    7  A    between atoms: C15_20  and  C16_21 
REMARK    8  A    between atoms: C19_24  and  C20_25 
REMARK    9  A    between atoms: C20_25  and  C21_26 
REMARK   10  A    between atoms: C21_26  and  C22_27 
REMARK   11  A    between atoms: C22_27  and  C23_28 
REMARK   12  A    between atoms: C23_28  and  N2_29 
REMARK   13  A    between atoms: N2_29  and  C24_31 
REMARK   14  A    between atoms: C26_38  and  O3_39 
ROOT
HETATM    1  C5  UNL     1      45.384  41.449  53.372  1.00  0.00     0.177 C 
HETATM    2  N1  UNL     1      45.057  42.750  52.924  1.00  0.00    -0.344 N 
ATOM      3  H1  UNL     1      44.060  42.882  52.754  1.00  0.00     0.163 HD
HETATM    4  C6  UNL     1      45.823  43.895  52.665  1.00  0.00     0.246 C 
HETATM    5  O1  UNL     1      45.347  44.965  53.196  1.00  0.00    -0.268 OA
HETATM    6  C7  UNL     1      47.092  44.012  51.859  1.00  0.00     0.014 C 
HETATM    7  C19 UNL     1      48.317  43.974  52.583  1.00  0.00     0.118 C 
HETATM    8  N4  UNL     1      48.407  44.095  54.024  1.00  0.00    -0.361 N 
ATOM      9  H4  UNL     1      49.385  44.222  54.285  1.00  0.00     0.162 HD
HETATM   10  C26 UNL     1      47.646  44.099  55.146  1.00  0.00     0.159 C 
HETATM   11  C27 UNL     1      46.943  43.078  55.965  1.00  0.00     0.059 C 
HETATM   12  C28 UNL     1      45.630  43.593  56.543  1.00  0.00     0.072 C 
HETATM   13  N5  UNL     1      46.896  41.759  55.455  1.00  0.00    -0.325 N 
ATOM     14  H5  UNL     1      47.133  41.040  56.138  1.00  0.00     0.168 HD
HETATM   15  C29 UNL     1      46.586  41.262  54.190  1.00  0.00     0.244 C 
HETATM   16  O4  UNL     1      47.508  40.520  53.670  1.00  0.00    -0.271 OA
ENDROOT
BRANCH   6  17
HETATM   17  C8  UNL     1      46.847  43.269  50.558  1.00  0.00     0.082 C 
BRANCH  17  18
HETATM   18  C9  UNL     1      46.134  43.883  49.465  1.00  0.00    -0.037 A 
HETATM   19  C10 UNL     1      46.670  44.983  48.814  1.00  0.00    -0.052 A 
HETATM   20  C11 UNL     1      48.106  45.430  48.953  1.00  0.00     0.049 C 
HETATM   21  C12 UNL     1      45.900  45.684  47.887  1.00  0.00     0.043 A 
HETATM   22  C13 UNL     1      44.621  45.283  47.619  1.00  0.00     0.067 A 
HETATM   23  C14 UNL     1      44.122  44.201  48.261  1.00  0.00     0.048 A 
HETATM   24  C15 UNL     1      44.845  43.431  49.219  1.00  0.00    -0.025 A 
BRANCH  22  25
HETATM   25  O2  UNL     1      43.897  46.024  46.681  1.00  0.00    -0.361 OA
ATOM     26  H2  UNL     1      43.088  45.649  46.356  1.00  0.00     0.217 HD
ENDBRANCH  22  25
BRANCH  24  27
HETATM   27  C16 UNL     1      44.176  42.211  49.637  1.00  0.00    -0.077 C 
HETATM   28  C17 UNL     1      44.623  40.951  48.907  1.00  0.00     0.044 C 
HETATM   29  C18 UNL     1      42.909  42.096  50.341  1.00  0.00     0.044 C 
ENDBRANCH  24  27
ENDBRANCH  17  18
ENDBRANCH   6  17
BRANCH   7  30
HETATM   30  C20 UNL     1      49.372  44.961  52.024  1.00  0.00     0.030 C 
BRANCH  30  31
HETATM   31  C21 UNL     1      50.248  45.566  53.081  1.00  0.00     0.004 C 
BRANCH  31  32
HETATM   32  C22 UNL     1      50.664  46.980  52.676  1.00  0.00     0.020 C 
BRANCH  32  33
HETATM   33  C23 UNL     1      50.404  47.934  53.815  1.00  0.00     0.121 C 
BRANCH  33  34
HETATM   34  N2  UNL     1      49.028  47.829  54.238  1.00  0.00    -0.380 N 
ATOM     35  H2  UNL     1      48.854  47.579  55.212  1.00  0.00     0.160 HD
BRANCH  34  36
HETATM   36  C24 UNL     1      47.908  48.044  53.414  1.00  0.00     0.066 C 
HETATM   37  C25 UNL     1      47.845  49.086  52.365  1.00  0.00     0.088 C 
HETATM   38  N3  UNL     1      46.846  47.300  53.556  1.00  0.00    -0.389 N 
ATOM     39  H32 UNL     1      46.889  46.581  54.279  1.00  0.00     0.157 HD
ATOM     40  H31 UNL     1      46.034  47.456  52.958  1.00  0.00     0.157 HD
ENDBRANCH  34  36
ENDBRANCH  33  34
ENDBRANCH  32  33
ENDBRANCH  31  32
ENDBRANCH  30  31
ENDBRANCH   7  30
BRANCH   1  41
HETATM   41  C4  UNL     1      44.170  40.758  54.031  1.00  0.00     0.035 C 
BRANCH  41  42
HETATM   42  C3  UNL     1      43.911  39.385  53.509  1.00  0.00     0.002 C 
BRANCH  42  43
HETATM   43  C2  UNL     1      44.528  39.190  52.139  1.00  0.00    -0.004 C 
HETATM   44  C1  UNL     1      43.555  38.360  51.291  1.00  0.00     0.005 C 
ENDBRANCH  42  43
ENDBRANCH  41  42
ENDBRANCH   1  41
BRANCH  10  45
HETATM   45  O3  UNL     1      47.450  45.264  55.699  1.00  0.00    -0.345 OA
ATOM     46  H3  UNL     1      47.587  45.308  56.638  1.00  0.00     0.219 HD
ENDBRANCH  10  45
TORSDOF 14
ENDMDL
MODEL 5
REMARK VINA RESULT: -8.633142940      2.253      6.258
REMARK  14 active torsions:
REMARK  status: ('A' for Active; 'I' for Inactive)
REMARK    1  A    between atoms: C2_2  and  C3_3 
REMARK    2  A    between atoms: C3_3  and  C4_4 
REMARK    3  A    between atoms: C4_4  and  C5_5 
REMARK    4  A    between atoms: C7_10  and  C8_11 
REMARK    5  A    between atoms: C8_11  and  C9_12 
REMARK    6  A    between atoms: C13_16  and  O2_17 
REMARK    7  A    between atoms: C15_20  and  C16_21 
REMARK    8  A    between atoms: C19_24  and  C20_25 
REMARK    9  A    between atoms: C20_25  and  C21_26 
REMARK   10  A    between atoms: C21_26  and  C22_27 
REMARK   11  A    between atoms: C22_27  and  C23_28 
REMARK   12  A    between atoms: C23_28  and  N2_29 
REMARK   13  A    between atoms: N2_29  and  C24_31 
REMARK   14  A    between atoms: C26_38  and  O3_39 
ROOT
HETATM    1  C5  UNL     1      43.766  53.305  41.910  1.00  0.00     0.177 C 
HETATM    2  N1  UNL     1      44.169  53.212  40.557  1.00  0.00    -0.344 N 
ATOM      3  H1  UNL     1      43.816  53.972  39.976  1.00  0.00     0.163 HD
HETATM    4  C6  UNL     1      44.953  52.289  39.852  1.00  0.00     0.246 C 
HETATM    5  O1  UNL     1      45.855  52.834  39.115  1.00  0.00    -0.268 OA
HETATM    6  C7  UNL     1      44.860  50.784  39.855  1.00  0.00     0.014 C 
HETATM    7  C19 UNL     1      45.736  50.089  40.736  1.00  0.00     0.118 C 
HETATM    8  N4  UNL     1      46.859  50.707  41.411  1.00  0.00    -0.361 N 
ATOM      9  H4  UNL     1      47.434  49.978  41.833  1.00  0.00     0.162 HD
HETATM   10  C26 UNL     1      47.413  51.915  41.677  1.00  0.00     0.159 C 
HETATM   11  C27 UNL     1      47.122  53.046  42.597  1.00  0.00     0.059 C 
HETATM   12  C28 UNL     1      47.440  54.401  41.978  1.00  0.00     0.072 C 
HETATM   13  N5  UNL     1      45.913  52.991  43.328  1.00  0.00    -0.325 N 
ATOM     14  H5  UNL     1      46.015  53.208  44.319  1.00  0.00     0.168 HD
HETATM   15  C29 UNL     1      44.606  52.694  42.943  1.00  0.00     0.244 C 
HETATM   16  O4  UNL     1      44.062  51.730  43.611  1.00  0.00    -0.271 OA
ENDROOT
BRANCH   6  17
HETATM   17  C8  UNL     1      43.393  50.442  39.666  1.00  0.00     0.082 C 
BRANCH  17  18
HETATM   18  C9  UNL     1      42.935  49.074  39.664  1.00  0.00    -0.037 A 
HETATM   19  C10 UNL     1      42.951  48.332  40.835  1.00  0.00    -0.052 A 
HETATM   20  C11 UNL     1      43.131  48.930  42.211  1.00  0.00     0.049 C 
HETATM   21  C12 UNL     1      42.685  46.964  40.794  1.00  0.00     0.043 A 
HETATM   22  C13 UNL     1      42.405  46.358  39.600  1.00  0.00     0.067 A 
HETATM   23  C14 UNL     1      42.387  47.105  38.472  1.00  0.00     0.048 A 
HETATM   24  C15 UNL     1      42.646  48.507  38.431  1.00  0.00    -0.025 A 
BRANCH  22  25
HETATM   25  O2  UNL     1      42.147  44.985  39.621  1.00  0.00    -0.361 OA
ATOM     26  H2  UNL     1      42.642  44.456  40.234  1.00  0.00     0.217 HD
ENDBRANCH  22  25
BRANCH  24  27
HETATM   27  C16 UNL     1      42.390  49.127  37.143  1.00  0.00    -0.077 C 
HETATM   28  C17 UNL     1      41.322  50.214  37.155  1.00  0.00     0.044 C 
HETATM   29  C18 UNL     1      42.711  48.597  35.828  1.00  0.00     0.044 C 
ENDBRANCH  24  27
ENDBRANCH  17  18
ENDBRANCH   6  17
BRANCH   7  30
HETATM   30  C20 UNL     1      46.300  48.787  40.113  1.00  0.00     0.030 C 
BRANCH  30  31
HETATM   31  C21 UNL     1      47.200  48.021  41.038  1.00  0.00     0.004 C 
BRANCH  31  32
HETATM   32  C22 UNL     1      46.382  47.027  41.865  1.00  0.00     0.020 C 
BRANCH  32  33
HETATM   33  C23 UNL     1      46.312  47.493  43.297  1.00  0.00     0.121 C 
BRANCH  33  34
HETATM   34  N2  UNL     1      45.324  46.725  44.016  1.00  0.00    -0.380 N 
ATOM     35  H2  UNL     1      44.951  45.893  43.558  1.00  0.00     0.160 HD
BRANCH  34  36
HETATM   36  C24 UNL     1      44.833  47.033  45.298  1.00  0.00     0.066 C 
HETATM   37  C25 UNL     1      44.754  46.056  46.407  1.00  0.00     0.088 C 
HETATM   38  N3  UNL     1      44.416  48.241  45.559  1.00  0.00    -0.389 N 
ATOM     39  H32 UNL     1      44.470  48.915  44.795  1.00  0.00     0.157 HD
ATOM     40  H31 UNL     1      44.060  48.465  46.489  1.00  0.00     0.157 HD
ENDBRANCH  34  36
ENDBRANCH  33  34
ENDBRANCH  32  33
ENDBRANCH  31  32
ENDBRANCH  30  31
ENDBRANCH   7  30
BRANCH   1  41
HETATM   41  C4  UNL     1      43.409  54.757  42.293  1.00  0.00     0.035 C 
BRANCH  41  42
HETATM   42  C3  UNL     1      43.744  55.100  43.706  1.00  0.00     0.002 C 
BRANCH  42  43
HETATM   43  C2  UNL     1      42.533  54.967  44.607  1.00  0.00    -0.004 C 
HETATM   44  C1  UNL     1      42.973  54.256  45.895  1.00  0.00     0.005 C 
ENDBRANCH  42  43
ENDBRANCH  41  42
ENDBRANCH   1  41
BRANCH  10  45
HETATM   45  O3  UNL     1      48.479  52.219  40.989  1.00  0.00    -0.345 OA
ATOM     46  H3  UNL     1      48.902  53.039  41.218  1.00  0.00     0.219 HD
ENDBRANCH  10  45
TORSDOF 14
ENDMDL
