MODEL 1
REMARK VINA RESULT: -9.400125231      0.000      0.000
REMARK  15 active torsions:
REMARK  status: ('A' for Active; 'I' for Inactive)
REMARK    1  A    between atoms: C2_2  and  C3_3 
REMARK    2  A    between atoms: C2_2  and  C10_10 
REMARK    3  A    between atoms: C3_3  and  C4_4 
REMARK    4  A    between atoms: C12_15  and  C13_16 
REMARK    5  A    between atoms: C13_16  and  C14_17 
REMARK    6  A    between atoms: C14_17  and  C15_18 
REMARK    7  A    between atoms: C15_18  and  C16_19 
REMARK    8  A    between atoms: C16_19  and  C17_20 
REMARK    9  A    between atoms: C17_20  and  C18_21 
REMARK   10  A    between atoms: C18_21  and  O2_22 
REMARK   11  A    between atoms: N2_24  and  O3_26 
REMARK   12  A    between atoms: C20_32  and  C21_33 
REMARK   13  A    between atoms: C21_33  and  C22_34 
REMARK   14  A    between atoms: C22_34  and  C23_35 
REMARK   15  A    between atoms: C23_35  and  N4_36 
ROOT
HETATM    1  C10 UNL     1      45.731  41.901  52.242  1.00  0.00     0.158 C 
HETATM    2  N1  UNL     1      44.362  42.037  51.832  1.00  0.00    -0.348 N 
ATOM      3  H1  UNL     1      43.636  42.119  52.544  1.00  0.00     0.163 HD
HETATM    4  C11 UNL     1      43.984  42.062  50.437  1.00  0.00     0.241 C 
HETATM    5  O1  UNL     1      43.055  42.826  50.080  1.00  0.00    -0.271 OA
HETATM    6  C12 UNL     1      44.656  41.227  49.432  1.00  0.00     0.176 C 
HETATM    7  N3  UNL     1      45.017  41.933  48.220  1.00  0.00    -0.347 N 
ATOM      8  H3  UNL     1      44.421  41.803  47.402  1.00  0.00     0.163 HD
HETATM    9  C19 UNL     1      46.138  42.791  48.086  1.00  0.00     0.222 C 
HETATM   10  O4  UNL     1      46.878  42.597  47.056  1.00  0.00    -0.273 OA
HETATM   11  C20 UNL     1      46.519  43.870  49.016  1.00  0.00     0.078 C 
HETATM   12  C25 UNL     1      47.852  43.589  49.675  1.00  0.00     0.021 C 
HETATM   13  C26 UNL     1      47.775  42.762  50.905  1.00  0.00     0.081 C 
HETATM   14  C27 UNL     1      46.624  42.989  51.782  1.00  0.00     0.149 C 
HETATM   15  O5  UNL     1      46.382  44.124  52.156  1.00  0.00    -0.296 OA
ENDROOT
BRANCH   6  16
HETATM   16  C13 UNL     1      43.782  40.020  49.134  1.00  0.00     0.035 C 
BRANCH  16  17
HETATM   17  C14 UNL     1      44.458  38.707  49.300  1.00  0.00     0.002 C 
BRANCH  17  18
HETATM   18  C15 UNL     1      44.682  38.348  50.751  1.00  0.00     0.001 C 
BRANCH  18  19
HETATM   19  C16 UNL     1      43.447  38.602  51.535  1.00  0.00     0.008 C 
BRANCH  19  20
HETATM   20  C17 UNL     1      43.568  38.271  53.017  1.00  0.00     0.086 C 
BRANCH  20  21
HETATM   21  C18 UNL     1      43.606  36.836  53.293  1.00  0.00     0.135 C 
HETATM   22  N2  UNL     1      44.501  36.394  54.137  1.00  0.00    -0.251 N 
ATOM     23  H2  UNL     1      44.539  35.395  54.340  1.00  0.00     0.196 HD
BRANCH  21  24
HETATM   24  O2  UNL     1      42.739  35.901  52.707  1.00  0.00    -0.348 OA
ATOM     25  H2  UNL     1      42.970  34.995  52.540  1.00  0.00     0.219 HD
ENDBRANCH  21  24
BRANCH  22  26
HETATM   26  O3  UNL     1      45.379  37.223  54.752  1.00  0.00    -0.288 OA
ATOM     27  H3  UNL     1      45.092  37.965  55.271  1.00  0.00     0.244 HD
ENDBRANCH  22  26
ENDBRANCH  20  21
ENDBRANCH  19  20
ENDBRANCH  18  19
ENDBRANCH  17  18
ENDBRANCH  16  17
ENDBRANCH   6  16
BRANCH   1  28
HETATM   28  C2  UNL     1      45.738  41.756  53.768  1.00  0.00     0.012 C 
HETATM   29  C1  UNL     1      46.322  40.469  54.199  1.00  0.00     0.012 C 
BRANCH  28  30
HETATM   30  C3  UNL     1      44.448  42.124  54.367  1.00  0.00     0.011 C 
BRANCH  30  31
HETATM   31  C4  UNL     1      44.374  43.193  55.387  1.00  0.00    -0.014 C 
HETATM   32  C5  UNL     1      45.564  43.998  55.708  1.00  0.00     0.005 C 
HETATM   33  C6  UNL     1      46.580  43.250  56.560  1.00  0.00     0.000 C 
HETATM   34  C7  UNL     1      45.851  43.004  57.888  1.00  0.00     0.000 C 
HETATM   35  C8  UNL     1      44.736  42.030  57.574  1.00  0.00     0.000 C 
HETATM   36  C9  UNL     1      43.720  42.687  56.678  1.00  0.00     0.005 C 
ENDBRANCH  30  31
ENDBRANCH  28  30
ENDBRANCH   1  28
BRANCH  11  37
HETATM   37  C21 UNL     1      46.465  45.189  48.339  1.00  0.00     0.015 C 
BRANCH  37  38
HETATM   38  C22 UNL     1      45.227  45.571  47.632  1.00  0.00     0.020 C 
BRANCH  38  39
HETATM   39  C23 UNL     1      45.649  46.627  46.585  1.00  0.00     0.122 C 
BRANCH  39  40
HETATM   40  N4  UNL     1      44.696  46.658  45.500  1.00  0.00    -0.367 N 
HETATM   41  C24 UNL     1      45.052  46.937  44.296  1.00  0.00     0.196 C 
HETATM   42  N5  UNL     1      46.397  47.229  43.973  1.00  0.00    -0.067 NA
HETATM   43  N6  UNL     1      44.076  46.952  43.278  1.00  0.00    -0.067 NA
ATOM     44  H4  UNL     1      43.716  46.454  45.693  1.00  0.00     0.161 HD
ENDBRANCH  39  40
ENDBRANCH  38  39
ENDBRANCH  37  38
ENDBRANCH  11  37
TORSDOF 15
ENDMDL
MODEL 2
REMARK VINA RESULT: -9.295869883     10.397     15.045
REMARK  15 active torsions:
REMARK  status: ('A' for Active; 'I' for Inactive)
REMARK    1  A    between atoms: C2_2  and  C3_3 
REMARK    2  A    between atoms: C2_2  and  C10_10 
REMARK    3  A    between atoms: C3_3  and  C4_4 
REMARK    4  A    between atoms: C12_15  and  C13_16 
REMARK    5  A    between atoms: C13_16  and  C14_17 
REMARK    6  A    between atoms: C14_17  and  C15_18 
REMARK    7  A    between atoms: C15_18  and  C16_19 
REMARK    8  A    between atoms: C16_19  and  C17_20 
REMARK    9  A    between atoms: C17_20  and  C18_21 
REMARK   10  A    between atoms: C18_21  and  O2_22 
REMARK   11  A    between atoms: N2_24  and  O3_26 
REMARK   12  A    between atoms: C20_32  and  C21_33 
REMARK   13  A    between atoms: C21_33  and  C22_34 
REMARK   14  A    between atoms: C22_34  and  C23_35 
REMARK   15  A    between atoms: C23_35  and  N4_36 
ROOT
HETATM    1  C10 UNL     1      44.394  50.475  40.083  1.00  0.00     0.158 C 
HETATM    2  N1  UNL     1      43.515  49.559  40.753  1.00  0.00    -0.348 N 
ATOM      3  H1  UNL     1      43.391  49.639  41.762  1.00  0.00     0.163 HD
HETATM    4  C11 UNL     1      42.800  48.527  40.036  1.00  0.00     0.241 C 
HETATM    5  O1  UNL     1      41.630  48.250  40.392  1.00  0.00    -0.271 OA
HETATM    6  C12 UNL     1      43.401  47.803  38.908  1.00  0.00     0.176 C 
HETATM    7  N3  UNL     1      42.536  47.682  37.752  1.00  0.00    -0.347 N 
ATOM      8  H3  UNL     1      42.066  46.788  37.606  1.00  0.00     0.163 HD
HETATM    9  C19 UNL     1      42.294  48.713  36.809  1.00  0.00     0.222 C 
HETATM   10  O4  UNL     1      42.397  48.384  35.574  1.00  0.00    -0.273 OA
HETATM   11  C20 UNL     1      41.940  50.110  37.126  1.00  0.00     0.078 C 
HETATM   12  C25 UNL     1      43.015  51.071  36.666  1.00  0.00     0.021 C 
HETATM   13  C26 UNL     1      44.113  51.288  37.640  1.00  0.00     0.081 C 
HETATM   14  C27 UNL     1      43.741  51.320  39.057  1.00  0.00     0.149 C 
HETATM   15  O5  UNL     1      42.853  52.073  39.418  1.00  0.00    -0.296 OA
ENDROOT
BRANCH   6  16
HETATM   16  C13 UNL     1      43.875  46.444  39.393  1.00  0.00     0.035 C 
BRANCH  16  17
HETATM   17  C14 UNL     1      45.323  46.181  39.191  1.00  0.00     0.002 C 
BRANCH  17  18
HETATM   18  C15 UNL     1      46.200  47.238  39.820  1.00  0.00     0.001 C 
BRANCH  18  19
HETATM   19  C16 UNL     1      46.593  46.824  41.191  1.00  0.00     0.008 C 
BRANCH  19  20
HETATM   20  C17 UNL     1      46.130  47.774  42.289  1.00  0.00     0.086 C 
BRANCH  20  21
HETATM   21  C18 UNL     1      45.061  47.224  43.121  1.00  0.00     0.135 C 
HETATM   22  N2  UNL     1      45.360  46.840  44.334  1.00  0.00    -0.251 N 
ATOM     23  H2  UNL     1      44.625  46.455  44.927  1.00  0.00     0.196 HD
BRANCH  21  24
HETATM   24  O2  UNL     1      43.731  47.083  42.698  1.00  0.00    -0.348 OA
ATOM     25  H2  UNL     1      43.253  46.262  42.710  1.00  0.00     0.219 HD
ENDBRANCH  21  24
BRANCH  22  26
HETATM   26  O3  UNL     1      46.618  46.938  44.828  1.00  0.00    -0.288 OA
ATOM     27  H3  UNL     1      46.807  46.815  45.751  1.00  0.00     0.244 HD
ENDBRANCH  22  26
ENDBRANCH  20  21
ENDBRANCH  19  20
ENDBRANCH  18  19
ENDBRANCH  17  18
ENDBRANCH  16  17
ENDBRANCH   6  16
BRANCH   1  28
HETATM   28  C2  UNL     1      45.089  51.313  41.163  1.00  0.00     0.012 C 
HETATM   29  C1  UNL     1      44.419  51.193  42.474  1.00  0.00     0.012 C 
BRANCH  28  30
HETATM   30  C3  UNL     1      45.388  52.676  40.702  1.00  0.00     0.011 C 
BRANCH  30  31
HETATM   31  C4  UNL     1      46.770  53.198  40.754  1.00  0.00    -0.014 C 
HETATM   32  C5  UNL     1      47.609  52.964  41.942  1.00  0.00     0.005 C 
HETATM   33  C6  UNL     1      47.227  53.843  43.125  1.00  0.00     0.000 C 
HETATM   34  C7  UNL     1      47.535  55.271  42.650  1.00  0.00     0.000 C 
HETATM   35  C8  UNL     1      46.542  55.562  41.546  1.00  0.00     0.000 C 
HETATM   36  C9  UNL     1      46.822  54.679  40.359  1.00  0.00     0.005 C 
ENDBRANCH  30  31
ENDBRANCH  28  30
ENDBRANCH   1  28
BRANCH  11  37
HETATM   37  C21 UNL     1      40.593  50.441  36.601  1.00  0.00     0.015 C 
BRANCH  37  38
HETATM   38  C22 UNL     1      40.232  51.861  36.425  1.00  0.00     0.020 C 
BRANCH  38  39
HETATM   39  C23 UNL     1      39.030  51.872  35.452  1.00  0.00     0.122 C 
BRANCH  39  40
HETATM   40  N4  UNL     1      39.153  52.973  34.524  1.00  0.00    -0.367 N 
HETATM   41  C24 UNL     1      38.134  53.451  33.904  1.00  0.00     0.196 C 
HETATM   42  N5  UNL     1      36.837  52.923  34.098  1.00  0.00    -0.067 NA
HETATM   43  N6  UNL     1      38.317  54.526  33.010  1.00  0.00    -0.067 NA
ATOM     44  H4  UNL     1      40.073  53.381  34.357  1.00  0.00     0.161 HD
ENDBRANCH  39  40
ENDBRANCH  38  39
ENDBRANCH  37  38
ENDBRANCH  11  37
TORSDOF 15
ENDMDL
MODEL 3
REMARK VINA RESULT: -9.270761336      1.885      2.147
REMARK  15 active torsions:
REMARK  status: ('A' for Active; 'I' for Inactive)
REMARK    1  A    between atoms: C2_2  and  C3_3 
REMARK    2  A    between atoms: C2_2  and  C10_10 
REMARK    3  A    between atoms: C3_3  and  C4_4 
REMARK    4  A    between atoms: C12_15  and  C13_16 
REMARK    5  A    between atoms: C13_16  and  C14_17 
REMARK    6  A    between atoms: C14_17  and  C15_18 
REMARK    7  A    between atoms: C15_18  and  C16_19 
REMARK    8  A    between atoms: C16_19  and  C17_20 
REMARK    9  A    between atoms: C17_20  and  C18_21 
REMARK   10  A    between atoms: C18_21  and  O2_22 
REMARK   11  A    between atoms: N2_24  and  O3_26 
REMARK   12  A    between atoms: C20_32  and  C21_33 
REMARK   13  A    between atoms: C21_33  and  C22_34 
REMARK   14  A    between atoms: C22_34  and  C23_35 
REMARK   15  A    between atoms: C23_35  and  N4_36 
ROOT
HETATM    1  C10 UNL     1      45.493  41.651  52.420  1.00  0.00     0.158 C 
HETATM    2  N1  UNL     1      44.135  41.680  51.955  1.00  0.00    -0.348 N 
ATOM      3  H1  UNL     1      43.377  41.688  52.637  1.00  0.00     0.163 HD
HETATM    4  C11 UNL     1      43.814  41.700  50.545  1.00  0.00     0.241 C 
HETATM    5  O1  UNL     1      42.840  42.390  50.161  1.00  0.00    -0.271 OA
HETATM    6  C12 UNL     1      44.594  40.942  49.557  1.00  0.00     0.176 C 
HETATM    7  N3  UNL     1      44.945  41.698  48.373  1.00  0.00    -0.347 N 
ATOM      8  H3  UNL     1      44.396  41.534  47.529  1.00  0.00     0.163 HD
HETATM    9  C19 UNL     1      45.995  42.648  48.299  1.00  0.00     0.222 C 
HETATM   10  O4  UNL     1      46.790  42.536  47.299  1.00  0.00    -0.273 OA
HETATM   11  C20 UNL     1      46.245  43.738  49.262  1.00  0.00     0.078 C 
HETATM   12  C25 UNL     1      47.569  43.557  49.972  1.00  0.00     0.021 C 
HETATM   13  C26 UNL     1      47.511  42.703  51.185  1.00  0.00     0.081 C 
HETATM   14  C27 UNL     1      46.310  42.817  52.016  1.00  0.00     0.149 C 
HETATM   15  O5  UNL     1      45.959  43.921  52.396  1.00  0.00    -0.296 OA
ENDROOT
BRANCH   6  16
HETATM   16  C13 UNL     1      43.839  39.672  49.204  1.00  0.00     0.035 C 
BRANCH  16  17
HETATM   17  C14 UNL     1      44.628  38.421  49.336  1.00  0.00     0.002 C 
BRANCH  17  18
HETATM   18  C15 UNL     1      44.556  37.832  50.726  1.00  0.00     0.001 C 
BRANCH  18  19
HETATM   19  C16 UNL     1      45.317  36.557  50.779  1.00  0.00     0.008 C 
BRANCH  19  20
HETATM   20  C17 UNL     1      45.971  36.164  49.460  1.00  0.00     0.086 C 
BRANCH  20  21
HETATM   21  C18 UNL     1      45.460  34.911  48.907  1.00  0.00     0.135 C 
HETATM   22  N2  UNL     1      46.202  33.841  49.015  1.00  0.00    -0.251 N 
ATOM     23  H2  UNL     1      45.858  32.959  48.634  1.00  0.00     0.196 HD
BRANCH  21  24
HETATM   24  O2  UNL     1      44.218  34.786  48.266  1.00  0.00    -0.348 OA
ATOM     25  H2  UNL     1      43.954  35.304  47.514  1.00  0.00     0.219 HD
ENDBRANCH  21  24
BRANCH  22  26
HETATM   26  O3  UNL     1      47.415  33.867  49.618  1.00  0.00    -0.288 OA
ATOM     27  H3  UNL     1      47.757  34.653  50.027  1.00  0.00     0.244 HD
ENDBRANCH  22  26
ENDBRANCH  20  21
ENDBRANCH  19  20
ENDBRANCH  18  19
ENDBRANCH  17  18
ENDBRANCH  16  17
ENDBRANCH   6  16
BRANCH   1  28
HETATM   28  C2  UNL     1      45.449  41.478  53.943  1.00  0.00     0.012 C 
HETATM   29  C1  UNL     1      45.853  40.118  54.358  1.00  0.00     0.012 C 
BRANCH  28  30
HETATM   30  C3  UNL     1      44.206  41.999  54.526  1.00  0.00     0.011 C 
BRANCH  30  31
HETATM   31  C4  UNL     1      44.244  43.110  55.502  1.00  0.00    -0.014 C 
HETATM   32  C5  UNL     1      45.479  43.888  55.694  1.00  0.00     0.005 C 
HETATM   33  C6  UNL     1      46.537  43.142  56.496  1.00  0.00     0.000 C 
HETATM   34  C7  UNL     1      45.908  42.974  57.887  1.00  0.00     0.000 C 
HETATM   35  C8  UNL     1      44.744  42.025  57.702  1.00  0.00     0.000 C 
HETATM   36  C9  UNL     1      43.679  42.678  56.861  1.00  0.00     0.005 C 
ENDBRANCH  30  31
ENDBRANCH  28  30
ENDBRANCH   1  28
BRANCH  11  37
HETATM   37  C21 UNL     1      46.109  45.060  48.603  1.00  0.00     0.015 C 
BRANCH  37  38
HETATM   38  C22 UNL     1      44.761  45.524  48.221  1.00  0.00     0.020 C 
BRANCH  38  39
HETATM   39  C23 UNL     1      44.785  45.664  46.681  1.00  0.00     0.122 C 
BRANCH  39  40
HETATM   40  N4  UNL     1      44.779  47.061  46.310  1.00  0.00    -0.367 N 
HETATM   41  C24 UNL     1      44.745  47.433  45.081  1.00  0.00     0.196 C 
HETATM   42  N5  UNL     1      44.711  46.493  44.025  1.00  0.00    -0.067 NA
HETATM   43  N6  UNL     1      44.740  48.811  44.780  1.00  0.00    -0.067 NA
ATOM     44  H4  UNL     1      44.803  47.770  47.043  1.00  0.00     0.161 HD
ENDBRANCH  39  40
ENDBRANCH  38  39
ENDBRANCH  37  38
ENDBRANCH  11  37
TORSDOF 15
ENDMDL
MODEL 4
REMARK VINA RESULT: -9.231773977      7.113     13.524
REMARK  15 active torsions:
REMARK  status: ('A' for Active; 'I' for Inactive)
REMARK    1  A    between atoms: C2_2  and  C3_3 
REMARK    2  A    between atoms: C2_2  and  C10_10 
REMARK    3  A    between atoms: C3_3  and  C4_4 
REMARK    4  A    between atoms: C12_15  and  C13_16 
REMARK    5  A    between atoms: C13_16  and  C14_17 
REMARK    6  A    between atoms: C14_17  and  C15_18 
REMARK    7  A    between atoms: C15_18  and  C16_19 
REMARK    8  A    between atoms: C16_19  and  C17_20 
REMARK    9  A    between atoms: C17_20  and  C18_21 
REMARK   10  A    between atoms: C18_21  and  O2_22 
REMARK   11  A    between atoms: N2_24  and  O3_26 
REMARK   12  A    between atoms: C20_32  and  C21_33 
REMARK   13  A    between atoms: C21_33  and  C22_34 
REMARK   14  A    between atoms: C22_34  and  C23_35 
REMARK   15  A    between atoms: C23_35  and  N4_36 
ROOT
HETATM    1  C10 UNL     1      45.396  51.084  41.471  1.00  0.00     0.158 C 
HETATM    2  N1  UNL     1      46.652  50.501  41.092  1.00  0.00    -0.348 N 
ATOM      3  H1  UNL     1      47.480  51.095  41.044  1.00  0.00     0.163 HD
HETATM    4  C11 UNL     1      46.776  49.096  40.777  1.00  0.00     0.241 C 
HETATM    5  O1  UNL     1      47.814  48.489  41.135  1.00  0.00    -0.271 OA
HETATM    6  C12 UNL     1      45.724  48.363  40.059  1.00  0.00     0.176 C 
HETATM    7  N3  UNL     1      45.385  47.083  40.648  1.00  0.00    -0.347 N 
ATOM      8  H3  UNL     1      45.766  46.245  40.207  1.00  0.00     0.163 HD
HETATM    9  C19 UNL     1      44.564  46.908  41.790  1.00  0.00     0.222 C 
HETATM   10  O4  UNL     1      43.635  46.030  41.689  1.00  0.00    -0.273 OA
HETATM   11  C20 UNL     1      44.686  47.641  43.065  1.00  0.00     0.078 C 
HETATM   12  C25 UNL     1      43.464  48.490  43.335  1.00  0.00     0.021 C 
HETATM   13  C26 UNL     1      43.502  49.844  42.728  1.00  0.00     0.081 C 
HETATM   14  C27 UNL     1      44.801  50.521  42.704  1.00  0.00     0.149 C 
HETATM   15  O5  UNL     1      45.429  50.629  43.743  1.00  0.00    -0.296 OA
ENDROOT
BRANCH   6  16
HETATM   16  C13 UNL     1      46.135  48.215  38.604  1.00  0.00     0.035 C 
BRANCH  16  17
HETATM   17  C14 UNL     1      45.019  48.320  37.628  1.00  0.00     0.002 C 
BRANCH  17  18
HETATM   18  C15 UNL     1      44.140  49.524  37.878  1.00  0.00     0.001 C 
BRANCH  18  19
HETATM   19  C16 UNL     1      42.710  49.144  37.749  1.00  0.00     0.008 C 
BRANCH  19  20
HETATM   20  C17 UNL     1      42.410  47.698  38.126  1.00  0.00     0.086 C 
BRANCH  20  21
HETATM   21  C18 UNL     1      41.393  47.567  39.169  1.00  0.00     0.135 C 
HETATM   22  N2  UNL     1      41.267  46.410  39.764  1.00  0.00    -0.251 N 
ATOM     23  H2  UNL     1      40.563  46.304  40.495  1.00  0.00     0.196 HD
BRANCH  21  24
HETATM   24  O2  UNL     1      40.544  48.609  39.572  1.00  0.00    -0.348 OA
ATOM     25  H2  UNL     1      40.405  48.860  40.478  1.00  0.00     0.219 HD
ENDBRANCH  21  24
BRANCH  22  26
HETATM   26  O3  UNL     1      42.043  45.348  39.441  1.00  0.00    -0.288 OA
ATOM     27  H3  UNL     1      41.672  44.502  39.220  1.00  0.00     0.244 HD
ENDBRANCH  22  26
ENDBRANCH  20  21
ENDBRANCH  19  20
ENDBRANCH  18  19
ENDBRANCH  17  18
ENDBRANCH  16  17
ENDBRANCH   6  16
BRANCH   1  28
HETATM   28  C2  UNL     1      45.609  52.599  41.574  1.00  0.00     0.012 C 
HETATM   29  C1  UNL     1      46.956  52.937  42.077  1.00  0.00     0.012 C 
BRANCH  28  30
HETATM   30  C3  UNL     1      44.478  53.276  42.223  1.00  0.00     0.011 C 
BRANCH  30  31
HETATM   31  C4  UNL     1      44.692  54.094  43.436  1.00  0.00    -0.014 C 
HETATM   32  C5  UNL     1      44.076  53.703  44.715  1.00  0.00     0.005 C 
HETATM   33  C6  UNL     1      42.584  53.997  44.775  1.00  0.00     0.000 C 
HETATM   34  C7  UNL     1      42.497  55.528  44.702  1.00  0.00     0.000 C 
HETATM   35  C8  UNL     1      42.965  55.903  43.312  1.00  0.00     0.000 C 
HETATM   36  C9  UNL     1      44.428  55.580  43.160  1.00  0.00     0.005 C 
ENDBRANCH  30  31
ENDBRANCH  28  30
ENDBRANCH   1  28
BRANCH  11  37
HETATM   37  C21 UNL     1      45.012  46.711  44.174  1.00  0.00     0.015 C 
BRANCH  37  38
HETATM   38  C22 UNL     1      44.466  46.993  45.516  1.00  0.00     0.020 C 
BRANCH  38  39
HETATM   39  C23 UNL     1      45.339  46.185  46.503  1.00  0.00     0.122 C 
BRANCH  39  40
HETATM   40  N4  UNL     1      44.618  45.963  47.736  1.00  0.00    -0.367 N 
HETATM   41  C24 UNL     1      44.342  44.779  48.153  1.00  0.00     0.196 C 
HETATM   42  N5  UNL     1      44.731  43.630  47.426  1.00  0.00    -0.067 NA
HETATM   43  N6  UNL     1      43.635  44.625  49.364  1.00  0.00    -0.067 NA
ATOM     44  H4  UNL     1      44.319  46.766  48.289  1.00  0.00     0.161 HD
ENDBRANCH  39  40
ENDBRANCH  38  39
ENDBRANCH  37  38
ENDBRANCH  11  37
TORSDOF 15
ENDMDL
MODEL 5
REMARK VINA RESULT: -9.216507365      7.873     14.103
REMARK  15 active torsions:
REMARK  status: ('A' for Active; 'I' for Inactive)
REMARK    1  A    between atoms: C2_2  and  C3_3 
REMARK    2  A    between atoms: C2_2  and  C10_10 
REMARK    3  A    between atoms: C3_3  and  C4_4 
REMARK    4  A    between atoms: C12_15  and  C13_16 
REMARK    5  A    between atoms: C13_16  and  C14_17 
REMARK    6  A    between atoms: C14_17  and  C15_18 
REMARK    7  A    between atoms: C15_18  and  C16_19 
REMARK    8  A    between atoms: C16_19  and  C17_20 
REMARK    9  A    between atoms: C17_20  and  C18_21 
REMARK   10  A    between atoms: C18_21  and  O2_22 
REMARK   11  A    between atoms: N2_24  and  O3_26 
REMARK   12  A    between atoms: C20_32  and  C21_33 
REMARK   13  A    between atoms: C21_33  and  C22_34 
REMARK   14  A    between atoms: C22_34  and  C23_35 
REMARK   15  A    between atoms: C23_35  and  N4_36 
ROOT
HETATM    1  C10 UNL     1      45.376  51.123  41.582  1.00  0.00     0.158 C 
HETATM    2  N1  UNL     1      46.656  50.557  41.259  1.00  0.00    -0.348 N 
ATOM      3  H1  UNL     1      47.479  51.160  41.258  1.00  0.00     0.163 HD
HETATM    4  C11 UNL     1      46.809  49.157  40.934  1.00  0.00     0.241 C 
HETATM    5  O1  UNL     1      47.835  48.557  41.336  1.00  0.00    -0.271 OA
HETATM    6  C12 UNL     1      45.802  48.422  40.157  1.00  0.00     0.176 C 
HETATM    7  N3  UNL     1      45.449  47.132  40.713  1.00  0.00    -0.347 N 
ATOM      8  H3  UNL     1      45.860  46.304  40.282  1.00  0.00     0.163 HD
HETATM    9  C19 UNL     1      44.574  46.936  41.812  1.00  0.00     0.222 C 
HETATM   10  O4  UNL     1      43.660  46.049  41.655  1.00  0.00    -0.273 OA
HETATM   11  C20 UNL     1      44.626  47.654  43.099  1.00  0.00     0.078 C 
HETATM   12  C25 UNL     1      43.383  48.488  43.319  1.00  0.00     0.021 C 
HETATM   13  C26 UNL     1      43.436  49.849  42.730  1.00  0.00     0.081 C 
HETATM   14  C27 UNL     1      44.728  50.539  42.778  1.00  0.00     0.149 C 
HETATM   15  O5  UNL     1      45.303  50.641  43.848  1.00  0.00    -0.296 OA
ENDROOT
BRANCH   6  16
HETATM   16  C13 UNL     1      46.285  48.296  38.722  1.00  0.00     0.035 C 
BRANCH  16  17
HETATM   17  C14 UNL     1      45.262  48.609  37.691  1.00  0.00     0.002 C 
BRANCH  17  18
HETATM   18  C15 UNL     1      44.245  49.620  38.169  1.00  0.00     0.001 C 
BRANCH  18  19
HETATM   19  C16 UNL     1      42.874  49.160  37.831  1.00  0.00     0.008 C 
BRANCH  19  20
HETATM   20  C17 UNL     1      42.578  47.722  38.237  1.00  0.00     0.086 C 
BRANCH  20  21
HETATM   21  C18 UNL     1      41.464  47.599  39.177  1.00  0.00     0.135 C 
HETATM   22  N2  UNL     1      41.249  46.434  39.729  1.00  0.00    -0.251 N 
ATOM     23  H2  UNL     1      40.476  46.333  40.387  1.00  0.00     0.196 HD
BRANCH  21  24
HETATM   24  O2  UNL     1      40.611  48.657  39.524  1.00  0.00    -0.348 OA
ATOM     25  H2  UNL     1      40.529  49.460  39.022  1.00  0.00     0.219 HD
ENDBRANCH  21  24
BRANCH  22  26
HETATM   26  O3  UNL     1      42.022  45.355  39.454  1.00  0.00    -0.288 OA
ATOM     27  H3  UNL     1      41.649  44.495  39.303  1.00  0.00     0.244 HD
ENDBRANCH  22  26
ENDBRANCH  20  21
ENDBRANCH  19  20
ENDBRANCH  18  19
ENDBRANCH  17  18
ENDBRANCH  16  17
ENDBRANCH   6  16
BRANCH   1  28
HETATM   28  C2  UNL     1      45.567  52.639  41.712  1.00  0.00     0.012 C 
HETATM   29  C1  UNL     1      46.848  52.981  42.366  1.00  0.00     0.012 C 
BRANCH  28  30
HETATM   30  C3  UNL     1      44.367  53.307  42.232  1.00  0.00     0.011 C 
BRANCH  30  31
HETATM   31  C4  UNL     1      43.565  54.191  41.358  1.00  0.00    -0.014 C 
HETATM   32  C5  UNL     1      43.555  53.984  39.900  1.00  0.00     0.005 C 
HETATM   33  C6  UNL     1      44.830  54.461  39.219  1.00  0.00     0.000 C 
HETATM   34  C7  UNL     1      44.831  55.980  39.442  1.00  0.00     0.000 C 
HETATM   35  C8  UNL     1      45.025  56.180  40.930  1.00  0.00     0.000 C 
HETATM   36  C9  UNL     1      43.820  55.669  41.676  1.00  0.00     0.005 C 
ENDBRANCH  30  31
ENDBRANCH  28  30
ENDBRANCH   1  28
BRANCH  11  37
HETATM   37  C21 UNL     1      44.907  46.714  44.212  1.00  0.00     0.015 C 
BRANCH  37  38
HETATM   38  C22 UNL     1      44.812  47.212  45.599  1.00  0.00     0.020 C 
BRANCH  38  39
HETATM   39  C23 UNL     1      44.987  45.971  46.504  1.00  0.00     0.122 C 
BRANCH  39  40
HETATM   40  N4  UNL     1      45.515  46.366  47.790  1.00  0.00    -0.367 N 
HETATM   41  C24 UNL     1      46.778  46.371  48.028  1.00  0.00     0.196 C 
HETATM   42  N5  UNL     1      47.717  45.990  47.043  1.00  0.00    -0.067 NA
HETATM   43  N6  UNL     1      47.235  46.767  49.303  1.00  0.00    -0.067 NA
ATOM     44  H4  UNL     1      44.870  46.647  48.527  1.00  0.00     0.161 HD
ENDBRANCH  39  40
ENDBRANCH  38  39
ENDBRANCH  37  38
ENDBRANCH  11  37
TORSDOF 15
ENDMDL
