MODEL 1
REMARK VINA RESULT: -9.991148156      0.000      0.000
REMARK  16 active torsions:
REMARK  status: ('A' for Active; 'I' for Inactive)
REMARK    1  A    between atoms: C2_2  and  N1_3 
REMARK    2  A    between atoms: C4_10  and  N4_11 
REMARK    3  A    between atoms: N4_11  and  C5_13 
REMARK    4  A    between atoms: C8_16  and  C9_17 
REMARK    5  A    between atoms: C9_17  and  N5_18 
REMARK    6  A    between atoms: N5_18  and  C10_20 
REMARK    7  A    between atoms: C10_20  and  O1_21 
REMARK    8  A    between atoms: C10_20  and  C11_23 
REMARK    9  A    between atoms: C11_23  and  C12_24 
REMARK   10  A    between atoms: C11_23  and  N6_28 
REMARK   11  A    between atoms: C12_24  and  C13_25 
REMARK       I    between atoms: N6_28  and  C16_30 
REMARK   12  A    between atoms: C16_30  and  C17_32 
REMARK   13  A    between atoms: C17_32  and  N7_33 
REMARK   14  A    between atoms: C17_32  and  C18_37 
REMARK   15  A    between atoms: C18_37  and  C19_38 
REMARK   16  A    between atoms: C19_38  and  C20_39 
ROOT
HETATM    1  C10 UNL     1      45.428  47.374  43.407  1.00  0.00     0.134 C 
ENDROOT
BRANCH   1   2
HETATM    2  N5  UNL     1      45.356  47.145  42.026  1.00  0.00    -0.372 N 
ATOM      3  H5  UNL     1      46.223  47.301  41.511  1.00  0.00     0.161 HD
BRANCH   2   4
HETATM    4  C9  UNL     1      44.244  46.726  41.238  1.00  0.00     0.126 C 
BRANCH   4   5
HETATM    5  C8  UNL     1      44.027  47.298  39.914  1.00  0.00     0.003 C 
HETATM    6  C7  UNL     1      42.540  47.502  39.612  1.00  0.00     0.008 C 
HETATM    7  C6  UNL     1      42.359  47.553  38.109  1.00  0.00     0.026 C 
HETATM    8  C5  UNL     1      43.393  48.567  37.572  1.00  0.00     0.099 C 
HETATM    9  C28 UNL     1      44.760  47.902  37.663  1.00  0.00     0.026 C 
HETATM   10  C27 UNL     1      44.748  46.779  38.732  1.00  0.00     0.008 C 
BRANCH   8  11
HETATM   11  N4  UNL     1      43.332  49.772  38.313  1.00  0.00    -0.220 N 
ATOM     12  H4  UNL     1      42.709  49.727  39.119  1.00  0.00     0.178 HD
BRANCH  11  13
HETATM   13  C4  UNL     1      43.898  50.891  38.170  1.00  0.00     0.708 A 
HETATM   14  N3  UNL     1      43.933  51.776  37.165  1.00  0.00    -0.117 N 
HETATM   15  N2  UNL     1      44.703  52.818  37.504  1.00  0.00    -0.117 N 
ATOM     16  H3  UNL     1      43.446  51.673  36.275  1.00  0.00     0.206 HD
HETATM   17  C3  UNL     1      45.156  52.582  38.737  1.00  0.00     0.707 A 
ATOM     18  H2  UNL     1      44.904  53.636  36.930  1.00  0.00     0.206 HD
HETATM   19  N1  UNL     1      45.939  53.375  39.403  1.00  0.00    -0.225 N 
HETATM   20  N8  UNL     1      44.687  51.419  39.174  1.00  0.00    -0.020 N 
ATOM     21  H1  UNL     1      46.254  54.254  38.992  1.00  0.00     0.177 HD
ATOM     22  H8  UNL     1      44.875  50.994  40.082  1.00  0.00     0.203 HD
BRANCH  19  23
HETATM   23  C2  UNL     1      46.361  52.993  40.744  1.00  0.00     0.134 C 
HETATM   24  C1  UNL     1      46.670  54.256  41.507  1.00  0.00     0.027 C 
ENDBRANCH  19  23
ENDBRANCH  11  13
ENDBRANCH   8  11
ENDBRANCH   4   5
ENDBRANCH   2   4
ENDBRANCH   1   2
BRANCH   1  25
HETATM   25  O1  UNL     1      46.615  47.210  43.919  1.00  0.00    -0.348 OA
ATOM     26  H1  UNL     1      47.020  48.008  44.237  1.00  0.00     0.219 HD
ENDBRANCH   1  25
BRANCH   1  27
HETATM   27  C11 UNL     1      44.404  47.754  44.326  1.00  0.00     0.159 C 
BRANCH  27  28
HETATM   28  C12 UNL     1      43.997  49.228  44.330  1.00  0.00     0.037 C 
BRANCH  28  29
HETATM   29  C13 UNL     1      44.747  50.172  43.506  1.00  0.00    -0.020 C 
HETATM   30  C14 UNL     1      43.935  50.461  42.246  1.00  0.00     0.009 C 
HETATM   31  C15 UNL     1      44.722  51.526  44.271  1.00  0.00     0.009 C 
ENDBRANCH  28  29
ENDBRANCH  27  28
BRANCH  27  32
HETATM   32  N6  UNL     1      44.703  47.524  45.755  1.00  0.00    -0.347 N 
HETATM   33  C16 UNL     1      44.846  46.202  46.235  1.00  0.00     0.248 C 
HETATM   34  O2  UNL     1      44.709  45.256  45.391  1.00  0.00    -0.271 OA
ATOM     35  H6  UNL     1      44.806  48.315  46.392  1.00  0.00     0.163 HD
BRANCH  33  36
HETATM   36  C17 UNL     1      45.136  45.833  47.657  1.00  0.00     0.274 C 
BRANCH  36  37
HETATM   37  N7  UNL     1      46.386  45.076  47.595  1.00  0.00    -0.067 N 
ATOM     38  H73 UNL     1      46.445  44.435  46.804  1.00  0.00     0.275 HD
ATOM     39  H72 UNL     1      47.201  45.638  47.347  1.00  0.00     0.275 HD
ATOM     40  H71 UNL     1      46.457  44.621  48.505  1.00  0.00     0.275 HD
ENDBRANCH  36  37
BRANCH  36  41
HETATM   41  C18 UNL     1      43.999  45.140  48.275  1.00  0.00     0.043 C 
BRANCH  41  42
HETATM   42  C19 UNL     1      44.144  44.300  49.468  1.00  0.00     0.007 C 
BRANCH  42  43
HETATM   43  C20 UNL     1      43.930  42.844  49.414  1.00  0.00    -0.014 C 
HETATM   44  C21 UNL     1      42.916  42.336  50.355  1.00  0.00     0.005 C 
HETATM   45  C22 UNL     1      43.304  40.978  50.990  1.00  0.00     0.004 C 
HETATM   46  C23 UNL     1      43.739  40.080  49.865  1.00  0.00    -0.019 C 
HETATM   47  C24 UNL     1      43.900  38.643  50.343  1.00  0.00     0.010 C 
HETATM   48  C25 UNL     1      45.052  40.627  49.351  1.00  0.00     0.004 C 
HETATM   49  C26 UNL     1      45.253  42.089  49.605  1.00  0.00     0.005 C 
ENDBRANCH  42  43
ENDBRANCH  41  42
ENDBRANCH  36  41
ENDBRANCH  33  36
ENDBRANCH  27  32
ENDBRANCH   1  27
TORSDOF 16
ENDMDL
MODEL 2
REMARK VINA RESULT: -9.967832324      3.574     11.330
REMARK  16 active torsions:
REMARK  status: ('A' for Active; 'I' for Inactive)
REMARK    1  A    between atoms: C2_2  and  N1_3 
REMARK    2  A    between atoms: C4_10  and  N4_11 
REMARK    3  A    between atoms: N4_11  and  C5_13 
REMARK    4  A    between atoms: C8_16  and  C9_17 
REMARK    5  A    between atoms: C9_17  and  N5_18 
REMARK    6  A    between atoms: N5_18  and  C10_20 
REMARK    7  A    between atoms: C10_20  and  O1_21 
REMARK    8  A    between atoms: C10_20  and  C11_23 
REMARK    9  A    between atoms: C11_23  and  C12_24 
REMARK   10  A    between atoms: C11_23  and  N6_28 
REMARK   11  A    between atoms: C12_24  and  C13_25 
REMARK       I    between atoms: N6_28  and  C16_30 
REMARK   12  A    between atoms: C16_30  and  C17_32 
REMARK   13  A    between atoms: C17_32  and  N7_33 
REMARK   14  A    between atoms: C17_32  and  C18_37 
REMARK   15  A    between atoms: C18_37  and  C19_38 
REMARK   16  A    between atoms: C19_38  and  C20_39 
ROOT
HETATM    1  C10 UNL     1      44.653  46.540  45.124  1.00  0.00     0.134 C 
ENDROOT
BRANCH   1   2
HETATM    2  N5  UNL     1      44.485  46.773  46.496  1.00  0.00    -0.372 N 
ATOM      3  H5  UNL     1      44.364  47.750  46.762  1.00  0.00     0.161 HD
BRANCH   2   4
HETATM    4  C9  UNL     1      44.461  45.838  47.573  1.00  0.00     0.126 C 
BRANCH   4   5
HETATM    5  C8  UNL     1      45.644  45.645  48.402  1.00  0.00     0.003 C 
HETATM    6  C7  UNL     1      46.910  46.191  47.735  1.00  0.00     0.008 C 
HETATM    7  C6  UNL     1      48.110  45.494  48.341  1.00  0.00     0.026 C 
HETATM    8  C5  UNL     1      47.952  45.592  49.874  1.00  0.00     0.099 C 
HETATM    9  C28 UNL     1      46.843  44.629  50.272  1.00  0.00     0.026 C 
HETATM   10  C27 UNL     1      45.906  44.352  49.069  1.00  0.00     0.008 C 
BRANCH   8  11
HETATM   11  N4  UNL     1      47.668  46.926  50.256  1.00  0.00    -0.220 N 
ATOM     12  H4  UNL     1      47.388  47.524  49.478  1.00  0.00     0.178 HD
BRANCH  11  13
HETATM   13  C4  UNL     1      47.692  47.518  51.369  1.00  0.00     0.708 A 
HETATM   14  N3  UNL     1      47.326  48.746  51.760  1.00  0.00    -0.117 N 
HETATM   15  N2  UNL     1      47.576  48.900  53.067  1.00  0.00    -0.117 N 
ATOM     16  H3  UNL     1      46.918  49.457  51.153  1.00  0.00     0.206 HD
HETATM   17  C3  UNL     1      48.105  47.754  53.500  1.00  0.00     0.707 A 
ATOM     18  H2  UNL     1      47.395  49.734  53.625  1.00  0.00     0.206 HD
HETATM   19  N1  UNL     1      48.478  47.526  54.722  1.00  0.00    -0.225 N 
HETATM   20  N8  UNL     1      48.191  46.891  52.495  1.00  0.00    -0.020 N 
ATOM     21  H1  UNL     1      48.377  48.247  55.436  1.00  0.00     0.177 HD
ATOM     22  H8  UNL     1      48.558  45.940  52.544  1.00  0.00     0.203 HD
BRANCH  19  23
HETATM   23  C2  UNL     1      49.044  46.227  55.060  1.00  0.00     0.134 C 
HETATM   24  C1  UNL     1      50.377  46.463  55.721  1.00  0.00     0.027 C 
ENDBRANCH  19  23
ENDBRANCH  11  13
ENDBRANCH   8  11
ENDBRANCH   4   5
ENDBRANCH   2   4
ENDBRANCH   1   2
BRANCH   1  25
HETATM   25  O1  UNL     1      44.608  45.284  44.781  1.00  0.00    -0.348 OA
ATOM     26  H1  UNL     1      44.965  45.098  43.920  1.00  0.00     0.219 HD
ENDBRANCH   1  25
BRANCH   1  27
HETATM   27  C11 UNL     1      44.866  47.466  44.058  1.00  0.00     0.159 C 
BRANCH  27  28
HETATM   28  C12 UNL     1      43.679  48.346  43.665  1.00  0.00     0.037 C 
BRANCH  28  29
HETATM   29  C13 UNL     1      43.490  48.693  42.259  1.00  0.00    -0.020 C 
HETATM   30  C14 UNL     1      42.021  48.481  41.905  1.00  0.00     0.009 C 
HETATM   31  C15 UNL     1      43.665  50.237  42.169  1.00  0.00     0.009 C 
ENDBRANCH  28  29
ENDBRANCH  27  28
BRANCH  27  32
HETATM   32  N6  UNL     1      45.241  46.874  42.756  1.00  0.00    -0.347 N 
HETATM   33  C16 UNL     1      46.360  47.379  42.056  1.00  0.00     0.248 C 
HETATM   34  O2  UNL     1      47.003  48.338  42.595  1.00  0.00    -0.271 OA
ATOM     35  H6  UNL     1      44.696  46.105  42.365  1.00  0.00     0.163 HD
BRANCH  33  36
HETATM   36  C17 UNL     1      46.837  46.879  40.727  1.00  0.00     0.274 C 
BRANCH  36  37
HETATM   37  N7  UNL     1      47.497  48.031  40.114  1.00  0.00    -0.067 N 
ATOM     38  H73 UNL     1      47.318  48.915  40.590  1.00  0.00     0.275 HD
ATOM     39  H72 UNL     1      48.511  48.041  40.231  1.00  0.00     0.275 HD
ATOM     40  H71 UNL     1      47.193  48.015  39.140  1.00  0.00     0.275 HD
ENDBRANCH  36  37
BRANCH  36  41
HETATM   41  C18 UNL     1      45.743  46.281  39.952  1.00  0.00     0.043 C 
BRANCH  41  42
HETATM   42  C19 UNL     1      45.204  46.908  38.741  1.00  0.00     0.007 C 
BRANCH  42  43
HETATM   43  C20 UNL     1      44.145  47.931  38.811  1.00  0.00    -0.014 C 
HETATM   44  C21 UNL     1      42.843  47.505  38.264  1.00  0.00     0.005 C 
HETATM   45  C22 UNL     1      42.119  48.629  37.482  1.00  0.00     0.004 C 
HETATM   46  C23 UNL     1      42.156  49.856  38.350  1.00  0.00    -0.019 C 
HETATM   47  C24 UNL     1      41.252  50.948  37.790  1.00  0.00     0.010 C 
HETATM   48  C25 UNL     1      43.595  50.317  38.393  1.00  0.00     0.004 C 
HETATM   49  C26 UNL     1      44.598  49.235  38.142  1.00  0.00     0.005 C 
ENDBRANCH  42  43
ENDBRANCH  41  42
ENDBRANCH  36  41
ENDBRANCH  33  36
ENDBRANCH  27  32
ENDBRANCH   1  27
TORSDOF 16
ENDMDL
MODEL 3
REMARK VINA RESULT: -9.868397484      2.249      2.918
REMARK  16 active torsions:
REMARK  status: ('A' for Active; 'I' for Inactive)
REMARK    1  A    between atoms: C2_2  and  N1_3 
REMARK    2  A    between atoms: C4_10  and  N4_11 
REMARK    3  A    between atoms: N4_11  and  C5_13 
REMARK    4  A    between atoms: C8_16  and  C9_17 
REMARK    5  A    between atoms: C9_17  and  N5_18 
REMARK    6  A    between atoms: N5_18  and  C10_20 
REMARK    7  A    between atoms: C10_20  and  O1_21 
REMARK    8  A    between atoms: C10_20  and  C11_23 
REMARK    9  A    between atoms: C11_23  and  C12_24 
REMARK   10  A    between atoms: C11_23  and  N6_28 
REMARK   11  A    between atoms: C12_24  and  C13_25 
REMARK       I    between atoms: N6_28  and  C16_30 
REMARK   12  A    between atoms: C16_30  and  C17_32 
REMARK   13  A    between atoms: C17_32  and  N7_33 
REMARK   14  A    between atoms: C17_32  and  C18_37 
REMARK   15  A    between atoms: C18_37  and  C19_38 
REMARK   16  A    between atoms: C19_38  and  C20_39 
ROOT
HETATM    1  C10 UNL     1      45.524  47.441  43.471  1.00  0.00     0.134 C 
ENDROOT
BRANCH   1   2
HETATM    2  N5  UNL     1      45.447  47.165  42.099  1.00  0.00    -0.372 N 
ATOM      3  H5  UNL     1      46.306  47.322  41.572  1.00  0.00     0.161 HD
BRANCH   2   4
HETATM    4  C9  UNL     1      44.338  46.695  41.335  1.00  0.00     0.126 C 
BRANCH   4   5
HETATM    5  C8  UNL     1      44.083  47.237  40.005  1.00  0.00     0.003 C 
HETATM    6  C7  UNL     1      42.587  47.421  39.737  1.00  0.00     0.008 C 
HETATM    7  C6  UNL     1      42.368  47.439  38.238  1.00  0.00     0.026 C 
HETATM    8  C5  UNL     1      43.379  48.450  37.654  1.00  0.00     0.099 C 
HETATM    9  C28 UNL     1      44.753  47.800  37.724  1.00  0.00     0.026 C 
HETATM   10  C27 UNL     1      44.779  46.700  38.816  1.00  0.00     0.008 C 
BRANCH   8  11
HETATM   11  N4  UNL     1      43.325  49.671  38.371  1.00  0.00    -0.220 N 
ATOM     12  H4  UNL     1      42.714  49.640  39.187  1.00  0.00     0.178 HD
BRANCH  11  13
HETATM   13  C4  UNL     1      43.885  50.788  38.197  1.00  0.00     0.708 A 
HETATM   14  N3  UNL     1      43.931  51.637  37.162  1.00  0.00    -0.117 N 
HETATM   15  N2  UNL     1      44.688  52.696  37.476  1.00  0.00    -0.117 N 
ATOM     16  H3  UNL     1      43.459  51.497  36.268  1.00  0.00     0.206 HD
HETATM   17  C3  UNL     1      45.122  52.507  38.724  1.00  0.00     0.707 A 
ATOM     18  H2  UNL     1      44.893  53.494  36.876  1.00  0.00     0.206 HD
HETATM   19  N1  UNL     1      45.888  53.330  39.373  1.00  0.00    -0.225 N 
HETATM   20  N8  UNL     1      44.654  51.357  39.194  1.00  0.00    -0.020 N 
ATOM     21  H1  UNL     1      46.204  54.195  38.936  1.00  0.00     0.177 HD
ATOM     22  H8  UNL     1      44.829  50.966  40.120  1.00  0.00     0.203 HD
BRANCH  19  23
HETATM   23  C2  UNL     1      46.290  53.000  40.734  1.00  0.00     0.134 C 
HETATM   24  C1  UNL     1      46.589  54.290  41.452  1.00  0.00     0.027 C 
ENDBRANCH  19  23
ENDBRANCH  11  13
ENDBRANCH   8  11
ENDBRANCH   4   5
ENDBRANCH   2   4
ENDBRANCH   1   2
BRANCH   1  25
HETATM   25  O1  UNL     1      46.700  47.243  43.995  1.00  0.00    -0.348 OA
ATOM     26  H1  UNL     1      46.972  46.333  44.020  1.00  0.00     0.219 HD
ENDBRANCH   1  25
BRANCH   1  27
HETATM   27  C11 UNL     1      44.515  47.901  44.370  1.00  0.00     0.159 C 
BRANCH  27  28
HETATM   28  C12 UNL     1      44.367  49.415  44.521  1.00  0.00     0.037 C 
BRANCH  28  29
HETATM   29  C13 UNL     1      44.833  50.283  43.442  1.00  0.00    -0.020 C 
HETATM   30  C14 UNL     1      43.784  50.278  42.334  1.00  0.00     0.009 C 
HETATM   31  C15 UNL     1      44.766  51.735  43.999  1.00  0.00     0.009 C 
ENDBRANCH  28  29
ENDBRANCH  27  28
BRANCH  27  32
HETATM   32  N6  UNL     1      44.663  47.474  45.778  1.00  0.00    -0.347 N 
HETATM   33  C16 UNL     1      44.744  46.097  46.085  1.00  0.00     0.248 C 
HETATM   34  O2  UNL     1      44.686  45.276  45.112  1.00  0.00    -0.271 OA
ATOM     35  H6  UNL     1      44.707  48.170  46.523  1.00  0.00     0.163 HD
BRANCH  33  36
HETATM   36  C17 UNL     1      44.882  45.534  47.466  1.00  0.00     0.274 C 
BRANCH  36  37
HETATM   37  N7  UNL     1      43.594  45.802  48.105  1.00  0.00    -0.067 N 
ATOM     38  H73 UNL     1      42.787  45.595  47.516  1.00  0.00     0.275 HD
ATOM     39  H72 UNL     1      43.358  45.153  48.856  1.00  0.00     0.275 HD
ATOM     40  H71 UNL     1      43.651  46.777  48.402  1.00  0.00     0.275 HD
ENDBRANCH  36  37
BRANCH  36  41
HETATM   41  C18 UNL     1      46.062  46.074  48.152  1.00  0.00     0.043 C 
BRANCH  41  42
HETATM   42  C19 UNL     1      47.350  45.374  48.170  1.00  0.00     0.007 C 
BRANCH  42  43
HETATM   43  C20 UNL     1      48.134  45.237  49.411  1.00  0.00    -0.014 C 
HETATM   44  C21 UNL     1      47.990  43.936  50.088  1.00  0.00     0.005 C 
HETATM   45  C22 UNL     1      47.944  44.059  51.632  1.00  0.00     0.004 C 
HETATM   46  C23 UNL     1      49.092  44.943  52.033  1.00  0.00    -0.019 C 
HETATM   47  C24 UNL     1      49.294  44.926  53.542  1.00  0.00     0.010 C 
HETATM   48  C25 UNL     1      48.759  46.337  51.549  1.00  0.00     0.004 C 
HETATM   49  C26 UNL     1      47.817  46.379  50.386  1.00  0.00     0.005 C 
ENDBRANCH  42  43
ENDBRANCH  41  42
ENDBRANCH  36  41
ENDBRANCH  33  36
ENDBRANCH  27  32
ENDBRANCH   1  27
TORSDOF 16
ENDMDL
MODEL 4
REMARK VINA RESULT: -9.745798121      3.259     11.485
REMARK  16 active torsions:
REMARK  status: ('A' for Active; 'I' for Inactive)
REMARK    1  A    between atoms: C2_2  and  N1_3 
REMARK    2  A    between atoms: C4_10  and  N4_11 
REMARK    3  A    between atoms: N4_11  and  C5_13 
REMARK    4  A    between atoms: C8_16  and  C9_17 
REMARK    5  A    between atoms: C9_17  and  N5_18 
REMARK    6  A    between atoms: N5_18  and  C10_20 
REMARK    7  A    between atoms: C10_20  and  O1_21 
REMARK    8  A    between atoms: C10_20  and  C11_23 
REMARK    9  A    between atoms: C11_23  and  C12_24 
REMARK   10  A    between atoms: C11_23  and  N6_28 
REMARK   11  A    between atoms: C12_24  and  C13_25 
REMARK       I    between atoms: N6_28  and  C16_30 
REMARK   12  A    between atoms: C16_30  and  C17_32 
REMARK   13  A    between atoms: C17_32  and  N7_33 
REMARK   14  A    between atoms: C17_32  and  C18_37 
REMARK   15  A    between atoms: C18_37  and  C19_38 
REMARK   16  A    between atoms: C19_38  and  C20_39 
ROOT
HETATM    1  C10 UNL     1      44.617  46.623  44.931  1.00  0.00     0.134 C 
ENDROOT
BRANCH   1   2
HETATM    2  N5  UNL     1      44.603  46.875  46.310  1.00  0.00    -0.372 N 
ATOM      3  H5  UNL     1      44.646  47.859  46.575  1.00  0.00     0.161 HD
BRANCH   2   4
HETATM    4  C9  UNL     1      44.537  45.952  47.395  1.00  0.00     0.126 C 
BRANCH   4   5
HETATM    5  C8  UNL     1      45.732  45.653  48.176  1.00  0.00     0.003 C 
HETATM    6  C7  UNL     1      46.959  46.412  47.663  1.00  0.00     0.008 C 
HETATM    7  C6  UNL     1      48.202  45.673  48.114  1.00  0.00     0.026 C 
HETATM    8  C5  UNL     1      48.040  45.418  49.629  1.00  0.00     0.099 C 
HETATM    9  C28 UNL     1      46.995  44.323  49.790  1.00  0.00     0.026 C 
HETATM   10  C27 UNL     1      46.075  44.263  48.543  1.00  0.00     0.008 C 
BRANCH   8  11
HETATM   11  N4  UNL     1      47.672  46.614  50.293  1.00  0.00    -0.220 N 
ATOM     12  H4  UNL     1      47.267  47.318  49.676  1.00  0.00     0.178 HD
BRANCH  11  13
HETATM   13  C4  UNL     1      47.746  46.977  51.499  1.00  0.00     0.708 A 
HETATM   14  N3  UNL     1      47.898  48.172  52.086  1.00  0.00    -0.117 N 
HETATM   15  N2  UNL     1      47.937  48.022  53.416  1.00  0.00    -0.117 N 
ATOM     16  H3  UNL     1      47.972  49.062  51.594  1.00  0.00     0.206 HD
HETATM   17  C3  UNL     1      47.808  46.717  53.665  1.00  0.00     0.707 A 
ATOM     18  H2  UNL     1      48.044  48.765  54.108  1.00  0.00     0.206 HD
HETATM   19  N1  UNL     1      47.801  46.187  54.850  1.00  0.00    -0.225 N 
HETATM   20  N8  UNL     1      47.689  46.051  52.523  1.00  0.00    -0.020 N 
ATOM     21  H1  UNL     1      47.898  46.774  55.679  1.00  0.00     0.177 HD
ATOM     22  H8  UNL     1      47.578  45.042  52.421  1.00  0.00     0.203 HD
BRANCH  19  23
HETATM   23  C2  UNL     1      47.654  44.743  54.980  1.00  0.00     0.134 C 
HETATM   24  C1  UNL     1      46.299  44.471  55.581  1.00  0.00     0.027 C 
ENDBRANCH  19  23
ENDBRANCH  11  13
ENDBRANCH   8  11
ENDBRANCH   4   5
ENDBRANCH   2   4
ENDBRANCH   1   2
BRANCH   1  25
HETATM   25  O1  UNL     1      44.599  45.360  44.614  1.00  0.00    -0.348 OA
ATOM     26  H1  UNL     1      44.704  45.186  43.686  1.00  0.00     0.219 HD
ENDBRANCH   1  25
BRANCH   1  27
HETATM   27  C11 UNL     1      44.649  47.537  43.834  1.00  0.00     0.159 C 
BRANCH  27  28
HETATM   28  C12 UNL     1      43.364  48.315  43.550  1.00  0.00     0.037 C 
BRANCH  28  29
HETATM   29  C13 UNL     1      43.441  49.760  43.349  1.00  0.00    -0.020 C 
HETATM   30  C14 UNL     1      44.635  50.292  44.136  1.00  0.00     0.009 C 
HETATM   31  C15 UNL     1      43.865  49.965  41.865  1.00  0.00     0.009 C 
ENDBRANCH  28  29
ENDBRANCH  27  28
BRANCH  27  32
HETATM   32  N6  UNL     1      44.938  46.945  42.511  1.00  0.00    -0.347 N 
HETATM   33  C16 UNL     1      46.120  47.309  41.826  1.00  0.00     0.248 C 
HETATM   34  O2  UNL     1      46.893  48.145  42.397  1.00  0.00    -0.271 OA
ATOM     35  H6  UNL     1      44.288  46.278  42.095  1.00  0.00     0.163 HD
BRANCH  33  36
HETATM   36  C17 UNL     1      46.522  46.794  40.478  1.00  0.00     0.274 C 
BRANCH  36  37
HETATM   37  N7  UNL     1      47.230  47.911  39.853  1.00  0.00    -0.067 N 
ATOM     38  H73 UNL     1      46.710  48.363  39.100  1.00  0.00     0.275 HD
ATOM     39  H72 UNL     1      47.312  48.736  40.447  1.00  0.00     0.275 HD
ATOM     40  H71 UNL     1      48.125  47.518  39.561  1.00  0.00     0.275 HD
ENDBRANCH  36  37
BRANCH  36  41
HETATM   41  C18 UNL     1      45.370  46.270  39.736  1.00  0.00     0.043 C 
BRANCH  41  42
HETATM   42  C19 UNL     1      44.847  46.923  38.532  1.00  0.00     0.007 C 
BRANCH  42  43
HETATM   43  C20 UNL     1      43.824  47.980  38.613  1.00  0.00    -0.014 C 
HETATM   44  C21 UNL     1      42.487  47.579  38.139  1.00  0.00     0.005 C 
HETATM   45  C22 UNL     1      41.762  48.699  37.352  1.00  0.00     0.004 C 
HETATM   46  C23 UNL     1      41.875  49.952  38.175  1.00  0.00    -0.019 C 
HETATM   47  C24 UNL     1      40.981  51.053  37.619  1.00  0.00     0.010 C 
HETATM   48  C25 UNL     1      43.328  50.368  38.140  1.00  0.00     0.004 C 
HETATM   49  C26 UNL     1      44.286  49.247  37.881  1.00  0.00     0.005 C 
ENDBRANCH  42  43
ENDBRANCH  41  42
ENDBRANCH  36  41
ENDBRANCH  33  36
ENDBRANCH  27  32
ENDBRANCH   1  27
TORSDOF 16
ENDMDL
MODEL 5
REMARK VINA RESULT: -9.732364041      3.491     11.543
REMARK  16 active torsions:
REMARK  status: ('A' for Active; 'I' for Inactive)
REMARK    1  A    between atoms: C2_2  and  N1_3 
REMARK    2  A    between atoms: C4_10  and  N4_11 
REMARK    3  A    between atoms: N4_11  and  C5_13 
REMARK    4  A    between atoms: C8_16  and  C9_17 
REMARK    5  A    between atoms: C9_17  and  N5_18 
REMARK    6  A    between atoms: N5_18  and  C10_20 
REMARK    7  A    between atoms: C10_20  and  O1_21 
REMARK    8  A    between atoms: C10_20  and  C11_23 
REMARK    9  A    between atoms: C11_23  and  C12_24 
REMARK   10  A    between atoms: C11_23  and  N6_28 
REMARK   11  A    between atoms: C12_24  and  C13_25 
REMARK       I    between atoms: N6_28  and  C16_30 
REMARK   12  A    between atoms: C16_30  and  C17_32 
REMARK   13  A    between atoms: C17_32  and  N7_33 
REMARK   14  A    between atoms: C17_32  and  C18_37 
REMARK   15  A    between atoms: C18_37  and  C19_38 
REMARK   16  A    between atoms: C19_38  and  C20_39 
ROOT
HETATM    1  C10 UNL     1      44.632  46.652  44.652  1.00  0.00     0.134 C 
ENDROOT
BRANCH   1   2
HETATM    2  N5  UNL     1      44.582  46.910  46.028  1.00  0.00    -0.372 N 
ATOM      3  H5  UNL     1      44.628  47.894  46.291  1.00  0.00     0.161 HD
BRANCH   2   4
HETATM    4  C9  UNL     1      44.477  45.992  47.115  1.00  0.00     0.126 C 
BRANCH   4   5
HETATM    5  C8  UNL     1      45.600  45.802  48.025  1.00  0.00     0.003 C 
HETATM    6  C7  UNL     1      46.906  46.360  47.451  1.00  0.00     0.008 C 
HETATM    7  C6  UNL     1      48.065  45.667  48.138  1.00  0.00     0.026 C 
HETATM    8  C5  UNL     1      47.798  45.757  49.656  1.00  0.00     0.099 C 
HETATM    9  C28 UNL     1      46.670  44.784  49.971  1.00  0.00     0.026 C 
HETATM   10  C27 UNL     1      45.822  44.507  48.703  1.00  0.00     0.008 C 
BRANCH   8  11
HETATM   11  N4  UNL     1      47.478  47.087  50.023  1.00  0.00    -0.220 N 
ATOM     12  H4  UNL     1      47.136  47.655  49.248  1.00  0.00     0.178 HD
BRANCH  11  13
HETATM   13  C4  UNL     1      47.533  47.706  51.121  1.00  0.00     0.708 A 
HETATM   14  N3  UNL     1      47.265  48.971  51.472  1.00  0.00    -0.117 N 
HETATM   15  N2  UNL     1      47.503  49.140  52.779  1.00  0.00    -0.117 N 
ATOM     16  H3  UNL     1      46.930  49.697  50.838  1.00  0.00     0.206 HD
HETATM   17  C3  UNL     1      47.926  47.966  53.252  1.00  0.00     0.707 A 
ATOM     18  H2  UNL     1      47.384  50.002  53.311  1.00  0.00     0.206 HD
HETATM   19  N1  UNL     1      48.256  47.742  54.488  1.00  0.00    -0.225 N 
HETATM   20  N8  UNL     1      47.956  47.071  52.273  1.00  0.00    -0.020 N 
ATOM     21  H1  UNL     1      48.203  48.489  55.180  1.00  0.00     0.177 HD
ATOM     22  H8  UNL     1      48.240  46.094  52.355  1.00  0.00     0.203 HD
BRANCH  19  23
HETATM   23  C2  UNL     1      48.704  46.409  54.871  1.00  0.00     0.134 C 
HETATM   24  C1  UNL     1      50.018  46.555  55.594  1.00  0.00     0.027 C 
ENDBRANCH  19  23
ENDBRANCH  11  13
ENDBRANCH   8  11
ENDBRANCH   4   5
ENDBRANCH   2   4
ENDBRANCH   1   2
BRANCH   1  25
HETATM   25  O1  UNL     1      44.628  45.388  44.339  1.00  0.00    -0.348 OA
ATOM     26  H1  UNL     1      45.155  45.168  43.580  1.00  0.00     0.219 HD
ENDBRANCH   1  25
BRANCH   1  27
HETATM   27  C11 UNL     1      44.689  47.562  43.552  1.00  0.00     0.159 C 
BRANCH  27  28
HETATM   28  C12 UNL     1      44.149  48.971  43.797  1.00  0.00     0.037 C 
BRANCH  28  29
HETATM   29  C13 UNL     1      44.884  50.114  43.261  1.00  0.00    -0.020 C 
HETATM   30  C14 UNL     1      44.239  50.523  41.940  1.00  0.00     0.009 C 
HETATM   31  C15 UNL     1      44.567  51.310  44.205  1.00  0.00     0.009 C 
ENDBRANCH  28  29
ENDBRANCH  27  28
BRANCH  27  32
HETATM   32  N6  UNL     1      43.935  47.160  42.345  1.00  0.00    -0.347 N 
HETATM   33  C16 UNL     1      44.629  46.915  41.138  1.00  0.00     0.248 C 
HETATM   34  O2  UNL     1      45.896  47.055  41.153  1.00  0.00    -0.271 OA
ATOM     35  H6  UNL     1      42.921  47.061  42.383  1.00  0.00     0.163 HD
BRANCH  33  36
HETATM   36  C17 UNL     1      43.986  46.516  39.845  1.00  0.00     0.274 C 
BRANCH  36  37
HETATM   37  N7  UNL     1      43.653  45.103  40.020  1.00  0.00    -0.067 N 
ATOM     38  H73 UNL     1      43.897  44.728  40.936  1.00  0.00     0.275 HD
ATOM     39  H72 UNL     1      42.652  44.915  40.081  1.00  0.00     0.275 HD
ATOM     40  H71 UNL     1      44.116  44.631  39.242  1.00  0.00     0.275 HD
ENDBRANCH  36  37
BRANCH  36  41
HETATM   41  C18 UNL     1      44.842  46.836  38.697  1.00  0.00     0.043 C 
BRANCH  41  42
HETATM   42  C19 UNL     1      44.747  48.110  37.977  1.00  0.00     0.007 C 
BRANCH  42  43
HETATM   43  C20 UNL     1      43.480  48.860  37.904  1.00  0.00    -0.014 C 
HETATM   44  C21 UNL     1      42.522  48.352  36.905  1.00  0.00     0.005 C 
HETATM   45  C22 UNL     1      41.763  49.481  36.166  1.00  0.00     0.004 C 
HETATM   46  C23 UNL     1      41.255  50.427  37.218  1.00  0.00    -0.019 C 
HETATM   47  C24 UNL     1      40.281  51.435  36.623  1.00  0.00     0.010 C 
HETATM   48  C25 UNL     1      42.464  51.125  37.799  1.00  0.00     0.004 C 
HETATM   49  C26 UNL     1      43.742  50.354  37.674  1.00  0.00     0.005 C 
ENDBRANCH  42  43
ENDBRANCH  41  42
ENDBRANCH  36  41
ENDBRANCH  33  36
ENDBRANCH  27  32
ENDBRANCH   1  27
TORSDOF 16
ENDMDL
