MODEL 1
REMARK VINA RESULT: -8.929966296      0.000      0.000
REMARK  14 active torsions:
REMARK  status: ('A' for Active; 'I' for Inactive)
REMARK    1  A    between atoms: C2_2  and  C3_3 
REMARK    2  A    between atoms: C3_3  and  C5_5 
REMARK    3  A    between atoms: C5_5  and  N1_6 
REMARK    4  A    between atoms: C5_5  and  C16_24 
REMARK       I    between atoms: N1_6  and  C6_8 
REMARK    5  A    between atoms: C6_8  and  C7_10 
REMARK    6  A    between atoms: C7_10  and  C8_11 
REMARK    7  A    between atoms: C7_10  and  N2_15 
REMARK    8  A    between atoms: C8_11  and  C9_12 
REMARK       I    between atoms: N2_15  and  C12_17 
REMARK       I    between atoms: C12_17  and  N3_19 
REMARK    9  A    between atoms: N3_19  and  C13_21 
REMARK       I    between atoms: C16_24  and  N4_26 
REMARK   10  A    between atoms: N4_26  and  C17_28 
REMARK   11  A    between atoms: C17_28  and  C18_29 
REMARK   12  A    between atoms: C17_28  and  C19_32 
REMARK   13  A    between atoms: C19_32  and  O6_33 
REMARK   14  A    between atoms: C19_32  and  C20_35 
ROOT
HETATM    1  C5  UNL     1      44.459  51.861  43.365  1.00  0.00     0.180 C 
ENDROOT
BRANCH   1   2
HETATM    2  C3  UNL     1      45.389  52.814  44.021  1.00  0.00     0.013 C 
HETATM    3  C4  UNL     1      44.707  53.594  45.135  1.00  0.00     0.012 C 
BRANCH   2   4
HETATM    4  C2  UNL     1      46.030  53.798  43.087  1.00  0.00     0.002 C 
HETATM    5  C1  UNL     1      47.513  53.896  43.178  1.00  0.00     0.005 C 
ENDBRANCH   2   4
ENDBRANCH   1   2
BRANCH   1   6
HETATM    6  N1  UNL     1      44.983  50.515  43.320  1.00  0.00    -0.346 N 
HETATM    7  C6  UNL     1      44.243  49.364  43.689  1.00  0.00     0.241 C 
HETATM    8  O1  UNL     1      43.059  49.461  44.082  1.00  0.00    -0.271 OA
ATOM      9  H1  UNL     1      45.945  50.385  43.005  1.00  0.00     0.163 HD
BRANCH   7  10
HETATM   10  C7  UNL     1      44.883  47.984  43.607  1.00  0.00     0.178 C 
BRANCH  10  11
HETATM   11  C8  UNL     1      45.909  47.971  42.526  1.00  0.00     0.038 C 
BRANCH  11  12
HETATM   12  C9  UNL     1      45.521  47.392  41.219  1.00  0.00    -0.020 C 
HETATM   13  C10 UNL     1      46.593  46.747  40.414  1.00  0.00     0.009 C 
HETATM   14  C11 UNL     1      44.327  46.462  41.294  1.00  0.00     0.009 C 
ENDBRANCH  11  12
ENDBRANCH  10  11
BRANCH  10  15
HETATM   15  N2  UNL     1      45.397  47.674  44.927  1.00  0.00    -0.330 N 
HETATM   16  C12 UNL     1      45.134  46.445  45.585  1.00  0.00     0.317 C 
HETATM   17  O2  UNL     1      44.432  45.601  44.970  1.00  0.00    -0.247 OA
HETATM   18  N3  UNL     1      45.641  46.174  46.892  1.00  0.00    -0.339 N 
ATOM     19  H3  UNL     1      46.207  46.872  47.375  1.00  0.00     0.164 HD
ATOM     20  H2  UNL     1      45.973  48.369  45.402  1.00  0.00     0.165 HD
BRANCH  18  21
HETATM   21  C13 UNL     1      45.353  44.912  47.528  1.00  0.00     0.078 C 
HETATM   22  C14 UNL     1      46.470  44.413  48.403  1.00  0.00     0.032 C 
HETATM   23  C15 UNL     1      44.064  45.089  48.344  1.00  0.00     0.032 C 
ENDBRANCH  18  21
ENDBRANCH  10  15
ENDBRANCH   7  10
ENDBRANCH   1   6
BRANCH   1  24
HETATM   24  C16 UNL     1      44.244  52.322  41.940  1.00  0.00     0.241 C 
HETATM   25  O3  UNL     1      43.510  53.299  41.685  1.00  0.00    -0.271 OA
HETATM   26  N4  UNL     1      44.894  51.624  40.899  1.00  0.00    -0.343 N 
ATOM     27  H4  UNL     1      45.481  50.826  41.138  1.00  0.00     0.163 HD
BRANCH  26  28
HETATM   28  C17 UNL     1      44.759  52.005  39.473  1.00  0.00     0.214 C 
BRANCH  28  29
HETATM   29  C18 UNL     1      45.721  53.111  39.264  1.00  0.00     0.199 C 
HETATM   30  O4  UNL     1      46.899  53.096  39.740  1.00  0.00    -0.646 OA
HETATM   31  O5  UNL     1      45.370  54.227  38.532  1.00  0.00    -0.646 OA
ENDBRANCH  28  29
BRANCH  28  32
HETATM   32  C19 UNL     1      45.042  50.766  38.685  1.00  0.00     0.155 C 
BRANCH  32  33
HETATM   33  O6  UNL     1      45.318  51.161  37.378  1.00  0.00    -0.393 OA
ATOM     34  H6  UNL     1      46.194  50.858  37.170  1.00  0.00     0.210 HD
ENDBRANCH  32  33
BRANCH  32  35
HETATM   35  C20 UNL     1      43.923  49.784  38.634  1.00  0.00     0.017 C 
HETATM   36  C21 UNL     1      42.786  50.416  37.822  1.00  0.00     0.008 C 
HETATM   37  C22 UNL     1      41.634  49.495  37.657  1.00  0.00     0.009 C 
HETATM   38  C23 UNL     1      41.784  48.131  38.226  1.00  0.00    -0.048 C 
HETATM   39  C24 UNL     1      41.302  48.112  39.663  1.00  0.00     0.015 C 
HETATM   40  C25 UNL     1      40.826  47.216  37.465  1.00  0.00     0.015 C 
HETATM   41  C26 UNL     1      43.144  47.533  38.167  1.00  0.00     0.009 C 
HETATM   42  C27 UNL     1      44.248  48.517  37.872  1.00  0.00     0.008 C 
ENDBRANCH  32  35
ENDBRANCH  28  32
ENDBRANCH  26  28
ENDBRANCH   1  24
TORSDOF 14
ENDMDL
MODEL 2
REMARK VINA RESULT: -8.782789453      1.316      1.779
REMARK  14 active torsions:
REMARK  status: ('A' for Active; 'I' for Inactive)
REMARK    1  A    between atoms: C2_2  and  C3_3 
REMARK    2  A    between atoms: C3_3  and  C5_5 
REMARK    3  A    between atoms: C5_5  and  N1_6 
REMARK    4  A    between atoms: C5_5  and  C16_24 
REMARK       I    between atoms: N1_6  and  C6_8 
REMARK    5  A    between atoms: C6_8  and  C7_10 
REMARK    6  A    between atoms: C7_10  and  C8_11 
REMARK    7  A    between atoms: C7_10  and  N2_15 
REMARK    8  A    between atoms: C8_11  and  C9_12 
REMARK       I    between atoms: N2_15  and  C12_17 
REMARK       I    between atoms: C12_17  and  N3_19 
REMARK    9  A    between atoms: N3_19  and  C13_21 
REMARK       I    between atoms: C16_24  and  N4_26 
REMARK   10  A    between atoms: N4_26  and  C17_28 
REMARK   11  A    between atoms: C17_28  and  C18_29 
REMARK   12  A    between atoms: C17_28  and  C19_32 
REMARK   13  A    between atoms: C19_32  and  O6_33 
REMARK   14  A    between atoms: C19_32  and  C20_35 
ROOT
HETATM    1  C5  UNL     1      43.976  51.270  42.457  1.00  0.00     0.180 C 
ENDROOT
BRANCH   1   2
HETATM    2  C3  UNL     1      44.435  52.356  43.360  1.00  0.00     0.013 C 
HETATM    3  C4  UNL     1      44.899  51.816  44.705  1.00  0.00     0.012 C 
BRANCH   2   4
HETATM    4  C2  UNL     1      43.414  53.425  43.613  1.00  0.00     0.002 C 
HETATM    5  C1  UNL     1      43.355  53.939  45.010  1.00  0.00     0.005 C 
ENDBRANCH   2   4
ENDBRANCH   1   2
BRANCH   1   6
HETATM    6  N1  UNL     1      44.433  49.966  42.879  1.00  0.00    -0.346 N 
HETATM    7  C6  UNL     1      43.632  48.797  42.845  1.00  0.00     0.241 C 
HETATM    8  O1  UNL     1      42.452  48.839  42.431  1.00  0.00    -0.271 OA
ATOM      9  H1  UNL     1      45.389  49.881  43.223  1.00  0.00     0.163 HD
BRANCH   7  10
HETATM   10  C7  UNL     1      44.203  47.464  43.311  1.00  0.00     0.178 C 
BRANCH  10  11
HETATM   11  C8  UNL     1      45.411  47.128  42.505  1.00  0.00     0.038 C 
BRANCH  11  12
HETATM   12  C9  UNL     1      45.249  47.023  41.036  1.00  0.00    -0.020 C 
HETATM   13  C10 UNL     1      46.471  46.750  40.233  1.00  0.00     0.009 C 
HETATM   14  C11 UNL     1      44.150  46.070  40.611  1.00  0.00     0.009 C 
ENDBRANCH  11  12
ENDBRANCH  10  11
BRANCH  10  15
HETATM   15  N2  UNL     1      44.444  47.579  44.736  1.00  0.00    -0.330 N 
HETATM   16  C12 UNL     1      44.694  46.457  45.566  1.00  0.00     0.317 C 
HETATM   17  O2  UNL     1      44.712  45.325  45.015  1.00  0.00    -0.247 OA
HETATM   18  N3  UNL     1      44.912  46.600  46.970  1.00  0.00    -0.339 N 
ATOM     19  H3  UNL     1      44.891  47.526  47.398  1.00  0.00     0.164 HD
ATOM     20  H2  UNL     1      44.435  48.507  45.159  1.00  0.00     0.165 HD
BRANCH  18  21
HETATM   21  C13 UNL     1      45.164  45.434  47.782  1.00  0.00     0.078 C 
HETATM   22  C14 UNL     1      46.277  45.623  48.774  1.00  0.00     0.032 C 
HETATM   23  C15 UNL     1      43.853  45.080  48.500  1.00  0.00     0.032 C 
ENDBRANCH  18  21
ENDBRANCH  10  15
ENDBRANCH   7  10
ENDBRANCH   1   6
BRANCH   1  24
HETATM   24  C16 UNL     1      44.542  51.537  41.079  1.00  0.00     0.241 C 
HETATM   25  O3  UNL     1      45.626  51.031  40.722  1.00  0.00    -0.271 OA
HETATM   26  N4  UNL     1      43.816  52.369  40.201  1.00  0.00    -0.343 N 
ATOM     27  H4  UNL     1      42.938  52.774  40.525  1.00  0.00     0.163 HD
BRANCH  26  28
HETATM   28  C17 UNL     1      44.277  52.680  38.827  1.00  0.00     0.214 C 
BRANCH  28  29
HETATM   29  C18 UNL     1      45.272  53.766  38.978  1.00  0.00     0.199 C 
HETATM   30  O4  UNL     1      46.512  53.544  39.141  1.00  0.00    -0.646 OA
HETATM   31  O5  UNL     1      44.885  55.091  38.948  1.00  0.00    -0.646 OA
ENDBRANCH  28  29
BRANCH  28  32
HETATM   32  C19 UNL     1      44.819  51.400  38.273  1.00  0.00     0.155 C 
BRANCH  32  33
HETATM   33  O6  UNL     1      45.757  51.736  37.299  1.00  0.00    -0.393 OA
ATOM     34  H6  UNL     1      46.092  50.924  36.938  1.00  0.00     0.210 HD
ENDBRANCH  32  33
BRANCH  32  35
HETATM   35  C20 UNL     1      43.806  50.511  37.638  1.00  0.00     0.017 C 
HETATM   36  C21 UNL     1      44.010  49.099  38.197  1.00  0.00     0.008 C 
HETATM   37  C22 UNL     1      43.010  48.136  37.673  1.00  0.00     0.009 C 
HETATM   38  C23 UNL     1      41.964  48.686  36.772  1.00  0.00    -0.048 C 
HETATM   39  C24 UNL     1      42.437  48.631  35.333  1.00  0.00     0.015 C 
HETATM   40  C25 UNL     1      40.765  47.741  36.842  1.00  0.00     0.015 C 
HETATM   41  C26 UNL     1      41.489  50.062  37.070  1.00  0.00     0.009 C 
HETATM   42  C27 UNL     1      42.376  50.842  38.009  1.00  0.00     0.008 C 
ENDBRANCH  32  35
ENDBRANCH  28  32
ENDBRANCH  26  28
ENDBRANCH   1  24
TORSDOF 14
ENDMDL
MODEL 3
REMARK VINA RESULT: -8.683436546      3.867      7.715
REMARK  14 active torsions:
REMARK  status: ('A' for Active; 'I' for Inactive)
REMARK    1  A    between atoms: C2_2  and  C3_3 
REMARK    2  A    between atoms: C3_3  and  C5_5 
REMARK    3  A    between atoms: C5_5  and  N1_6 
REMARK    4  A    between atoms: C5_5  and  C16_24 
REMARK       I    between atoms: N1_6  and  C6_8 
REMARK    5  A    between atoms: C6_8  and  C7_10 
REMARK    6  A    between atoms: C7_10  and  C8_11 
REMARK    7  A    between atoms: C7_10  and  N2_15 
REMARK    8  A    between atoms: C8_11  and  C9_12 
REMARK       I    between atoms: N2_15  and  C12_17 
REMARK       I    between atoms: C12_17  and  N3_19 
REMARK    9  A    between atoms: N3_19  and  C13_21 
REMARK       I    between atoms: C16_24  and  N4_26 
REMARK   10  A    between atoms: N4_26  and  C17_28 
REMARK   11  A    between atoms: C17_28  and  C18_29 
REMARK   12  A    between atoms: C17_28  and  C19_32 
REMARK   13  A    between atoms: C19_32  and  O6_33 
REMARK   14  A    between atoms: C19_32  and  C20_35 
ROOT
HETATM    1  C5  UNL     1      45.548  45.870  48.047  1.00  0.00     0.180 C 
ENDROOT
BRANCH   1   2
HETATM    2  C3  UNL     1      46.931  46.408  48.022  1.00  0.00     0.013 C 
HETATM    3  C4  UNL     1      47.954  45.329  47.699  1.00  0.00     0.012 C 
BRANCH   2   4
HETATM    4  C2  UNL     1      47.354  47.089  49.290  1.00  0.00     0.002 C 
HETATM    5  C1  UNL     1      47.983  46.208  50.313  1.00  0.00     0.005 C 
ENDBRANCH   2   4
ENDBRANCH   1   2
BRANCH   1   6
HETATM    6  N1  UNL     1      45.494  44.494  48.485  1.00  0.00    -0.346 N 
HETATM    7  C6  UNL     1      44.437  43.948  49.256  1.00  0.00     0.241 C 
HETATM    8  O1  UNL     1      43.466  44.656  49.605  1.00  0.00    -0.271 OA
ATOM      9  H1  UNL     1      46.264  43.877  48.224  1.00  0.00     0.163 HD
BRANCH   7  10
HETATM   10  C7  UNL     1      44.470  42.483  49.670  1.00  0.00     0.178 C 
BRANCH  10  11
HETATM   11  C8  UNL     1      45.429  41.739  48.805  1.00  0.00     0.038 C 
BRANCH  11  12
HETATM   12  C9  UNL     1      45.385  40.259  48.847  1.00  0.00    -0.020 C 
HETATM   13  C10 UNL     1      46.132  39.586  49.943  1.00  0.00     0.009 C 
HETATM   14  C11 UNL     1      43.983  39.688  48.774  1.00  0.00     0.009 C 
ENDBRANCH  11  12
ENDBRANCH  10  11
BRANCH  10  15
HETATM   15  N2  UNL     1      44.785  42.447  51.085  1.00  0.00    -0.330 N 
HETATM   16  C12 UNL     1      43.955  41.808  52.041  1.00  0.00     0.317 C 
HETATM   17  O2  UNL     1      42.912  41.247  51.615  1.00  0.00    -0.247 OA
HETATM   18  N3  UNL     1      44.283  41.803  53.431  1.00  0.00    -0.339 N 
ATOM     19  H3  UNL     1      45.132  42.265  53.757  1.00  0.00     0.164 HD
ATOM     20  H2  UNL     1      45.641  42.899  51.406  1.00  0.00     0.165 HD
BRANCH  18  21
HETATM   21  C13 UNL     1      43.414  41.141  54.373  1.00  0.00     0.078 C 
HETATM   22  C14 UNL     1      43.701  39.674  54.526  1.00  0.00     0.032 C 
HETATM   23  C15 UNL     1      43.558  41.864  55.721  1.00  0.00     0.032 C 
ENDBRANCH  18  21
ENDBRANCH  10  15
ENDBRANCH   7  10
ENDBRANCH   1   6
BRANCH   1  24
HETATM   24  C16 UNL     1      44.996  45.930  46.639  1.00  0.00     0.241 C 
HETATM   25  O3  UNL     1      44.604  44.897  46.058  1.00  0.00    -0.271 OA
HETATM   26  N4  UNL     1      44.930  47.183  45.993  1.00  0.00    -0.343 N 
ATOM     27  H4  UNL     1      45.266  48.007  46.490  1.00  0.00     0.163 HD
BRANCH  26  28
HETATM   28  C17 UNL     1      44.394  47.350  44.622  1.00  0.00     0.214 C 
BRANCH  28  29
HETATM   29  C18 UNL     1      44.038  48.782  44.506  1.00  0.00     0.199 C 
HETATM   30  O4  UNL     1      44.754  49.710  44.995  1.00  0.00    -0.646 OA
HETATM   31  O5  UNL     1      42.888  49.177  43.851  1.00  0.00    -0.646 OA
ENDBRANCH  28  29
BRANCH  28  32
HETATM   32  C19 UNL     1      45.476  46.893  43.695  1.00  0.00     0.155 C 
BRANCH  32  33
HETATM   33  O6  UNL     1      46.669  47.458  44.141  1.00  0.00    -0.393 OA
ATOM     34  H6  UNL     1      47.188  46.760  44.522  1.00  0.00     0.210 HD
ENDBRANCH  32  33
BRANCH  32  35
HETATM   35  C20 UNL     1      45.292  47.287  42.271  1.00  0.00     0.017 C 
HETATM   36  C21 UNL     1      46.554  46.870  41.506  1.00  0.00     0.008 C 
HETATM   37  C22 UNL     1      46.456  47.165  40.055  1.00  0.00     0.009 C 
HETATM   38  C23 UNL     1      45.170  47.736  39.577  1.00  0.00    -0.048 C 
HETATM   39  C24 UNL     1      45.215  49.250  39.650  1.00  0.00     0.015 C 
HETATM   40  C25 UNL     1      45.054  47.405  38.090  1.00  0.00     0.015 C 
HETATM   41  C26 UNL     1      43.938  47.257  40.257  1.00  0.00     0.009 C 
HETATM   42  C27 UNL     1      44.181  46.543  41.563  1.00  0.00     0.008 C 
ENDBRANCH  32  35
ENDBRANCH  28  32
ENDBRANCH  26  28
ENDBRANCH   1  24
TORSDOF 14
ENDMDL
MODEL 4
REMARK VINA RESULT: -8.418744048      1.210      1.795
REMARK  14 active torsions:
REMARK  status: ('A' for Active; 'I' for Inactive)
REMARK    1  A    between atoms: C2_2  and  C3_3 
REMARK    2  A    between atoms: C3_3  and  C5_5 
REMARK    3  A    between atoms: C5_5  and  N1_6 
REMARK    4  A    between atoms: C5_5  and  C16_24 
REMARK       I    between atoms: N1_6  and  C6_8 
REMARK    5  A    between atoms: C6_8  and  C7_10 
REMARK    6  A    between atoms: C7_10  and  C8_11 
REMARK    7  A    between atoms: C7_10  and  N2_15 
REMARK    8  A    between atoms: C8_11  and  C9_12 
REMARK       I    between atoms: N2_15  and  C12_17 
REMARK       I    between atoms: C12_17  and  N3_19 
REMARK    9  A    between atoms: N3_19  and  C13_21 
REMARK       I    between atoms: C16_24  and  N4_26 
REMARK   10  A    between atoms: N4_26  and  C17_28 
REMARK   11  A    between atoms: C17_28  and  C18_29 
REMARK   12  A    between atoms: C17_28  and  C19_32 
REMARK   13  A    between atoms: C19_32  and  O6_33 
REMARK   14  A    between atoms: C19_32  and  C20_35 
ROOT
HETATM    1  C5  UNL     1      43.856  52.221  42.560  1.00  0.00     0.180 C 
ENDROOT
BRANCH   1   2
HETATM    2  C3  UNL     1      44.393  53.241  43.496  1.00  0.00     0.013 C 
HETATM    3  C4  UNL     1      45.884  53.059  43.737  1.00  0.00     0.012 C 
BRANCH   2   4
HETATM    4  C2  UNL     1      43.706  53.282  44.829  1.00  0.00     0.002 C 
HETATM    5  C1  UNL     1      42.457  54.091  44.882  1.00  0.00     0.005 C 
ENDBRANCH   2   4
ENDBRANCH   1   2
BRANCH   1   6
HETATM    6  N1  UNL     1      44.638  51.006  42.552  1.00  0.00    -0.346 N 
HETATM    7  C6  UNL     1      44.277  49.827  43.251  1.00  0.00     0.241 C 
HETATM    8  O1  UNL     1      43.228  49.779  43.931  1.00  0.00    -0.271 OA
ATOM      9  H1  UNL     1      45.502  50.996  42.010  1.00  0.00     0.163 HD
BRANCH   7  10
HETATM   10  C7  UNL     1      45.168  48.594  43.180  1.00  0.00     0.178 C 
BRANCH  10  11
HETATM   11  C8  UNL     1      46.334  48.868  42.293  1.00  0.00     0.038 C 
BRANCH  11  12
HETATM   12  C9  UNL     1      46.714  47.821  41.316  1.00  0.00    -0.020 C 
HETATM   13  C10 UNL     1      45.794  46.662  41.166  1.00  0.00     0.009 C 
HETATM   14  C11 UNL     1      47.058  48.365  39.943  1.00  0.00     0.009 C 
ENDBRANCH  11  12
ENDBRANCH  10  11
BRANCH  10  15
HETATM   15  N2  UNL     1      45.518  48.242  44.542  1.00  0.00    -0.330 N 
HETATM   16  C12 UNL     1      45.224  46.976  45.109  1.00  0.00     0.317 C 
HETATM   17  O2  UNL     1      44.644  46.135  44.373  1.00  0.00    -0.247 OA
HETATM   18  N3  UNL     1      45.568  46.664  46.459  1.00  0.00    -0.339 N 
ATOM     19  H3  UNL     1      46.036  47.359  47.041  1.00  0.00     0.164 HD
ATOM     20  H2  UNL     1      45.997  48.935  45.117  1.00  0.00     0.165 HD
BRANCH  18  21
HETATM   21  C13 UNL     1      45.254  45.364  47.001  1.00  0.00     0.078 C 
HETATM   22  C14 UNL     1      46.343  44.796  47.867  1.00  0.00     0.032 C 
HETATM   23  C15 UNL     1      43.945  45.498  47.794  1.00  0.00     0.032 C 
ENDBRANCH  18  21
ENDBRANCH  10  15
ENDBRANCH   7  10
ENDBRANCH   1   6
BRANCH   1  24
HETATM   24  C16 UNL     1      43.888  52.804  41.164  1.00  0.00     0.241 C 
HETATM   25  O3  UNL     1      43.847  54.038  40.981  1.00  0.00    -0.271 OA
HETATM   26  N4  UNL     1      43.971  51.920  40.066  1.00  0.00    -0.343 N 
ATOM     27  H4  UNL     1      43.996  50.917  40.247  1.00  0.00     0.163 HD
BRANCH  26  28
HETATM   28  C17 UNL     1      44.023  52.391  38.662  1.00  0.00     0.214 C 
BRANCH  28  29
HETATM   29  C18 UNL     1      45.456  52.379  38.291  1.00  0.00     0.199 C 
HETATM   30  O4  UNL     1      45.902  51.734  37.291  1.00  0.00    -0.646 OA
HETATM   31  O5  UNL     1      46.387  53.079  39.032  1.00  0.00    -0.646 OA
ENDBRANCH  28  29
BRANCH  28  32
HETATM   32  C19 UNL     1      43.161  51.452  37.878  1.00  0.00     0.155 C 
BRANCH  32  33
HETATM   33  O6  UNL     1      41.914  52.058  37.734  1.00  0.00    -0.393 OA
ATOM     34  H6  UNL     1      42.004  52.736  37.074  1.00  0.00     0.210 HD
ENDBRANCH  32  33
BRANCH  32  35
HETATM   35  C20 UNL     1      42.945  50.120  38.510  1.00  0.00     0.017 C 
HETATM   36  C21 UNL     1      41.494  49.707  38.240  1.00  0.00     0.008 C 
HETATM   37  C22 UNL     1      41.184  48.359  38.778  1.00  0.00     0.009 C 
HETATM   38  C23 UNL     1      42.306  47.620  39.412  1.00  0.00    -0.048 C 
HETATM   39  C24 UNL     1      42.373  47.946  40.891  1.00  0.00     0.015 C 
HETATM   40  C25 UNL     1      41.966  46.132  39.339  1.00  0.00     0.015 C 
HETATM   41  C26 UNL     1      43.653  47.818  38.814  1.00  0.00     0.009 C 
HETATM   42  C27 UNL     1      43.758  49.005  37.889  1.00  0.00     0.008 C 
ENDBRANCH  32  35
ENDBRANCH  28  32
ENDBRANCH  26  28
ENDBRANCH   1  24
TORSDOF 14
ENDMDL
MODEL 5
REMARK VINA RESULT: -8.389524496      3.869      7.869
REMARK  14 active torsions:
REMARK  status: ('A' for Active; 'I' for Inactive)
REMARK    1  A    between atoms: C2_2  and  C3_3 
REMARK    2  A    between atoms: C3_3  and  C5_5 
REMARK    3  A    between atoms: C5_5  and  N1_6 
REMARK    4  A    between atoms: C5_5  and  C16_24 
REMARK       I    between atoms: N1_6  and  C6_8 
REMARK    5  A    between atoms: C6_8  and  C7_10 
REMARK    6  A    between atoms: C7_10  and  C8_11 
REMARK    7  A    between atoms: C7_10  and  N2_15 
REMARK    8  A    between atoms: C8_11  and  C9_12 
REMARK       I    between atoms: N2_15  and  C12_17 
REMARK       I    between atoms: C12_17  and  N3_19 
REMARK    9  A    between atoms: N3_19  and  C13_21 
REMARK       I    between atoms: C16_24  and  N4_26 
REMARK   10  A    between atoms: N4_26  and  C17_28 
REMARK   11  A    between atoms: C17_28  and  C18_29 
REMARK   12  A    between atoms: C17_28  and  C19_32 
REMARK   13  A    between atoms: C19_32  and  O6_33 
REMARK   14  A    between atoms: C19_32  and  C20_35 
ROOT
HETATM    1  C5  UNL     1      45.549  45.891  48.159  1.00  0.00     0.180 C 
ENDROOT
BRANCH   1   2
HETATM    2  C3  UNL     1      46.926  46.447  48.136  1.00  0.00     0.013 C 
HETATM    3  C4  UNL     1      47.956  45.392  47.764  1.00  0.00     0.012 C 
BRANCH   2   4
HETATM    4  C2  UNL     1      47.357  47.089  49.421  1.00  0.00     0.002 C 
HETATM    5  C1  UNL     1      47.999  46.179  50.409  1.00  0.00     0.005 C 
ENDBRANCH   2   4
ENDBRANCH   1   2
BRANCH   1   6
HETATM    6  N1  UNL     1      45.507  44.528  48.637  1.00  0.00    -0.346 N 
HETATM    7  C6  UNL     1      44.452  43.994  49.418  1.00  0.00     0.241 C 
HETATM    8  O1  UNL     1      43.472  44.701  49.741  1.00  0.00    -0.271 OA
ATOM      9  H1  UNL     1      46.285  43.913  48.397  1.00  0.00     0.163 HD
BRANCH   7  10
HETATM   10  C7  UNL     1      44.497  42.542  49.874  1.00  0.00     0.178 C 
BRANCH  10  11
HETATM   11  C8  UNL     1      45.727  41.888  49.343  1.00  0.00     0.038 C 
BRANCH  11  12
HETATM   12  C9  UNL     1      46.826  41.615  50.298  1.00  0.00    -0.020 C 
HETATM   13  C10 UNL     1      47.119  40.191  50.610  1.00  0.00     0.009 C 
HETATM   14  C11 UNL     1      48.120  42.328  49.960  1.00  0.00     0.009 C 
ENDBRANCH  11  12
ENDBRANCH  10  11
BRANCH  10  15
HETATM   15  N2  UNL     1      44.395  42.546  51.320  1.00  0.00    -0.330 N 
HETATM   16  C12 UNL     1      43.943  41.424  52.062  1.00  0.00     0.317 C 
HETATM   17  O2  UNL     1      43.635  40.391  51.413  1.00  0.00    -0.247 OA
HETATM   18  N3  UNL     1      43.837  41.463  53.485  1.00  0.00    -0.339 N 
ATOM     19  H3  UNL     1      44.090  42.312  53.993  1.00  0.00     0.164 HD
ATOM     20  H2  UNL     1      44.659  43.391  51.826  1.00  0.00     0.165 HD
BRANCH  18  21
HETATM   21  C13 UNL     1      43.375  40.302  54.205  1.00  0.00     0.078 C 
HETATM   22  C14 UNL     1      44.306  39.126  54.106  1.00  0.00     0.032 C 
HETATM   23  C15 UNL     1      43.177  40.715  55.671  1.00  0.00     0.032 C 
ENDBRANCH  18  21
ENDBRANCH  10  15
ENDBRANCH   7  10
ENDBRANCH   1   6
BRANCH   1  24
HETATM   24  C16 UNL     1      45.015  45.904  46.743  1.00  0.00     0.241 C 
HETATM   25  O3  UNL     1      44.692  44.844  46.170  1.00  0.00    -0.271 OA
HETATM   26  N4  UNL     1      44.885  47.144  46.082  1.00  0.00    -0.343 N 
ATOM     27  H4  UNL     1      45.165  47.992  46.574  1.00  0.00     0.163 HD
BRANCH  26  28
HETATM   28  C17 UNL     1      44.359  47.265  44.702  1.00  0.00     0.214 C 
BRANCH  28  29
HETATM   29  C18 UNL     1      43.945  48.678  44.556  1.00  0.00     0.199 C 
HETATM   30  O4  UNL     1      42.870  49.023  43.974  1.00  0.00    -0.646 OA
HETATM   31  O5  UNL     1      44.726  49.702  45.055  1.00  0.00    -0.646 OA
ENDBRANCH  28  29
BRANCH  28  32
HETATM   32  C19 UNL     1      45.470  46.836  43.797  1.00  0.00     0.155 C 
BRANCH  32  33
HETATM   33  O6  UNL     1      46.644  47.408  44.282  1.00  0.00    -0.393 OA
ATOM     34  H6  UNL     1      47.321  46.743  44.241  1.00  0.00     0.210 HD
ENDBRANCH  32  33
BRANCH  32  35
HETATM   35  C20 UNL     1      45.318  47.252  42.374  1.00  0.00     0.017 C 
HETATM   36  C21 UNL     1      46.615  46.888  41.642  1.00  0.00     0.008 C 
HETATM   37  C22 UNL     1      46.552  47.207  40.194  1.00  0.00     0.009 C 
HETATM   38  C23 UNL     1      45.265  47.747  39.686  1.00  0.00    -0.048 C 
HETATM   39  C24 UNL     1      45.260  49.260  39.788  1.00  0.00     0.015 C 
HETATM   40  C25 UNL     1      45.205  47.441  38.191  1.00  0.00     0.015 C 
HETATM   41  C26 UNL     1      44.028  47.218  40.319  1.00  0.00     0.009 C 
HETATM   42  C27 UNL     1      44.252  46.487  41.619  1.00  0.00     0.008 C 
ENDBRANCH  32  35
ENDBRANCH  28  32
ENDBRANCH  26  28
ENDBRANCH   1  24
TORSDOF 14
ENDMDL
