MODEL 1
REMARK VINA RESULT: -8.594850301      0.000      0.000
REMARK  16 active torsions:
REMARK  status: ('A' for Active; 'I' for Inactive)
REMARK    1  A    between atoms: C2_2  and  C4_4 
REMARK    2  A    between atoms: C4_4  and  C5_5 
REMARK    3  A    between atoms: C4_4  and  C6_10 
REMARK    4  A    between atoms: C5_5  and  N1_6 
REMARK       I    between atoms: C6_10  and  N2_12 
REMARK    5  A    between atoms: N2_12  and  C7_14 
REMARK    6  A    between atoms: C7_14  and  C8_15 
REMARK    7  A    between atoms: C7_14  and  C15_22 
REMARK    8  A    between atoms: C8_15  and  C9_16 
REMARK    9  A    between atoms: C15_22  and  C16_23 
REMARK   10  A    between atoms: C15_22  and  N5_31 
REMARK   11  A    between atoms: C16_23  and  O2_24 
REMARK   12  A    between atoms: N3_26  and  N4_28 
REMARK   13  A    between atoms: C20_35  and  C21_36 
REMARK       I    between atoms: C21_36  and  N6_38 
REMARK   14  A    between atoms: N6_38  and  C22_40 
REMARK   15  A    between atoms: C22_40  and  C23_41 
REMARK   16  A    between atoms: C23_41  and  C24_42 
ROOT
HETATM    1  C15 UNL     1      46.533  52.817  41.056  1.00  0.00     0.179 C 
ENDROOT
BRANCH   1   2
HETATM    2  C7  UNL     1      45.319  52.074  41.596  1.00  0.00     0.115 C 
BRANCH   2   3
HETATM    3  N2  UNL     1      45.628  50.691  41.629  1.00  0.00    -0.354 N 
HETATM    4  C6  UNL     1      44.832  49.569  41.879  1.00  0.00     0.224 C 
HETATM    5  O1  UNL     1      43.581  49.641  42.135  1.00  0.00    -0.273 OA
ATOM      6  H2  UNL     1      46.606  50.476  41.435  1.00  0.00     0.163 HD
BRANCH   4   7
HETATM    7  C4  UNL     1      45.352  48.184  41.872  1.00  0.00     0.106 C 
BRANCH   7   8
HETATM    8  C2  UNL     1      46.361  47.869  40.833  1.00  0.00    -0.008 C 
HETATM    9  C1  UNL     1      45.846  47.518  39.482  1.00  0.00     0.010 C 
HETATM   10  C3  UNL     1      47.349  46.833  41.311  1.00  0.00     0.010 C 
ENDBRANCH   7   8
BRANCH   7  11
HETATM   11  C5  UNL     1      45.844  47.759  43.248  1.00  0.00     0.243 C 
BRANCH  11  12
HETATM   12  N1  UNL     1      44.715  47.579  44.141  1.00  0.00    -0.079 N 
ATOM     13  H13 UNL     1      43.828  47.560  43.638  1.00  0.00     0.274 HD
ATOM     14  H12 UNL     1      44.683  46.638  44.534  1.00  0.00     0.274 HD
ATOM     15  H11 UNL     1      44.729  48.296  44.866  1.00  0.00     0.274 HD
ENDBRANCH  11  12
ENDBRANCH   7  11
ENDBRANCH   4   7
ENDBRANCH   2   3
BRANCH   2  16
HETATM   16  C8  UNL     1      44.878  52.666  42.903  1.00  0.00     0.032 C 
BRANCH  16  17
HETATM   17  C9  UNL     1      43.449  53.155  42.938  1.00  0.00    -0.013 C 
HETATM   18  C10 UNL     1      43.230  54.508  42.361  1.00  0.00     0.005 C 
HETATM   19  C11 UNL     1      43.566  55.644  43.298  1.00  0.00     0.000 C 
HETATM   20  C12 UNL     1      42.849  55.469  44.632  1.00  0.00     0.000 C 
HETATM   21  C13 UNL     1      43.459  54.195  45.236  1.00  0.00     0.000 C 
HETATM   22  C14 UNL     1      42.968  53.057  44.392  1.00  0.00     0.005 C 
ENDBRANCH  16  17
ENDBRANCH   2  16
ENDBRANCH   1   2
BRANCH   1  23
HETATM   23  C16 UNL     1      47.557  53.091  42.094  1.00  0.00     0.155 C 
HETATM   24  N3  UNL     1      47.553  54.062  42.926  1.00  0.00    -0.288 N 
ATOM     25  H3  UNL     1      46.776  54.722  42.887  1.00  0.00     0.188 HD
BRANCH  23  26
HETATM   26  O2  UNL     1      48.656  52.219  42.205  1.00  0.00    -0.347 OA
ATOM     27  H2  UNL     1      48.880  51.875  43.061  1.00  0.00     0.219 HD
ENDBRANCH  23  26
BRANCH  24  28
HETATM   28  N4  UNL     1      48.537  54.275  43.880  1.00  0.00    -0.343 N 
ATOM     29  H42 UNL     1      49.440  53.830  43.717  1.00  0.00     0.176 HD
ATOM     30  H41 UNL     1      48.410  54.840  44.720  1.00  0.00     0.176 HD
ENDBRANCH  24  28
ENDBRANCH   1  23
BRANCH   1  31
HETATM   31  N5  UNL     1      46.140  53.923  40.316  1.00  0.00    -0.387 N 
HETATM   32  C17 UNL     1      46.596  55.222  40.645  1.00  0.00     0.118 C 
HETATM   33  C18 UNL     1      46.310  56.028  39.366  1.00  0.00     0.022 C 
HETATM   34  C19 UNL     1      45.160  55.324  38.716  1.00  0.00     0.036 C 
HETATM   35  C20 UNL     1      45.071  53.967  39.442  1.00  0.00     0.172 C 
BRANCH  35  36
HETATM   36  C21 UNL     1      44.810  52.907  38.483  1.00  0.00     0.240 C 
HETATM   37  O3  UNL     1      45.819  52.571  37.747  1.00  0.00    -0.271 OA
HETATM   38  N6  UNL     1      43.636  52.196  38.238  1.00  0.00    -0.359 N 
ATOM     39  H6  UNL     1      42.810  52.418  38.794  1.00  0.00     0.162 HD
BRANCH  38  40
HETATM   40  C22 UNL     1      43.527  51.144  37.222  1.00  0.00     0.123 C 
BRANCH  40  41
HETATM   41  C23 UNL     1      43.459  49.762  37.823  1.00  0.00     0.024 C 
BRANCH  41  42
HETATM   42  C24 UNL     1      42.085  49.504  38.413  1.00  0.00    -0.013 C 
HETATM   43  C25 UNL     1      42.118  48.299  39.335  1.00  0.00     0.005 C 
HETATM   44  C26 UNL     1      41.947  46.994  38.626  1.00  0.00     0.000 C 
HETATM   45  C27 UNL     1      40.855  46.968  37.606  1.00  0.00     0.000 C 
HETATM   46  C28 UNL     1      41.152  48.073  36.586  1.00  0.00     0.000 C 
HETATM   47  C29 UNL     1      41.032  49.364  37.360  1.00  0.00     0.005 C 
ENDBRANCH  41  42
ENDBRANCH  40  41
ENDBRANCH  38  40
ENDBRANCH  35  36
ENDBRANCH   1  31
TORSDOF 16
ENDMDL
MODEL 2
REMARK VINA RESULT: -8.395967899      3.100      7.383
REMARK  16 active torsions:
REMARK  status: ('A' for Active; 'I' for Inactive)
REMARK    1  A    between atoms: C2_2  and  C4_4 
REMARK    2  A    between atoms: C4_4  and  C5_5 
REMARK    3  A    between atoms: C4_4  and  C6_10 
REMARK    4  A    between atoms: C5_5  and  N1_6 
REMARK       I    between atoms: C6_10  and  N2_12 
REMARK    5  A    between atoms: N2_12  and  C7_14 
REMARK    6  A    between atoms: C7_14  and  C8_15 
REMARK    7  A    between atoms: C7_14  and  C15_22 
REMARK    8  A    between atoms: C8_15  and  C9_16 
REMARK    9  A    between atoms: C15_22  and  C16_23 
REMARK   10  A    between atoms: C15_22  and  N5_31 
REMARK   11  A    between atoms: C16_23  and  O2_24 
REMARK   12  A    between atoms: N3_26  and  N4_28 
REMARK   13  A    between atoms: C20_35  and  C21_36 
REMARK       I    between atoms: C21_36  and  N6_38 
REMARK   14  A    between atoms: N6_38  and  C22_40 
REMARK   15  A    between atoms: C22_40  and  C23_41 
REMARK   16  A    between atoms: C23_41  and  C24_42 
ROOT
HETATM    1  C15 UNL     1      45.470  49.805  41.659  1.00  0.00     0.179 C 
ENDROOT
BRANCH   1   2
HETATM    2  C7  UNL     1      45.389  50.949  40.658  1.00  0.00     0.115 C 
BRANCH   2   3
HETATM    3  N2  UNL     1      44.652  50.499  39.534  1.00  0.00    -0.354 N 
HETATM    4  C6  UNL     1      44.665  50.903  38.195  1.00  0.00     0.224 C 
HETATM    5  O1  UNL     1      45.428  51.827  37.749  1.00  0.00    -0.273 OA
ATOM      6  H2  UNL     1      43.994  49.748  39.739  1.00  0.00     0.163 HD
BRANCH   4   7
HETATM    7  C4  UNL     1      43.800  50.302  37.156  1.00  0.00     0.106 C 
BRANCH   7   8
HETATM    8  C2  UNL     1      43.462  48.870  37.333  1.00  0.00    -0.008 C 
HETATM    9  C1  UNL     1      44.585  47.898  37.235  1.00  0.00     0.010 C 
HETATM   10  C3  UNL     1      42.318  48.452  36.441  1.00  0.00     0.010 C 
ENDBRANCH   7   8
BRANCH   7  11
HETATM   11  C5  UNL     1      42.543  51.128  36.921  1.00  0.00     0.243 C 
BRANCH  11  12
HETATM   12  N1  UNL     1      42.674  51.884  35.689  1.00  0.00    -0.079 N 
ATOM     13  H13 UNL     1      43.503  51.613  35.159  1.00  0.00     0.274 HD
ATOM     14  H12 UNL     1      41.967  51.622  35.002  1.00  0.00     0.274 HD
ATOM     15  H11 UNL     1      42.659  52.883  35.892  1.00  0.00     0.274 HD
ENDBRANCH  11  12
ENDBRANCH   7  11
ENDBRANCH   4   7
ENDBRANCH   2   3
BRANCH   2  16
HETATM   16  C8  UNL     1      44.863  52.190  41.318  1.00  0.00     0.032 C 
BRANCH  16  17
HETATM   17  C9  UNL     1      45.728  52.745  42.426  1.00  0.00    -0.013 C 
HETATM   18  C10 UNL     1      45.066  53.752  43.299  1.00  0.00     0.005 C 
HETATM   19  C11 UNL     1      45.035  55.148  42.722  1.00  0.00     0.000 C 
HETATM   20  C12 UNL     1      46.433  55.586  42.301  1.00  0.00     0.000 C 
HETATM   21  C13 UNL     1      46.809  54.636  41.154  1.00  0.00     0.000 C 
HETATM   22  C14 UNL     1      47.009  53.287  41.779  1.00  0.00     0.005 C 
ENDBRANCH  16  17
ENDBRANCH   2  16
ENDBRANCH   1   2
BRANCH   1  23
HETATM   23  C16 UNL     1      46.517  48.811  41.322  1.00  0.00     0.155 C 
HETATM   24  N3  UNL     1      46.518  47.572  41.641  1.00  0.00    -0.288 N 
ATOM     25  H3  UNL     1      45.728  47.216  42.179  1.00  0.00     0.188 HD
BRANCH  23  26
HETATM   26  O2  UNL     1      47.636  49.232  40.580  1.00  0.00    -0.347 OA
ATOM     27  H2  UNL     1      48.330  49.701  41.028  1.00  0.00     0.219 HD
ENDBRANCH  23  26
BRANCH  24  28
HETATM   28  N4  UNL     1      47.525  46.680  41.301  1.00  0.00    -0.343 N 
ATOM     29  H42 UNL     1      48.379  47.077  40.912  1.00  0.00     0.176 HD
ATOM     30  H41 UNL     1      47.458  45.668  41.416  1.00  0.00     0.176 HD
ENDBRANCH  24  28
ENDBRANCH   1  23
BRANCH   1  31
HETATM   31  N5  UNL     1      44.211  49.271  41.894  1.00  0.00    -0.387 N 
HETATM   32  C17 UNL     1      43.285  49.089  40.838  1.00  0.00     0.118 C 
HETATM   33  C18 UNL     1      42.266  48.102  41.433  1.00  0.00     0.022 C 
HETATM   34  C19 UNL     1      42.321  48.335  42.911  1.00  0.00     0.036 C 
HETATM   35  C20 UNL     1      43.600  49.169  43.129  1.00  0.00     0.172 C 
BRANCH  35  36
HETATM   36  C21 UNL     1      44.307  48.695  44.307  1.00  0.00     0.240 C 
HETATM   37  O3  UNL     1      44.796  49.623  45.064  1.00  0.00    -0.271 OA
HETATM   38  N6  UNL     1      44.534  47.391  44.745  1.00  0.00    -0.359 N 
ATOM     39  H6  UNL     1      44.166  46.622  44.186  1.00  0.00     0.162 HD
BRANCH  38  40
HETATM   40  C22 UNL     1      45.276  47.070  45.968  1.00  0.00     0.123 C 
BRANCH  40  41
HETATM   41  C23 UNL     1      44.787  45.805  46.628  1.00  0.00     0.024 C 
BRANCH  41  42
HETATM   42  C24 UNL     1      45.190  45.776  48.091  1.00  0.00    -0.013 C 
HETATM   43  C25 UNL     1      46.643  46.185  48.252  1.00  0.00     0.005 C 
HETATM   44  C26 UNL     1      47.609  45.060  48.068  1.00  0.00     0.000 C 
HETATM   45  C27 UNL     1      47.238  43.790  48.764  1.00  0.00     0.000 C 
HETATM   46  C28 UNL     1      45.856  43.371  48.251  1.00  0.00     0.000 C 
HETATM   47  C29 UNL     1      44.917  44.451  48.729  1.00  0.00     0.005 C 
ENDBRANCH  41  42
ENDBRANCH  40  41
ENDBRANCH  38  40
ENDBRANCH  35  36
ENDBRANCH   1  31
TORSDOF 16
ENDMDL
MODEL 3
REMARK VINA RESULT: -8.107602779     12.374     15.867
REMARK  16 active torsions:
REMARK  status: ('A' for Active; 'I' for Inactive)
REMARK    1  A    between atoms: C2_2  and  C4_4 
REMARK    2  A    between atoms: C4_4  and  C5_5 
REMARK    3  A    between atoms: C4_4  and  C6_10 
REMARK    4  A    between atoms: C5_5  and  N1_6 
REMARK       I    between atoms: C6_10  and  N2_12 
REMARK    5  A    between atoms: N2_12  and  C7_14 
REMARK    6  A    between atoms: C7_14  and  C8_15 
REMARK    7  A    between atoms: C7_14  and  C15_22 
REMARK    8  A    between atoms: C8_15  and  C9_16 
REMARK    9  A    between atoms: C15_22  and  C16_23 
REMARK   10  A    between atoms: C15_22  and  N5_31 
REMARK   11  A    between atoms: C16_23  and  O2_24 
REMARK   12  A    between atoms: N3_26  and  N4_28 
REMARK   13  A    between atoms: C20_35  and  C21_36 
REMARK       I    between atoms: C21_36  and  N6_38 
REMARK   14  A    between atoms: N6_38  and  C22_40 
REMARK   15  A    between atoms: C22_40  and  C23_41 
REMARK   16  A    between atoms: C23_41  and  C24_42 
ROOT
HETATM    1  C15 UNL     1      45.777  43.189  50.696  1.00  0.00     0.179 C 
ENDROOT
BRANCH   1   2
HETATM    2  C7  UNL     1      44.792  42.554  51.665  1.00  0.00     0.115 C 
BRANCH   2   3
HETATM    3  N2  UNL     1      44.919  41.145  51.562  1.00  0.00    -0.354 N 
HETATM    4  C6  UNL     1      44.016  40.161  51.150  1.00  0.00     0.224 C 
HETATM    5  O1  UNL     1      42.825  40.420  50.764  1.00  0.00    -0.273 OA
ATOM      6  H2  UNL     1      45.833  40.787  51.837  1.00  0.00     0.163 HD
BRANCH   4   7
HETATM    7  C4  UNL     1      44.344  38.719  51.117  1.00  0.00     0.106 C 
BRANCH   7   8
HETATM    8  C2  UNL     1      43.481  37.831  51.931  1.00  0.00    -0.008 C 
HETATM    9  C1  UNL     1      43.417  38.111  53.391  1.00  0.00     0.010 C 
HETATM   10  C3  UNL     1      43.786  36.374  51.682  1.00  0.00     0.010 C 
ENDBRANCH   7   8
BRANCH   7  11
HETATM   11  C5  UNL     1      44.460  38.199  49.691  1.00  0.00     0.243 C 
BRANCH  11  12
HETATM   12  N1  UNL     1      44.445  39.310  48.758  1.00  0.00    -0.079 N 
ATOM     13  H13 UNL     1      43.547  39.399  48.282  1.00  0.00     0.274 HD
ATOM     14  H12 UNL     1      44.450  40.212  49.235  1.00  0.00     0.274 HD
ATOM     15  H11 UNL     1      45.220  39.221  48.100  1.00  0.00     0.274 HD
ENDBRANCH  11  12
ENDBRANCH   7  11
ENDBRANCH   4   7
ENDBRANCH   2   3
BRANCH   2  16
HETATM   16  C8  UNL     1      44.972  43.116  53.045  1.00  0.00     0.032 C 
BRANCH  16  17
HETATM   17  C9  UNL     1      45.187  42.092  54.135  1.00  0.00    -0.013 C 
HETATM   18  C10 UNL     1      44.021  41.872  55.032  1.00  0.00     0.005 C 
HETATM   19  C11 UNL     1      43.879  42.902  56.128  1.00  0.00     0.000 C 
HETATM   20  C12 UNL     1      45.182  43.041  56.906  1.00  0.00     0.000 C 
HETATM   21  C13 UNL     1      46.184  43.606  55.888  1.00  0.00     0.000 C 
HETATM   22  C14 UNL     1      46.448  42.503  54.907  1.00  0.00     0.005 C 
ENDBRANCH  16  17
ENDBRANCH   2  16
ENDBRANCH   1   2
BRANCH   1  23
HETATM   23  C16 UNL     1      45.353  43.078  49.279  1.00  0.00     0.155 C 
HETATM   24  N3  UNL     1      46.002  43.494  48.257  1.00  0.00    -0.288 N 
ATOM     25  H3  UNL     1      46.901  43.950  48.415  1.00  0.00     0.188 HD
BRANCH  23  26
HETATM   26  O2  UNL     1      44.124  42.459  48.988  1.00  0.00    -0.347 OA
ATOM     27  H2  UNL     1      43.873  42.347  48.078  1.00  0.00     0.219 HD
ENDBRANCH  23  26
BRANCH  24  28
HETATM   28  N4  UNL     1      45.561  43.365  46.948  1.00  0.00    -0.343 N 
ATOM     29  H42 UNL     1      45.203  44.207  46.498  1.00  0.00     0.176 HD
ATOM     30  H41 UNL     1      45.575  42.491  46.422  1.00  0.00     0.176 HD
ENDBRANCH  24  28
ENDBRANCH   1  23
BRANCH   1  31
HETATM   31  N5  UNL     1      47.069  42.755  50.956  1.00  0.00    -0.387 N 
HETATM   32  C17 UNL     1      47.511  41.480  50.528  1.00  0.00     0.118 C 
HETATM   33  C18 UNL     1      49.044  41.595  50.609  1.00  0.00     0.022 C 
HETATM   34  C19 UNL     1      49.297  42.626  51.665  1.00  0.00     0.036 C 
HETATM   35  C20 UNL     1      47.930  43.306  51.885  1.00  0.00     0.172 C 
BRANCH  35  36
HETATM   36  C21 UNL     1      48.107  44.742  52.023  1.00  0.00     0.240 C 
HETATM   37  O3  UNL     1      48.651  45.328  51.006  1.00  0.00    -0.271 OA
HETATM   38  N6  UNL     1      47.777  45.582  53.085  1.00  0.00    -0.359 N 
ATOM     39  H6  UNL     1      47.342  45.171  53.911  1.00  0.00     0.162 HD
BRANCH  38  40
HETATM   40  C22 UNL     1      48.023  47.027  53.076  1.00  0.00     0.123 C 
BRANCH  40  41
HETATM   41  C23 UNL     1      48.839  47.484  54.259  1.00  0.00     0.024 C 
BRANCH  41  42
HETATM   42  C24 UNL     1      50.075  48.235  53.796  1.00  0.00    -0.013 C 
HETATM   43  C25 UNL     1      50.856  47.408  52.791  1.00  0.00     0.005 C 
HETATM   44  C26 UNL     1      51.804  46.437  53.418  1.00  0.00     0.000 C 
HETATM   45  C27 UNL     1      52.621  46.988  54.541  1.00  0.00     0.000 C 
HETATM   46  C28 UNL     1      51.650  47.517  55.601  1.00  0.00     0.000 C 
HETATM   47  C29 UNL     1      50.935  48.670  54.939  1.00  0.00     0.005 C 
ENDBRANCH  41  42
ENDBRANCH  40  41
ENDBRANCH  38  40
ENDBRANCH  35  36
ENDBRANCH   1  31
TORSDOF 16
ENDMDL
MODEL 4
REMARK VINA RESULT: -8.034239965      3.211      7.597
REMARK  16 active torsions:
REMARK  status: ('A' for Active; 'I' for Inactive)
REMARK    1  A    between atoms: C2_2  and  C4_4 
REMARK    2  A    between atoms: C4_4  and  C5_5 
REMARK    3  A    between atoms: C4_4  and  C6_10 
REMARK    4  A    between atoms: C5_5  and  N1_6 
REMARK       I    between atoms: C6_10  and  N2_12 
REMARK    5  A    between atoms: N2_12  and  C7_14 
REMARK    6  A    between atoms: C7_14  and  C8_15 
REMARK    7  A    between atoms: C7_14  and  C15_22 
REMARK    8  A    between atoms: C8_15  and  C9_16 
REMARK    9  A    between atoms: C15_22  and  C16_23 
REMARK   10  A    between atoms: C15_22  and  N5_31 
REMARK   11  A    between atoms: C16_23  and  O2_24 
REMARK   12  A    between atoms: N3_26  and  N4_28 
REMARK   13  A    between atoms: C20_35  and  C21_36 
REMARK       I    between atoms: C21_36  and  N6_38 
REMARK   14  A    between atoms: N6_38  and  C22_40 
REMARK   15  A    between atoms: C22_40  and  C23_41 
REMARK   16  A    between atoms: C23_41  and  C24_42 
ROOT
HETATM    1  C15 UNL     1      44.454  49.334  41.440  1.00  0.00     0.179 C 
ENDROOT
BRANCH   1   2
HETATM    2  C7  UNL     1      44.335  50.246  40.228  1.00  0.00     0.115 C 
BRANCH   2   3
HETATM    3  N2  UNL     1      43.172  49.872  39.509  1.00  0.00    -0.354 N 
HETATM    4  C6  UNL     1      42.920  48.800  38.646  1.00  0.00     0.224 C 
HETATM    5  O1  UNL     1      43.793  47.911  38.359  1.00  0.00    -0.273 OA
ATOM      6  H2  UNL     1      42.377  50.496  39.645  1.00  0.00     0.163 HD
BRANCH   4   7
HETATM    7  C4  UNL     1      41.618  48.583  37.978  1.00  0.00     0.106 C 
BRANCH   7   8
HETATM    8  C2  UNL     1      41.435  49.247  36.667  1.00  0.00    -0.008 C 
HETATM    9  C1  UNL     1      40.830  50.607  36.682  1.00  0.00     0.010 C 
HETATM   10  C3  UNL     1      40.713  48.356  35.685  1.00  0.00     0.010 C 
ENDBRANCH   7   8
BRANCH   7  11
HETATM   11  C5  UNL     1      41.270  47.103  37.887  1.00  0.00     0.243 C 
BRANCH  11  12
HETATM   12  N1  UNL     1      41.185  46.533  39.218  1.00  0.00    -0.079 N 
ATOM     13  H13 UNL     1      40.406  46.920  39.751  1.00  0.00     0.274 HD
ATOM     14  H12 UNL     1      40.884  45.558  39.200  1.00  0.00     0.274 HD
ATOM     15  H11 UNL     1      42.075  46.649  39.703  1.00  0.00     0.274 HD
ENDBRANCH  11  12
ENDBRANCH   7  11
ENDBRANCH   4   7
ENDBRANCH   2   3
BRANCH   2  16
HETATM   16  C8  UNL     1      44.399  51.686  40.644  1.00  0.00     0.032 C 
BRANCH  16  17
HETATM   17  C9  UNL     1      45.367  52.540  39.858  1.00  0.00    -0.013 C 
HETATM   18  C10 UNL     1      46.507  53.086  40.642  1.00  0.00     0.005 C 
HETATM   19  C11 UNL     1      46.174  54.324  41.441  1.00  0.00     0.000 C 
HETATM   20  C12 UNL     1      45.535  55.382  40.549  1.00  0.00     0.000 C 
HETATM   21  C13 UNL     1      44.201  54.763  40.107  1.00  0.00     0.000 C 
HETATM   22  C14 UNL     1      44.550  53.643  39.172  1.00  0.00     0.005 C 
ENDBRANCH  16  17
ENDBRANCH   2  16
ENDBRANCH   1   2
BRANCH   1  23
HETATM   23  C16 UNL     1      44.301  50.054  42.728  1.00  0.00     0.155 C 
HETATM   24  N3  UNL     1      45.080  50.959  43.188  1.00  0.00    -0.288 N 
ATOM     25  H3  UNL     1      45.890  51.223  42.627  1.00  0.00     0.188 HD
BRANCH  23  26
HETATM   26  O2  UNL     1      43.205  49.740  43.552  1.00  0.00    -0.347 OA
ATOM     27  H2  UNL     1      42.422  50.274  43.493  1.00  0.00     0.219 HD
ENDBRANCH  23  26
BRANCH  24  28
HETATM   28  N4  UNL     1      44.893  51.604  44.402  1.00  0.00    -0.343 N 
ATOM     29  H42 UNL     1      44.333  52.456  44.389  1.00  0.00     0.176 HD
ATOM     30  H41 UNL     1      45.278  51.279  45.289  1.00  0.00     0.176 HD
ENDBRANCH  24  28
ENDBRANCH   1  23
BRANCH   1  31
HETATM   31  N5  UNL     1      45.588  48.540  41.345  1.00  0.00    -0.387 N 
HETATM   32  C17 UNL     1      46.569  48.782  40.354  1.00  0.00     0.118 C 
HETATM   33  C18 UNL     1      47.795  48.013  40.879  1.00  0.00     0.022 C 
HETATM   34  C19 UNL     1      47.227  46.908  41.715  1.00  0.00     0.036 C 
HETATM   35  C20 UNL     1      45.750  47.296  41.927  1.00  0.00     0.172 C 
BRANCH  35  36
HETATM   36  C21 UNL     1      45.357  47.026  43.300  1.00  0.00     0.240 C 
HETATM   37  O3  UNL     1      44.118  46.691  43.461  1.00  0.00    -0.271 OA
HETATM   38  N6  UNL     1      46.116  47.070  44.468  1.00  0.00    -0.359 N 
ATOM     39  H6  UNL     1      47.100  47.326  44.397  1.00  0.00     0.162 HD
BRANCH  38  40
HETATM   40  C22 UNL     1      45.570  46.769  45.796  1.00  0.00     0.123 C 
BRANCH  40  41
HETATM   41  C23 UNL     1      46.645  46.470  46.810  1.00  0.00     0.024 C 
BRANCH  41  42
HETATM   42  C24 UNL     1      46.031  45.989  48.113  1.00  0.00    -0.013 C 
HETATM   43  C25 UNL     1      46.924  46.343  49.287  1.00  0.00     0.005 C 
HETATM   44  C26 UNL     1      48.005  45.343  49.545  1.00  0.00     0.000 C 
HETATM   45  C27 UNL     1      47.565  43.915  49.505  1.00  0.00     0.000 C 
HETATM   46  C28 UNL     1      46.948  43.662  48.125  1.00  0.00     0.000 C 
HETATM   47  C29 UNL     1      45.712  44.528  48.083  1.00  0.00     0.005 C 
ENDBRANCH  41  42
ENDBRANCH  40  41
ENDBRANCH  38  40
ENDBRANCH  35  36
ENDBRANCH   1  31
TORSDOF 16
ENDMDL
MODEL 5
REMARK VINA RESULT: -8.031537124      2.829      6.938
REMARK  16 active torsions:
REMARK  status: ('A' for Active; 'I' for Inactive)
REMARK    1  A    between atoms: C2_2  and  C4_4 
REMARK    2  A    between atoms: C4_4  and  C5_5 
REMARK    3  A    between atoms: C4_4  and  C6_10 
REMARK    4  A    between atoms: C5_5  and  N1_6 
REMARK       I    between atoms: C6_10  and  N2_12 
REMARK    5  A    between atoms: N2_12  and  C7_14 
REMARK    6  A    between atoms: C7_14  and  C8_15 
REMARK    7  A    between atoms: C7_14  and  C15_22 
REMARK    8  A    between atoms: C8_15  and  C9_16 
REMARK    9  A    between atoms: C15_22  and  C16_23 
REMARK   10  A    between atoms: C15_22  and  N5_31 
REMARK   11  A    between atoms: C16_23  and  O2_24 
REMARK   12  A    between atoms: N3_26  and  N4_28 
REMARK   13  A    between atoms: C20_35  and  C21_36 
REMARK       I    between atoms: C21_36  and  N6_38 
REMARK   14  A    between atoms: N6_38  and  C22_40 
REMARK   15  A    between atoms: C22_40  and  C23_41 
REMARK   16  A    between atoms: C23_41  and  C24_42 
ROOT
HETATM    1  C15 UNL     1      44.809  50.597  42.126  1.00  0.00     0.179 C 
ENDROOT
BRANCH   1   2
HETATM    2  C7  UNL     1      44.676  51.533  40.934  1.00  0.00     0.115 C 
BRANCH   2   3
HETATM    3  N2  UNL     1      44.103  50.802  39.862  1.00  0.00    -0.354 N 
HETATM    4  C6  UNL     1      44.373  50.805  38.490  1.00  0.00     0.224 C 
HETATM    5  O1  UNL     1      45.270  51.540  37.954  1.00  0.00    -0.273 OA
ATOM      6  H2  UNL     1      43.363  50.159  40.143  1.00  0.00     0.163 HD
BRANCH   4   7
HETATM    7  C4  UNL     1      43.649  49.957  37.518  1.00  0.00     0.106 C 
BRANCH   7   8
HETATM    8  C2  UNL     1      43.337  48.576  37.956  1.00  0.00    -0.008 C 
HETATM    9  C1  UNL     1      44.440  47.580  37.871  1.00  0.00     0.010 C 
HETATM   10  C3  UNL     1      42.090  48.047  37.290  1.00  0.00     0.010 C 
ENDBRANCH   7   8
BRANCH   7  11
HETATM   11  C5  UNL     1      42.401  50.648  36.985  1.00  0.00     0.243 C 
BRANCH  11  12
HETATM   12  N1  UNL     1      42.778  51.704  36.063  1.00  0.00    -0.079 N 
ATOM     13  H13 UNL     1      42.459  52.620  36.379  1.00  0.00     0.274 HD
ATOM     14  H12 UNL     1      43.782  51.884  36.076  1.00  0.00     0.274 HD
ATOM     15  H11 UNL     1      42.440  51.483  35.127  1.00  0.00     0.274 HD
ENDBRANCH  11  12
ENDBRANCH   7  11
ENDBRANCH   4   7
ENDBRANCH   2   3
BRANCH   2  16
HETATM   16  C8  UNL     1      43.943  52.783  41.324  1.00  0.00     0.032 C 
BRANCH  16  17
HETATM   17  C9  UNL     1      44.250  53.999  40.482  1.00  0.00    -0.013 C 
HETATM   18  C10 UNL     1      45.693  54.223  40.199  1.00  0.00     0.005 C 
HETATM   19  C11 UNL     1      46.447  54.898  41.321  1.00  0.00     0.000 C 
HETATM   20  C12 UNL     1      45.742  56.181  41.745  1.00  0.00     0.000 C 
HETATM   21  C13 UNL     1      44.400  55.712  42.327  1.00  0.00     0.000 C 
HETATM   22  C14 UNL     1      43.596  55.206  41.166  1.00  0.00     0.005 C 
ENDBRANCH  16  17
ENDBRANCH   2  16
ENDBRANCH   1   2
BRANCH   1  23
HETATM   23  C16 UNL     1      45.006  51.314  43.409  1.00  0.00     0.155 C 
HETATM   24  N3  UNL     1      45.449  52.505  43.553  1.00  0.00    -0.288 N 
ATOM     25  H3  UNL     1      45.695  53.028  42.712  1.00  0.00     0.188 HD
BRANCH  23  26
HETATM   26  O2  UNL     1      44.686  50.652  44.609  1.00  0.00    -0.347 OA
ATOM     27  H2  UNL     1      44.914  51.066  45.433  1.00  0.00     0.219 HD
ENDBRANCH  23  26
BRANCH  24  28
HETATM   28  N4  UNL     1      45.616  53.132  44.779  1.00  0.00    -0.343 N 
ATOM     29  H42 UNL     1      46.138  52.621  45.490  1.00  0.00     0.176 HD
ATOM     30  H41 UNL     1      45.252  54.059  45.004  1.00  0.00     0.176 HD
ENDBRANCH  24  28
ENDBRANCH   1  23
BRANCH   1  31
HETATM   31  N5  UNL     1      45.738  49.600  41.864  1.00  0.00    -0.387 N 
HETATM   32  C17 UNL     1      46.911  49.872  41.120  1.00  0.00     0.118 C 
HETATM   33  C18 UNL     1      47.821  48.676  41.452  1.00  0.00     0.022 C 
HETATM   34  C19 UNL     1      46.882  47.558  41.786  1.00  0.00     0.036 C 
HETATM   35  C20 UNL     1      45.514  48.242  41.981  1.00  0.00     0.172 C 
BRANCH  35  36
HETATM   36  C21 UNL     1      44.829  47.664  43.126  1.00  0.00     0.240 C 
HETATM   37  O3  UNL     1      43.656  47.180  42.877  1.00  0.00    -0.271 OA
HETATM   38  N6  UNL     1      45.248  47.552  44.450  1.00  0.00    -0.359 N 
ATOM     39  H6  UNL     1      46.168  47.915  44.700  1.00  0.00     0.162 HD
BRANCH  38  40
HETATM   40  C22 UNL     1      44.433  46.938  45.504  1.00  0.00     0.123 C 
BRANCH  40  41
HETATM   41  C23 UNL     1      45.069  45.697  46.080  1.00  0.00     0.024 C 
BRANCH  41  42
HETATM   42  C24 UNL     1      45.264  45.844  47.578  1.00  0.00    -0.013 C 
HETATM   43  C25 UNL     1      46.655  46.370  47.885  1.00  0.00     0.005 C 
HETATM   44  C26 UNL     1      47.700  45.304  47.955  1.00  0.00     0.000 C 
HETATM   45  C27 UNL     1      47.309  44.087  48.730  1.00  0.00     0.000 C 
HETATM   46  C28 UNL     1      46.038  43.521  48.087  1.00  0.00     0.000 C 
HETATM   47  C29 UNL     1      44.981  44.574  48.314  1.00  0.00     0.005 C 
ENDBRANCH  41  42
ENDBRANCH  40  41
ENDBRANCH  38  40
ENDBRANCH  35  36
ENDBRANCH   1  31
TORSDOF 16
ENDMDL
