MODEL 1
REMARK VINA RESULT: -6.194775981      0.000      0.000
REMARK  4 active torsions:
REMARK  status: ('A' for Active; 'I' for Inactive)
REMARK    1  A    between atoms: O1_3  and  N2_4 
REMARK    2  A    between atoms: C2_6  and  C3_7 
REMARK    3  A    between atoms: C2_6  and  C4_12 
REMARK    4  A    between atoms: N3_8  and  O2_10 
REMARK       I    between atoms: C4_12  and  N4_14 
ROOT
HETATM    1  N1  UNL     1      -1.852   0.766  10.575  1.00  0.00    -0.162 NA
HETATM    2  C1  UNL     1      -2.540   0.988  11.489  1.00  0.00     0.253 C 
HETATM    3  O1  UNL     1      -3.350   1.226  12.554  1.00  0.00    -0.159 OA
ENDROOT
BRANCH   3   4
HETATM    4  N2  UNL     1      -4.244   2.260  12.503  1.00  0.00    -0.243 N 
HETATM    5  C2  UNL     1      -4.626   2.904  13.549  1.00  0.00     0.140 C 
ATOM      6  H2  UNL     1      -4.625   2.531  11.596  1.00  0.00     0.196 HD
BRANCH   5   7
HETATM    7  C3  UNL     1      -4.048   2.474  14.825  1.00  0.00     0.150 C 
HETATM    8  N3  UNL     1      -4.208   1.251  15.215  1.00  0.00    -0.278 N 
ATOM      9  H3  UNL     1      -4.737   0.620  14.613  1.00  0.00     0.193 HD
BRANCH   8  10
HETATM   10  O2  UNL     1      -3.713   0.759  16.374  1.00  0.00    -0.290 OA
ATOM     11  H2  UNL     1      -4.210   0.215  16.973  1.00  0.00     0.244 HD
ENDBRANCH   8  10
ENDBRANCH   5   7
BRANCH   5  12
HETATM   12  C4  UNL     1      -5.573   4.000  13.495  1.00  0.00     0.273 C 
HETATM   13  O3  UNL     1      -6.793   3.721  13.703  1.00  0.00    -0.266 OA
HETATM   14  N4  UNL     1      -5.264   5.339  13.235  1.00  0.00    -0.347 N 
HETATM   15  C5  UNL     1      -3.908   5.752  12.990  1.00  0.00     0.126 C 
HETATM   16  C9  UNL     1      -6.272   6.363  13.194  1.00  0.00     0.126 C 
HETATM   17  C6  UNL     1      -3.882   7.267  12.782  1.00  0.00     0.020 C 
HETATM   18  C7  UNL     1      -4.840   7.721  11.731  1.00  0.00     0.003 C 
HETATM   19  C8  UNL     1      -6.207   7.107  11.880  1.00  0.00     0.020 C 
ENDBRANCH   5  12
ENDBRANCH   3   4
TORSDOF 4
ENDMDL
MODEL 2
REMARK VINA RESULT: -6.174244093      3.200      4.576
REMARK  4 active torsions:
REMARK  status: ('A' for Active; 'I' for Inactive)
REMARK    1  A    between atoms: O1_3  and  N2_4 
REMARK    2  A    between atoms: C2_6  and  C3_7 
REMARK    3  A    between atoms: C2_6  and  C4_12 
REMARK    4  A    between atoms: N3_8  and  O2_10 
REMARK       I    between atoms: C4_12  and  N4_14 
ROOT
HETATM    1  N1  UNL     1      -3.830   0.628  16.438  1.00  0.00    -0.162 NA
HETATM    2  C1  UNL     1      -4.094   0.613  15.303  1.00  0.00     0.253 C 
HETATM    3  O1  UNL     1      -4.388   0.577  13.977  1.00  0.00    -0.159 OA
ENDROOT
BRANCH   3   4
HETATM    4  N2  UNL     1      -4.150   1.680  13.204  1.00  0.00    -0.243 N 
HETATM    5  C2  UNL     1      -3.978   1.615  11.930  1.00  0.00     0.140 C 
ATOM      6  H2  UNL     1      -4.107   2.593  13.656  1.00  0.00     0.196 HD
BRANCH   5   7
HETATM    7  C3  UNL     1      -4.051   0.280  11.331  1.00  0.00     0.150 C 
HETATM    8  N3  UNL     1      -3.024  -0.504  11.398  1.00  0.00    -0.278 N 
ATOM      9  H3  UNL     1      -2.188  -0.161  11.872  1.00  0.00     0.193 HD
BRANCH   8  10
HETATM   10  O2  UNL     1      -2.994  -1.752  10.877  1.00  0.00    -0.290 OA
ATOM     11  H2  UNL     1      -2.570  -1.973  10.056  1.00  0.00     0.244 HD
ENDBRANCH   8  10
ENDBRANCH   5   7
BRANCH   5  12
HETATM   12  C4  UNL     1      -3.727   2.784  11.111  1.00  0.00     0.273 C 
HETATM   13  O3  UNL     1      -4.719   3.287  10.501  1.00  0.00    -0.266 OA
HETATM   14  N4  UNL     1      -2.489   3.408  10.931  1.00  0.00    -0.347 N 
HETATM   15  C5  UNL     1      -1.307   2.911  11.583  1.00  0.00     0.126 C 
HETATM   16  C9  UNL     1      -2.329   4.564  10.091  1.00  0.00     0.126 C 
HETATM   17  C6  UNL     1      -0.128   3.818  11.230  1.00  0.00     0.020 C 
HETATM   18  C7  UNL     1       0.039   4.001   9.758  1.00  0.00     0.003 C 
HETATM   19  C8  UNL     1      -1.257   4.313   9.056  1.00  0.00     0.020 C 
ENDBRANCH   5  12
ENDBRANCH   3   4
TORSDOF 4
ENDMDL
MODEL 3
REMARK VINA RESULT: -6.039954356      1.663      1.968
REMARK  4 active torsions:
REMARK  status: ('A' for Active; 'I' for Inactive)
REMARK    1  A    between atoms: O1_3  and  N2_4 
REMARK    2  A    between atoms: C2_6  and  C3_7 
REMARK    3  A    between atoms: C2_6  and  C4_12 
REMARK    4  A    between atoms: N3_8  and  O2_10 
REMARK       I    between atoms: C4_12  and  N4_14 
ROOT
HETATM    1  N1  UNL     1      -4.429   0.007  10.094  1.00  0.00    -0.162 NA
HETATM    2  C1  UNL     1      -4.508   0.439  11.173  1.00  0.00     0.253 C 
HETATM    3  O1  UNL     1      -4.620   0.931  12.435  1.00  0.00    -0.159 OA
ENDROOT
BRANCH   3   4
HETATM    4  N2  UNL     1      -4.674   2.284  12.629  1.00  0.00    -0.243 N 
HETATM    5  C2  UNL     1      -4.811   2.817  13.792  1.00  0.00     0.140 C 
ATOM      6  H2  UNL     1      -4.604   2.896  11.816  1.00  0.00     0.196 HD
BRANCH   5   7
HETATM    7  C3  UNL     1      -4.907   1.892  14.925  1.00  0.00     0.150 C 
HETATM    8  N3  UNL     1      -3.828   1.384  15.424  1.00  0.00    -0.278 N 
ATOM      9  H3  UNL     1      -2.935   1.647  15.006  1.00  0.00     0.193 HD
BRANCH   8  10
HETATM   10  O2  UNL     1      -3.814   0.523  16.468  1.00  0.00    -0.290 OA
ATOM     11  H2  UNL     1      -4.137  -0.369  16.422  1.00  0.00     0.244 HD
ENDBRANCH   8  10
ENDBRANCH   5   7
BRANCH   5  12
HETATM   12  C4  UNL     1      -4.868   4.251  13.997  1.00  0.00     0.273 C 
HETATM   13  O3  UNL     1      -6.013   4.763  14.187  1.00  0.00    -0.266 OA
HETATM   14  N4  UNL     1      -3.775   5.122  14.006  1.00  0.00    -0.347 N 
HETATM   15  C5  UNL     1      -2.437   4.634  13.802  1.00  0.00     0.126 C 
HETATM   16  C9  UNL     1      -3.925   6.537  14.212  1.00  0.00     0.126 C 
HETATM   17  C6  UNL     1      -1.461   5.807  13.907  1.00  0.00     0.020 C 
HETATM   18  C7  UNL     1      -1.823   6.941  13.006  1.00  0.00     0.003 C 
HETATM   19  C8  UNL     1      -3.284   7.301  13.076  1.00  0.00     0.020 C 
ENDBRANCH   5  12
ENDBRANCH   3   4
TORSDOF 4
ENDMDL
MODEL 4
REMARK VINA RESULT: -6.025700422      2.900      4.095
REMARK  4 active torsions:
REMARK  status: ('A' for Active; 'I' for Inactive)
REMARK    1  A    between atoms: O1_3  and  N2_4 
REMARK    2  A    between atoms: C2_6  and  C3_7 
REMARK    3  A    between atoms: C2_6  and  C4_12 
REMARK    4  A    between atoms: N3_8  and  O2_10 
REMARK       I    between atoms: C4_12  and  N4_14 
ROOT
HETATM    1  N1  UNL     1      -3.007  -3.591  11.592  1.00  0.00    -0.162 NA
HETATM    2  C1  UNL     1      -2.861  -2.489  11.243  1.00  0.00     0.253 C 
HETATM    3  O1  UNL     1      -2.672  -1.202  10.848  1.00  0.00    -0.159 OA
ENDROOT
BRANCH   3   4
HETATM    4  N2  UNL     1      -3.630  -0.266  11.121  1.00  0.00    -0.243 N 
HETATM    5  C2  UNL     1      -3.350   0.963  11.382  1.00  0.00     0.140 C 
ATOM      6  H2  UNL     1      -4.609  -0.553  11.119  1.00  0.00     0.196 HD
BRANCH   5   7
HETATM    7  C3  UNL     1      -1.930   1.323  11.373  1.00  0.00     0.150 C 
HETATM    8  N3  UNL     1      -1.534   2.366  12.027  1.00  0.00    -0.278 N 
ATOM      9  H3  UNL     1      -2.233   2.910  12.533  1.00  0.00     0.193 HD
BRANCH   8  10
HETATM   10  O2  UNL     1      -0.246   2.778  12.079  1.00  0.00    -0.290 OA
ATOM     11  H2  UNL     1       0.016   3.690  12.126  1.00  0.00     0.244 HD
ENDBRANCH   8  10
ENDBRANCH   5   7
BRANCH   5  12
HETATM   12  C4  UNL     1      -4.365   1.956  11.671  1.00  0.00     0.273 C 
HETATM   13  O3  UNL     1      -4.882   2.560  10.682  1.00  0.00    -0.266 OA
HETATM   14  N4  UNL     1      -4.828   2.310  12.942  1.00  0.00    -0.347 N 
HETATM   15  C5  UNL     1      -4.303   1.678  14.123  1.00  0.00     0.126 C 
HETATM   16  C9  UNL     1      -5.838   3.315  13.138  1.00  0.00     0.126 C 
HETATM   17  C6  UNL     1      -5.029   2.239  15.348  1.00  0.00     0.020 C 
HETATM   18  C7  UNL     1      -4.993   3.730  15.407  1.00  0.00     0.003 C 
HETATM   19  C8  UNL     1      -5.340   4.376  14.091  1.00  0.00     0.020 C 
ENDBRANCH   5  12
ENDBRANCH   3   4
TORSDOF 4
ENDMDL
MODEL 5
REMARK VINA RESULT: -6.020800684      1.131      1.207
REMARK  4 active torsions:
REMARK  status: ('A' for Active; 'I' for Inactive)
REMARK    1  A    between atoms: O1_3  and  N2_4 
REMARK    2  A    between atoms: C2_6  and  C3_7 
REMARK    3  A    between atoms: C2_6  and  C4_12 
REMARK    4  A    between atoms: N3_8  and  O2_10 
REMARK       I    between atoms: C4_12  and  N4_14 
ROOT
HETATM    1  N1  UNL     1      -4.508   0.008  10.020  1.00  0.00    -0.162 NA
HETATM    2  C1  UNL     1      -4.334   0.517  11.053  1.00  0.00     0.253 C 
HETATM    3  O1  UNL     1      -4.136   1.091  12.269  1.00  0.00    -0.159 OA
ENDROOT
BRANCH   3   4
HETATM    4  N2  UNL     1      -4.848   2.208  12.610  1.00  0.00    -0.243 N 
HETATM    5  C2  UNL     1      -4.801   2.735  13.784  1.00  0.00     0.140 C 
ATOM      6  H2  UNL     1      -5.442   2.643  11.904  1.00  0.00     0.196 HD
BRANCH   5   7
HETATM    7  C3  UNL     1      -3.932   2.071  14.760  1.00  0.00     0.150 C 
HETATM    8  N3  UNL     1      -4.403   1.102  15.475  1.00  0.00    -0.278 N 
ATOM      9  H3  UNL     1      -5.376   0.830  15.334  1.00  0.00     0.193 HD
BRANCH   8  10
HETATM   10  O2  UNL     1      -3.681   0.428  16.400  1.00  0.00    -0.290 OA
ATOM     11  H2  UNL     1      -4.060   0.001  17.159  1.00  0.00     0.244 HD
ENDBRANCH   8  10
ENDBRANCH   5   7
BRANCH   5  12
HETATM   12  C4  UNL     1      -5.554   3.918  14.145  1.00  0.00     0.273 C 
HETATM   13  O3  UNL     1      -6.332   3.826  15.143  1.00  0.00    -0.266 OA
HETATM   14  N4  UNL     1      -5.502   5.154  13.494  1.00  0.00    -0.347 N 
HETATM   15  C5  UNL     1      -4.648   5.355  12.354  1.00  0.00     0.126 C 
HETATM   16  C9  UNL     1      -6.293   6.278  13.919  1.00  0.00     0.126 C 
HETATM   17  C6  UNL     1      -4.775   6.807  11.890  1.00  0.00     0.020 C 
HETATM   18  C7  UNL     1      -6.191   7.213  11.650  1.00  0.00     0.003 C 
HETATM   19  C8  UNL     1      -7.116   6.802  12.765  1.00  0.00     0.020 C 
ENDBRANCH   5  12
ENDBRANCH   3   4
TORSDOF 4
ENDMDL
