MODEL 1
REMARK VINA RESULT: -6.476225919      0.000      0.000
REMARK  5 active torsions:
REMARK  status: ('A' for Active; 'I' for Inactive)
REMARK    1  A    between atoms: C1_2  and  O2_3 
REMARK    2  A    between atoms: O2_3  and  C2_4 
REMARK    3  A    between atoms: C2_4  and  C3_6 
REMARK       I    between atoms: N1_10  and  C7_11 
REMARK    4  A    between atoms: C7_11  and  C8_13 
REMARK    5  A    between atoms: N2_14  and  O5_16 
ROOT
HETATM    1  C3  UNL     1      -4.494   2.018  12.762  1.00  0.00     0.187 C 
HETATM    2  C4  UNL     1      -4.380   3.438  12.303  1.00  0.00     0.037 C 
HETATM    3  C5  UNL     1      -5.070   4.193  13.412  1.00  0.00     0.022 C 
HETATM    4  C6  UNL     1      -4.522   3.425  14.623  1.00  0.00     0.127 C 
HETATM    5  N1  UNL     1      -4.499   2.044  14.171  1.00  0.00    -0.333 N 
HETATM    6  C7  UNL     1      -4.503   0.960  15.112  1.00  0.00     0.261 C 
HETATM    7  O4  UNL     1      -4.514  -0.249  14.760  1.00  0.00    -0.267 OA
ENDROOT
BRANCH   1   8
HETATM    8  C2  UNL     1      -3.390   1.205  12.170  1.00  0.00     0.289 C 
HETATM    9  O3  UNL     1      -2.262   1.718  12.070  1.00  0.00    -0.262 OA
BRANCH   8  10
HETATM   10  O2  UNL     1      -3.575  -0.089  11.733  1.00  0.00    -0.251 OA
BRANCH  10  11
HETATM   11  C1  UNL     1      -4.464  -0.445  10.725  1.00  0.00     0.406 C 
HETATM   12  O1  UNL     1      -4.454   0.198   9.639  1.00  0.00    -0.276 OA
ENDBRANCH  10  11
ENDBRANCH   8  10
ENDBRANCH   1   8
BRANCH   6  13
HETATM   13  C8  UNL     1      -4.494   1.204  16.549  1.00  0.00     0.188 C 
HETATM   14  N2  UNL     1      -5.399   0.762  17.349  1.00  0.00    -0.275 N 
ATOM     15  H2  UNL     1      -5.346   0.961  18.348  1.00  0.00     0.193 HD
BRANCH  14  16
HETATM   16  O5  UNL     1      -6.446   0.011  16.838  1.00  0.00    -0.290 OA
ATOM     17  H5  UNL     1      -7.162   0.453  16.396  1.00  0.00     0.244 HD
ENDBRANCH  14  16
ENDBRANCH   6  13
TORSDOF 5
ENDMDL
MODEL 2
REMARK VINA RESULT: -6.131649573      0.873      1.576
REMARK  5 active torsions:
REMARK  status: ('A' for Active; 'I' for Inactive)
REMARK    1  A    between atoms: C1_2  and  O2_3 
REMARK    2  A    between atoms: O2_3  and  C2_4 
REMARK    3  A    between atoms: C2_4  and  C3_6 
REMARK       I    between atoms: N1_10  and  C7_11 
REMARK    4  A    between atoms: C7_11  and  C8_13 
REMARK    5  A    between atoms: N2_14  and  O5_16 
ROOT
HETATM    1  C3  UNL     1      -4.613   1.848  12.731  1.00  0.00     0.187 C 
HETATM    2  C4  UNL     1      -4.483   3.262  12.256  1.00  0.00     0.037 C 
HETATM    3  C5  UNL     1      -5.093   4.043  13.393  1.00  0.00     0.022 C 
HETATM    4  C6  UNL     1      -4.504   3.268  14.580  1.00  0.00     0.127 C 
HETATM    5  N1  UNL     1      -4.543   1.884  14.139  1.00  0.00    -0.333 N 
HETATM    6  C7  UNL     1      -4.529   0.807  15.087  1.00  0.00     0.261 C 
HETATM    7  O4  UNL     1      -4.592  -0.404  14.746  1.00  0.00    -0.267 OA
ENDROOT
BRANCH   1   8
HETATM    8  C2  UNL     1      -3.565   1.000  12.089  1.00  0.00     0.289 C 
HETATM    9  O3  UNL     1      -3.886  -0.125  11.669  1.00  0.00    -0.262 OA
BRANCH   8  10
HETATM   10  O2  UNL     1      -2.260   1.418  11.944  1.00  0.00    -0.251 OA
BRANCH  10  11
HETATM   11  C1  UNL     1      -1.477   1.134  10.830  1.00  0.00     0.406 C 
HETATM   12  O1  UNL     1      -1.070   2.083  10.106  1.00  0.00    -0.276 OA
ENDBRANCH  10  11
ENDBRANCH   8  10
ENDBRANCH   1   8
BRANCH   6  13
HETATM   13  C8  UNL     1      -4.438   1.060  16.520  1.00  0.00     0.188 C 
HETATM   14  N2  UNL     1      -5.341   0.701  17.362  1.00  0.00    -0.275 N 
ATOM     15  H2  UNL     1      -5.230   0.903  18.356  1.00  0.00     0.193 HD
BRANCH  14  16
HETATM   16  O5  UNL     1      -6.469   0.038  16.904  1.00  0.00    -0.290 OA
ATOM     17  H5  UNL     1      -7.291   0.509  16.840  1.00  0.00     0.244 HD
ENDBRANCH  14  16
ENDBRANCH   6  13
TORSDOF 5
ENDMDL
MODEL 3
REMARK VINA RESULT: -6.115679209      1.025      1.120
REMARK  5 active torsions:
REMARK  status: ('A' for Active; 'I' for Inactive)
REMARK    1  A    between atoms: C1_2  and  O2_3 
REMARK    2  A    between atoms: O2_3  and  C2_4 
REMARK    3  A    between atoms: C2_4  and  C3_6 
REMARK       I    between atoms: N1_10  and  C7_11 
REMARK    4  A    between atoms: C7_11  and  C8_13 
REMARK    5  A    between atoms: N2_14  and  O5_16 
ROOT
HETATM    1  C3  UNL     1      -4.827   2.883  13.188  1.00  0.00     0.187 C 
HETATM    2  C4  UNL     1      -5.108   4.309  12.829  1.00  0.00     0.037 C 
HETATM    3  C5  UNL     1      -6.121   4.711  13.871  1.00  0.00     0.022 C 
HETATM    4  C6  UNL     1      -5.505   4.032  15.102  1.00  0.00     0.127 C 
HETATM    5  N1  UNL     1      -5.001   2.772  14.582  1.00  0.00    -0.333 N 
HETATM    6  C7  UNL     1      -4.776   1.653  15.452  1.00  0.00     0.261 C 
HETATM    7  O4  UNL     1      -4.370   0.536  15.036  1.00  0.00    -0.267 OA
ENDROOT
BRANCH   1   8
HETATM    8  C2  UNL     1      -3.464   2.501  12.711  1.00  0.00     0.289 C 
HETATM    9  O3  UNL     1      -2.547   3.335  12.804  1.00  0.00    -0.262 OA
BRANCH   8  10
HETATM   10  O2  UNL     1      -3.187   1.262  12.175  1.00  0.00    -0.251 OA
BRANCH  10  11
HETATM   11  C1  UNL     1      -4.116   0.493  11.483  1.00  0.00     0.406 C 
HETATM   12  O1  UNL     1      -4.428   0.818  10.304  1.00  0.00    -0.276 OA
ENDBRANCH  10  11
ENDBRANCH   8  10
ENDBRANCH   1   8
BRANCH   6  13
HETATM   13  C8  UNL     1      -5.009   1.750  16.888  1.00  0.00     0.188 C 
HETATM   14  N2  UNL     1      -5.825   0.988  17.527  1.00  0.00    -0.275 N 
ATOM     15  H2  UNL     1      -5.952   1.097  18.533  1.00  0.00     0.193 HD
BRANCH  14  16
HETATM   16  O5  UNL     1      -6.529   0.017  16.833  1.00  0.00    -0.290 OA
ATOM     17  H5  UNL     1      -6.501   0.013  15.883  1.00  0.00     0.244 HD
ENDBRANCH  14  16
ENDBRANCH   6  13
TORSDOF 5
ENDMDL
MODEL 4
REMARK VINA RESULT: -5.997902797      2.785      5.352
REMARK  5 active torsions:
REMARK  status: ('A' for Active; 'I' for Inactive)
REMARK    1  A    between atoms: C1_2  and  O2_3 
REMARK    2  A    between atoms: O2_3  and  C2_4 
REMARK    3  A    between atoms: C2_4  and  C3_6 
REMARK       I    between atoms: N1_10  and  C7_11 
REMARK    4  A    between atoms: C7_11  and  C8_13 
REMARK    5  A    between atoms: N2_14  and  O5_16 
ROOT
HETATM    1  C3  UNL     1      -4.013   1.032  11.750  1.00  0.00     0.187 C 
HETATM    2  C4  UNL     1      -4.030  -0.461  11.644  1.00  0.00     0.037 C 
HETATM    3  C5  UNL     1      -3.021  -0.721  10.554  1.00  0.00     0.022 C 
HETATM    4  C6  UNL     1      -1.946   0.299  10.955  1.00  0.00     0.127 C 
HETATM    5  N1  UNL     1      -2.713   1.450  11.401  1.00  0.00    -0.333 N 
HETATM    6  C7  UNL     1      -2.133   2.762  11.417  1.00  0.00     0.261 C 
HETATM    7  O4  UNL     1      -2.774   3.788  11.767  1.00  0.00    -0.267 OA
ENDROOT
BRANCH   1   8
HETATM    8  C2  UNL     1      -4.440   1.447  13.120  1.00  0.00     0.289 C 
HETATM    9  O3  UNL     1      -5.100   2.494  13.244  1.00  0.00    -0.262 OA
BRANCH   8  10
HETATM   10  O2  UNL     1      -4.134   0.714  14.246  1.00  0.00    -0.251 OA
BRANCH  10  11
HETATM   11  C1  UNL     1      -4.474   1.102  15.537  1.00  0.00     0.406 C 
HETATM   12  O1  UNL     1      -3.742   0.744  16.500  1.00  0.00    -0.276 OA
ENDBRANCH  10  11
ENDBRANCH   8  10
ENDBRANCH   1   8
BRANCH   6  13
HETATM   13  C8  UNL     1      -0.746   2.983  11.024  1.00  0.00     0.188 C 
HETATM   14  N2  UNL     1       0.065   3.736  11.680  1.00  0.00    -0.275 N 
ATOM     15  H2  UNL     1       1.026   3.858  11.362  1.00  0.00     0.193 HD
BRANCH  14  16
HETATM   16  O5  UNL     1      -0.382   4.379  12.823  1.00  0.00    -0.290 OA
ATOM     17  H5  UNL     1       0.137   4.327  13.618  1.00  0.00     0.244 HD
ENDBRANCH  14  16
ENDBRANCH   6  13
TORSDOF 5
ENDMDL
MODEL 5
REMARK VINA RESULT: -5.895845414      2.791      5.661
REMARK  5 active torsions:
REMARK  status: ('A' for Active; 'I' for Inactive)
REMARK    1  A    between atoms: C1_2  and  O2_3 
REMARK    2  A    between atoms: O2_3  and  C2_4 
REMARK    3  A    between atoms: C2_4  and  C3_6 
REMARK       I    between atoms: N1_10  and  C7_11 
REMARK    4  A    between atoms: C7_11  and  C8_13 
REMARK    5  A    between atoms: N2_14  and  O5_16 
ROOT
HETATM    1  C3  UNL     1      -4.008   1.042  11.664  1.00  0.00     0.187 C 
HETATM    2  C4  UNL     1      -4.120  -0.445  11.529  1.00  0.00     0.037 C 
HETATM    3  C5  UNL     1      -3.129  -0.747  10.433  1.00  0.00     0.022 C 
HETATM    4  C6  UNL     1      -1.991   0.194  10.852  1.00  0.00     0.127 C 
HETATM    5  N1  UNL     1      -2.684   1.383  11.321  1.00  0.00    -0.333 N 
HETATM    6  C7  UNL     1      -2.020   2.654  11.362  1.00  0.00     0.261 C 
HETATM    7  O4  UNL     1      -2.595   3.712  11.733  1.00  0.00    -0.267 OA
ENDROOT
BRANCH   1   8
HETATM    8  C2  UNL     1      -4.407   1.456  13.042  1.00  0.00     0.289 C 
HETATM    9  O3  UNL     1      -5.033   2.521  13.183  1.00  0.00    -0.262 OA
BRANCH   8  10
HETATM   10  O2  UNL     1      -4.110   0.704  14.158  1.00  0.00    -0.251 OA
BRANCH  10  11
HETATM   11  C1  UNL     1      -4.492   1.052  15.449  1.00  0.00     0.406 C 
HETATM   12  O1  UNL     1      -3.734   0.760  16.414  1.00  0.00    -0.276 OA
ENDBRANCH  10  11
ENDBRANCH   8  10
ENDBRANCH   1   8
BRANCH   6  13
HETATM   13  C8  UNL     1      -0.622   2.794  10.972  1.00  0.00     0.188 C 
HETATM   14  N2  UNL     1      -0.246   3.305   9.853  1.00  0.00    -0.275 N 
ATOM     15  H2  UNL     1       0.745   3.379   9.627  1.00  0.00     0.193 HD
BRANCH  14  16
HETATM   16  O5  UNL     1      -1.205   3.753   8.958  1.00  0.00    -0.290 OA
ATOM     17  H5  UNL     1      -2.100   3.870   9.255  1.00  0.00     0.244 HD
ENDBRANCH  14  16
ENDBRANCH   6  13
TORSDOF 5
ENDMDL
