MODEL 1
REMARK VINA RESULT: -6.078028449      0.000      0.000
REMARK  6 active torsions:
REMARK  status: ('A' for Active; 'I' for Inactive)
REMARK    1  A    between atoms: C2_2  and  O2_4 
REMARK    2  A    between atoms: O2_4  and  C3_5 
REMARK    3  A    between atoms: C3_5  and  C4_6 
REMARK    4  A    between atoms: C7_14  and  N2_15 
REMARK    5  A    between atoms: N2_15  and  N3_17 
REMARK    6  A    between atoms: N3_17  and  N4_18 
ROOT
HETATM    1  C4  UNL     1      -4.716   2.033  14.541  1.00  0.00     0.268 C 
HETATM    2  N1  UNL     1      -3.869   3.146  15.007  1.00  0.00    -0.033 N 
ATOM      3  H11 UNL     1      -3.084   2.881  15.600  1.00  0.00     0.281 HD
ATOM      4  H12 UNL     1      -4.297   3.763  15.696  1.00  0.00     0.281 HD
HETATM    5  C5  UNL     1      -3.520   3.761  13.763  1.00  0.00     0.375 C 
HETATM    6  O3  UNL     1      -3.174   2.615  13.006  1.00  0.00    -0.323 OA
HETATM    7  C6  UNL     1      -4.447   1.997  13.067  1.00  0.00     0.298 C 
HETATM    8  O4  UNL     1      -5.226   2.966  12.460  1.00  0.00    -0.328 OA
HETATM    9  C7  UNL     1      -4.796   4.163  13.065  1.00  0.00     0.309 C 
ENDROOT
BRANCH   9  10
HETATM   10  N2  UNL     1      -4.451   5.063  11.983  1.00  0.00    -0.218 N 
ATOM     11  H2  UNL     1      -4.155   6.017  12.192  1.00  0.00     0.200 HD
BRANCH  10  12
HETATM   12  N3  UNL     1      -4.511   4.686  10.817  1.00  0.00    -0.246 NA
BRANCH  12  13
HETATM   13  N4  UNL     1      -4.186   4.165   9.749  1.00  0.00    -0.261 N 
ATOM     14  H42 UNL     1      -3.232   3.925  10.020  1.00  0.00     0.193 HD
ATOM     15  H41 UNL     1      -4.247   3.825   8.790  1.00  0.00     0.193 HD
ENDBRANCH  12  13
ENDBRANCH  10  12
ENDBRANCH   9  10
BRANCH   1  16
HETATM   16  C3  UNL     1      -4.248   0.815  15.272  1.00  0.00     0.217 C 
BRANCH  16  17
HETATM   17  O2  UNL     1      -4.400   0.868  16.661  1.00  0.00    -0.320 OA
BRANCH  17  18
HETATM   18  C2  UNL     1      -5.580   0.664  17.339  1.00  0.00     0.254 C 
HETATM   19  C1  UNL     1      -6.396   1.792  17.894  1.00  0.00     0.126 C 
HETATM   20  O1  UNL     1      -5.978  -0.520  17.493  1.00  0.00    -0.266 OA
ENDBRANCH  17  18
ENDBRANCH  16  17
ENDBRANCH   1  16
TORSDOF 6
ENDMDL
MODEL 2
REMARK VINA RESULT: -5.941845146      3.125      3.769
REMARK  6 active torsions:
REMARK  status: ('A' for Active; 'I' for Inactive)
REMARK    1  A    between atoms: C2_2  and  O2_4 
REMARK    2  A    between atoms: O2_4  and  C3_5 
REMARK    3  A    between atoms: C3_5  and  C4_6 
REMARK    4  A    between atoms: C7_14  and  N2_15 
REMARK    5  A    between atoms: N2_15  and  N3_17 
REMARK    6  A    between atoms: N3_17  and  N4_18 
ROOT
HETATM    1  C4  UNL     1      -4.864   1.937  13.011  1.00  0.00     0.268 C 
HETATM    2  N1  UNL     1      -4.505   2.562  11.725  1.00  0.00    -0.033 N 
ATOM      3  H11 UNL     1      -4.122   3.504  11.787  1.00  0.00     0.281 HD
ATOM      4  H12 UNL     1      -5.292   2.825  11.131  1.00  0.00     0.281 HD
HETATM    5  C5  UNL     1      -3.626   1.574  11.179  1.00  0.00     0.375 C 
HETATM    6  O3  UNL     1      -2.819   1.305  12.311  1.00  0.00    -0.323 OA
HETATM    7  C6  UNL     1      -3.865   0.828  13.139  1.00  0.00     0.298 C 
HETATM    8  O4  UNL     1      -4.310  -0.246  12.388  1.00  0.00    -0.328 OA
HETATM    9  C7  UNL     1      -4.385   0.274  11.080  1.00  0.00     0.309 C 
ENDROOT
BRANCH   9  10
HETATM   10  N2  UNL     1      -3.622  -0.628  10.241  1.00  0.00    -0.218 N 
ATOM     11  H2  UNL     1      -3.562  -0.457   9.237  1.00  0.00     0.200 HD
BRANCH  10  12
HETATM   12  N3  UNL     1      -3.049  -1.596  10.729  1.00  0.00    -0.246 NA
BRANCH  12  13
HETATM   13  N4  UNL     1      -2.823  -2.564  11.457  1.00  0.00    -0.261 N 
ATOM     14  H42 UNL     1      -3.595  -3.144  11.126  1.00  0.00     0.193 HD
ATOM     15  H41 UNL     1      -2.377  -3.152  12.161  1.00  0.00     0.193 HD
ENDBRANCH  12  13
ENDBRANCH  10  12
ENDBRANCH   9  10
BRANCH   1  16
HETATM   16  C3  UNL     1      -4.722   3.003  14.049  1.00  0.00     0.217 C 
BRANCH  16  17
HETATM   17  O2  UNL     1      -4.020   2.618  15.195  1.00  0.00    -0.320 OA
BRANCH  17  18
HETATM   18  C2  UNL     1      -4.472   1.726  16.141  1.00  0.00     0.254 C 
HETATM   19  C1  UNL     1      -5.871   1.757  16.677  1.00  0.00     0.126 C 
HETATM   20  O1  UNL     1      -3.669   0.854  16.564  1.00  0.00    -0.266 OA
ENDBRANCH  17  18
ENDBRANCH  16  17
ENDBRANCH   1  16
TORSDOF 6
ENDMDL
MODEL 3
REMARK VINA RESULT: -5.864057508      1.780      2.085
REMARK  6 active torsions:
REMARK  status: ('A' for Active; 'I' for Inactive)
REMARK    1  A    between atoms: C2_2  and  O2_4 
REMARK    2  A    between atoms: O2_4  and  C3_5 
REMARK    3  A    between atoms: C3_5  and  C4_6 
REMARK    4  A    between atoms: C7_14  and  N2_15 
REMARK    5  A    between atoms: N2_15  and  N3_17 
REMARK    6  A    between atoms: N3_17  and  N4_18 
ROOT
HETATM    1  C4  UNL     1      -4.416   1.345  12.892  1.00  0.00     0.268 C 
HETATM    2  N1  UNL     1      -3.317   2.315  13.045  1.00  0.00    -0.033 N 
ATOM      3  H11 UNL     1      -2.495   1.971  13.540  1.00  0.00     0.281 HD
ATOM      4  H12 UNL     1      -3.497   3.082  13.692  1.00  0.00     0.281 HD
HETATM    5  C5  UNL     1      -3.100   2.698  11.683  1.00  0.00     0.375 C 
HETATM    6  O3  UNL     1      -3.105   1.424  11.062  1.00  0.00    -0.323 OA
HETATM    7  C6  UNL     1      -4.433   1.082  11.416  1.00  0.00     0.298 C 
HETATM    8  O4  UNL     1      -5.130   2.108  10.801  1.00  0.00    -0.328 OA
HETATM    9  C7  UNL     1      -4.393   3.259  11.143  1.00  0.00     0.309 C 
ENDROOT
BRANCH   9  10
HETATM   10  N2  UNL     1      -4.101   3.939   9.897  1.00  0.00    -0.218 N 
ATOM     11  H2  UNL     1      -3.397   3.556   9.265  1.00  0.00     0.200 HD
BRANCH  10  12
HETATM   12  N3  UNL     1      -4.693   4.969   9.597  1.00  0.00    -0.246 NA
BRANCH  12  13
HETATM   13  N4  UNL     1      -5.241   5.833   8.910  1.00  0.00    -0.261 N 
ATOM     14  H42 UNL     1      -4.394   6.185   8.463  1.00  0.00     0.193 HD
ATOM     15  H41 UNL     1      -5.976   6.414   8.506  1.00  0.00     0.193 HD
ENDBRANCH  12  13
ENDBRANCH  10  12
ENDBRANCH   9  10
BRANCH   1  16
HETATM   16  C3  UNL     1      -4.042   0.154  13.714  1.00  0.00     0.217 C 
BRANCH  16  17
HETATM   17  O2  UNL     1      -4.750   0.021  14.913  1.00  0.00    -0.320 OA
BRANCH  17  18
HETATM   18  C2  UNL     1      -4.587   0.817  16.024  1.00  0.00     0.254 C 
HETATM   19  C1  UNL     1      -5.712   1.131  16.963  1.00  0.00     0.126 C 
HETATM   20  O1  UNL     1      -3.445   1.295  16.249  1.00  0.00    -0.266 OA
ENDBRANCH  17  18
ENDBRANCH  16  17
ENDBRANCH   1  16
TORSDOF 6
ENDMDL
MODEL 4
REMARK VINA RESULT: -5.833846480      3.783      5.047
REMARK  6 active torsions:
REMARK  status: ('A' for Active; 'I' for Inactive)
REMARK    1  A    between atoms: C2_2  and  O2_4 
REMARK    2  A    between atoms: O2_4  and  C3_5 
REMARK    3  A    between atoms: C3_5  and  C4_6 
REMARK    4  A    between atoms: C7_14  and  N2_15 
REMARK    5  A    between atoms: N2_15  and  N3_17 
REMARK    6  A    between atoms: N3_17  and  N4_18 
ROOT
HETATM    1  C4  UNL     1      -3.415   2.071  12.116  1.00  0.00     0.268 C 
HETATM    2  N1  UNL     1      -3.994   1.022  12.975  1.00  0.00    -0.033 N 
ATOM      3  H11 UNL     1      -4.816   1.299  13.511  1.00  0.00     0.281 HD
ATOM      4  H12 UNL     1      -3.437   0.767  13.790  1.00  0.00     0.281 HD
HETATM    5  C5  UNL     1      -4.205  -0.024  12.022  1.00  0.00     0.375 C 
HETATM    6  O3  UNL     1      -4.798   0.714  10.968  1.00  0.00    -0.323 OA
HETATM    7  C6  UNL     1      -3.692   1.566  10.732  1.00  0.00     0.298 C 
HETATM    8  O4  UNL     1      -2.721   0.635  10.408  1.00  0.00    -0.328 OA
HETATM    9  C7  UNL     1      -2.875  -0.360  11.393  1.00  0.00     0.309 C 
ENDROOT
BRANCH   9  10
HETATM   10  N2  UNL     1      -3.019  -1.615  10.683  1.00  0.00    -0.218 N 
ATOM     11  H2  UNL     1      -3.253  -1.611   9.690  1.00  0.00     0.200 HD
BRANCH  10  12
HETATM   12  N3  UNL     1      -2.861  -2.682  11.267  1.00  0.00    -0.246 NA
BRANCH  12  13
HETATM   13  N4  UNL     1      -2.833  -3.896  11.475  1.00  0.00    -0.261 N 
ATOM     14  H42 UNL     1      -2.198  -3.864  12.273  1.00  0.00     0.193 HD
ATOM     15  H41 UNL     1      -3.027  -4.892  11.372  1.00  0.00     0.193 HD
ENDBRANCH  12  13
ENDBRANCH  10  12
ENDBRANCH   9  10
BRANCH   1  16
HETATM   16  C3  UNL     1      -4.136   3.336  12.455  1.00  0.00     0.217 C 
BRANCH  16  17
HETATM   17  O2  UNL     1      -5.466   3.168  12.851  1.00  0.00    -0.320 OA
BRANCH  17  18
HETATM   18  C2  UNL     1      -6.090   3.870  13.857  1.00  0.00     0.254 C 
HETATM   19  C1  UNL     1      -6.041   3.439  15.292  1.00  0.00     0.126 C 
HETATM   20  O1  UNL     1      -6.723   4.913  13.548  1.00  0.00    -0.266 OA
ENDBRANCH  17  18
ENDBRANCH  16  17
ENDBRANCH   1  16
TORSDOF 6
ENDMDL
MODEL 5
REMARK VINA RESULT: -5.783514109      1.334      1.729
REMARK  6 active torsions:
REMARK  status: ('A' for Active; 'I' for Inactive)
REMARK    1  A    between atoms: C2_2  and  O2_4 
REMARK    2  A    between atoms: O2_4  and  C3_5 
REMARK    3  A    between atoms: C3_5  and  C4_6 
REMARK    4  A    between atoms: C7_14  and  N2_15 
REMARK    5  A    between atoms: N2_15  and  N3_17 
REMARK    6  A    between atoms: N3_17  and  N4_18 
ROOT
HETATM    1  C4  UNL     1      -4.465   2.747  14.354  1.00  0.00     0.268 C 
HETATM    2  N1  UNL     1      -4.085   1.436  13.800  1.00  0.00    -0.033 N 
ATOM      3  H11 UNL     1      -4.626   0.642  14.141  1.00  0.00     0.281 HD
ATOM      4  H12 UNL     1      -3.185   1.072  14.113  1.00  0.00     0.281 HD
HETATM    5  C5  UNL     1      -4.189   1.692  12.396  1.00  0.00     0.375 C 
HETATM    6  O3  UNL     1      -5.435   2.366  12.357  1.00  0.00    -0.323 OA
HETATM    7  C6  UNL     1      -5.048   3.459  13.170  1.00  0.00     0.298 C 
HETATM    8  O4  UNL     1      -4.006   3.975  12.419  1.00  0.00    -0.328 OA
HETATM    9  C7  UNL     1      -3.261   2.834  12.059  1.00  0.00     0.309 C 
ENDROOT
BRANCH   9  10
HETATM   10  N2  UNL     1      -3.116   2.883  10.618  1.00  0.00    -0.218 N 
ATOM     11  H2  UNL     1      -2.684   2.101  10.126  1.00  0.00     0.200 HD
BRANCH  10  12
HETATM   12  N3  UNL     1      -3.507   3.859   9.986  1.00  0.00    -0.246 NA
BRANCH  12  13
HETATM   13  N4  UNL     1      -4.273   4.670   9.463  1.00  0.00    -0.261 N 
ATOM     14  H42 UNL     1      -3.688   4.879   8.653  1.00  0.00     0.193 HD
ATOM     15  H41 UNL     1      -5.094   5.256   9.314  1.00  0.00     0.193 HD
ENDBRANCH  12  13
ENDBRANCH  10  12
ENDBRANCH   9  10
BRANCH   1  16
HETATM   16  C3  UNL     1      -5.454   2.473  15.442  1.00  0.00     0.217 C 
BRANCH  16  17
HETATM   17  O2  UNL     1      -5.479   1.150  15.894  1.00  0.00    -0.320 OA
BRANCH  17  18
HETATM   18  C2  UNL     1      -5.825   0.752  17.165  1.00  0.00     0.254 C 
HETATM   19  C1  UNL     1      -6.188   1.726  18.245  1.00  0.00     0.126 C 
HETATM   20  O1  UNL     1      -5.834  -0.480  17.419  1.00  0.00    -0.266 OA
ENDBRANCH  17  18
ENDBRANCH  16  17
ENDBRANCH   1  16
TORSDOF 6
ENDMDL
