MODEL 1
REMARK VINA RESULT: -7.303984175      0.000      0.000
REMARK  4 active torsions:
REMARK  status: ('A' for Active; 'I' for Inactive)
REMARK    1  A    between atoms: C1_2  and  O2_3 
REMARK    2  A    between atoms: O2_3  and  C2_4 
REMARK       I    between atoms: C2_4  and  N1_6 
REMARK    3  A    between atoms: N1_6  and  N2_8 
REMARK    4  A    between atoms: N3_10  and  N4_12 
ROOT
HETATM    1  N2  UNL     1      -4.133   2.079  14.131  1.00  0.00    -0.223 N 
ATOM      2  H2  UNL     1      -3.579   2.865  13.789  1.00  0.00     0.210 HD
HETATM    3  N3  UNL     1      -4.158   1.019  13.453  1.00  0.00    -0.216 N 
ATOM      4  H3  UNL     1      -4.718   0.246  13.813  1.00  0.00     0.211 HD
ENDROOT
BRANCH   1   5
HETATM    5  N1  UNL     1      -4.820   2.223  15.312  1.00  0.00    -0.229 N 
HETATM    6  C2  UNL     1      -4.563   1.427  16.444  1.00  0.00     0.387 C 
HETATM    7  O3  UNL     1      -3.668   0.551  16.364  1.00  0.00    -0.236 OA
ATOM      8  H1  UNL     1      -5.547   2.937  15.370  1.00  0.00     0.194 HD
BRANCH   6   9
HETATM    9  O2  UNL     1      -5.239   1.551  17.646  1.00  0.00    -0.234 OA
BRANCH   9  10
HETATM   10  C1  UNL     1      -6.567   1.195  17.714  1.00  0.00     0.408 C 
HETATM   11  O1  UNL     1      -7.080   0.440  16.836  1.00  0.00    -0.275 OA
ENDBRANCH   9  10
ENDBRANCH   6   9
ENDBRANCH   1   5
BRANCH   3  12
HETATM   12  N4  UNL     1      -3.492   0.817  12.268  1.00  0.00    -0.196 N 
HETATM   13  C3  UNL     1      -3.404  -0.361  11.458  1.00  0.00     0.191 C 
HETATM   14  C4  UNL     1      -2.193  -0.332  10.623  1.00  0.00     0.009 C 
HETATM   15  C5  UNL     1      -1.604   0.820  10.480  1.00  0.00     0.131 C 
HETATM   16  S1  UNL     1      -2.545   1.971  11.402  1.00  0.00     0.269 S 
HETATM   17  O4  UNL     1      -1.714   2.823  12.286  1.00  0.00    -0.200 OA
HETATM   18  O5  UNL     1      -3.478   2.754  10.532  1.00  0.00    -0.200 OA
ENDBRANCH   3  12
TORSDOF 4
ENDMDL
MODEL 2
REMARK VINA RESULT: -6.708315699      2.335      2.674
REMARK  4 active torsions:
REMARK  status: ('A' for Active; 'I' for Inactive)
REMARK    1  A    between atoms: C1_2  and  O2_3 
REMARK    2  A    between atoms: O2_3  and  C2_4 
REMARK       I    between atoms: C2_4  and  N1_6 
REMARK    3  A    between atoms: N1_6  and  N2_8 
REMARK    4  A    between atoms: N3_10  and  N4_12 
ROOT
HETATM    1  N2  UNL     1      -3.916   1.412  13.758  1.00  0.00    -0.223 N 
ATOM      2  H2  UNL     1      -3.518   0.849  13.006  1.00  0.00     0.210 HD
HETATM    3  N3  UNL     1      -3.849   2.666  13.674  1.00  0.00    -0.216 N 
ATOM      4  H3  UNL     1      -4.253   3.209  14.437  1.00  0.00     0.211 HD
ENDROOT
BRANCH   1   5
HETATM    5  N1  UNL     1      -4.503   0.768  14.820  1.00  0.00    -0.229 N 
HETATM    6  C2  UNL     1      -4.162   1.041  16.158  1.00  0.00     0.387 C 
HETATM    7  O3  UNL     1      -3.285   1.910  16.383  1.00  0.00    -0.236 OA
ATOM      8  H1  UNL     1      -5.216   0.063  14.631  1.00  0.00     0.194 HD
BRANCH   6   9
HETATM    9  O2  UNL     1      -4.737   0.408  17.247  1.00  0.00    -0.234 OA
BRANCH   9  10
HETATM   10  C1  UNL     1      -6.038   0.702  17.590  1.00  0.00     0.408 C 
HETATM   11  O1  UNL     1      -6.998   0.353  16.842  1.00  0.00    -0.275 OA
ENDBRANCH   9  10
ENDBRANCH   6   9
ENDBRANCH   1   5
BRANCH   3  12
HETATM   12  N4  UNL     1      -3.275   3.363  12.637  1.00  0.00    -0.196 N 
HETATM   13  C3  UNL     1      -2.537   4.590  12.660  1.00  0.00     0.191 C 
HETATM   14  C4  UNL     1      -2.593   5.258  11.350  1.00  0.00     0.009 C 
HETATM   15  C5  UNL     1      -2.971   4.535  10.336  1.00  0.00     0.131 C 
HETATM   16  S1  UNL     1      -3.290   2.934  10.966  1.00  0.00     0.269 S 
HETATM   17  O4  UNL     1      -4.590   2.383  10.518  1.00  0.00    -0.200 OA
HETATM   18  O5  UNL     1      -2.141   2.003  10.733  1.00  0.00    -0.200 OA
ENDBRANCH   3  12
TORSDOF 4
ENDMDL
MODEL 3
REMARK VINA RESULT: -6.619731336      1.502      1.810
REMARK  4 active torsions:
REMARK  status: ('A' for Active; 'I' for Inactive)
REMARK    1  A    between atoms: C1_2  and  O2_3 
REMARK    2  A    between atoms: O2_3  and  C2_4 
REMARK       I    between atoms: C2_4  and  N1_6 
REMARK    3  A    between atoms: N1_6  and  N2_8 
REMARK    4  A    between atoms: N3_10  and  N4_12 
ROOT
HETATM    1  N2  UNL     1      -4.029   1.754  13.839  1.00  0.00    -0.223 N 
ATOM      2  H2  UNL     1      -4.106   2.770  13.888  1.00  0.00     0.210 HD
HETATM    3  N3  UNL     1      -3.416   1.242  12.867  1.00  0.00    -0.216 N 
ATOM      4  H3  UNL     1      -3.350   0.224  12.838  1.00  0.00     0.211 HD
ENDROOT
BRANCH   1   5
HETATM    5  N1  UNL     1      -4.598   1.002  14.839  1.00  0.00    -0.229 N 
HETATM    6  C2  UNL     1      -4.171   1.069  16.178  1.00  0.00     0.387 C 
HETATM    7  O3  UNL     1      -3.230   1.849  16.464  1.00  0.00    -0.236 OA
ATOM      8  H1  UNL     1      -5.363   0.370  14.600  1.00  0.00     0.194 HD
BRANCH   6   9
HETATM    9  O2  UNL     1      -4.726   0.324  17.205  1.00  0.00    -0.234 OA
BRANCH   9  10
HETATM   10  C1  UNL     1      -6.016   0.587  17.609  1.00  0.00     0.408 C 
HETATM   11  O1  UNL     1      -6.994   0.365  16.836  1.00  0.00    -0.275 OA
ENDBRANCH   9  10
ENDBRANCH   6   9
ENDBRANCH   1   5
BRANCH   3  12
HETATM   12  N4  UNL     1      -2.827   1.943  11.841  1.00  0.00    -0.196 N 
HETATM   13  C3  UNL     1      -1.646   1.640  11.089  1.00  0.00     0.191 C 
HETATM   14  C4  UNL     1      -1.068   2.863  10.509  1.00  0.00     0.009 C 
HETATM   15  C5  UNL     1      -1.837   3.912  10.462  1.00  0.00     0.131 C 
HETATM   16  S1  UNL     1      -3.369   3.431  11.157  1.00  0.00     0.269 S 
HETATM   17  O4  UNL     1      -3.872   4.388  12.171  1.00  0.00    -0.200 OA
HETATM   18  O5  UNL     1      -4.379   3.097  10.104  1.00  0.00    -0.200 OA
ENDBRANCH   3  12
TORSDOF 4
ENDMDL
MODEL 4
REMARK VINA RESULT: -6.588930886      2.068      2.400
REMARK  4 active torsions:
REMARK  status: ('A' for Active; 'I' for Inactive)
REMARK    1  A    between atoms: C1_2  and  O2_3 
REMARK    2  A    between atoms: O2_3  and  C2_4 
REMARK       I    between atoms: C2_4  and  N1_6 
REMARK    3  A    between atoms: N1_6  and  N2_8 
REMARK    4  A    between atoms: N3_10  and  N4_12 
ROOT
HETATM    1  N2  UNL     1      -3.917   2.033  13.946  1.00  0.00    -0.223 N 
ATOM      2  H2  UNL     1      -4.246   1.342  13.272  1.00  0.00     0.210 HD
HETATM    3  N3  UNL     1      -3.229   3.001  13.531  1.00  0.00    -0.216 N 
ATOM      4  H3  UNL     1      -2.910   3.680  14.222  1.00  0.00     0.211 HD
ENDROOT
BRANCH   1   5
HETATM    5  N1  UNL     1      -4.243   1.867  15.270  1.00  0.00    -0.229 N 
HETATM    6  C2  UNL     1      -4.499   0.605  15.838  1.00  0.00     0.387 C 
HETATM    7  O3  UNL     1      -4.423  -0.406  15.099  1.00  0.00    -0.236 OA
ATOM      8  H1  UNL     1      -4.303   2.693  15.867  1.00  0.00     0.194 HD
BRANCH   6   9
HETATM    9  O2  UNL     1      -4.830   0.407  17.168  1.00  0.00    -0.234 OA
BRANCH   9  10
HETATM   10  C1  UNL     1      -6.104   0.701  17.599  1.00  0.00     0.408 C 
HETATM   11  O1  UNL     1      -7.106   0.462  16.862  1.00  0.00    -0.275 OA
ENDBRANCH   9  10
ENDBRANCH   6   9
ENDBRANCH   1   5
BRANCH   3  12
HETATM   12  N4  UNL     1      -2.873   3.218  12.221  1.00  0.00    -0.196 N 
HETATM   13  C3  UNL     1      -1.597   3.072  11.585  1.00  0.00     0.191 C 
HETATM   14  C4  UNL     1      -1.517   3.911  10.378  1.00  0.00     0.009 C 
HETATM   15  C5  UNL     1      -2.640   4.356   9.894  1.00  0.00     0.131 C 
HETATM   16  S1  UNL     1      -3.903   3.745  10.940  1.00  0.00     0.269 S 
HETATM   17  O4  UNL     1      -4.865   4.791  11.360  1.00  0.00    -0.200 OA
HETATM   18  O5  UNL     1      -4.562   2.529  10.368  1.00  0.00    -0.200 OA
ENDBRANCH   3  12
TORSDOF 4
ENDMDL
MODEL 5
REMARK VINA RESULT: -6.587438637      2.368      2.805
REMARK  4 active torsions:
REMARK  status: ('A' for Active; 'I' for Inactive)
REMARK    1  A    between atoms: C1_2  and  O2_3 
REMARK    2  A    between atoms: O2_3  and  C2_4 
REMARK       I    between atoms: C2_4  and  N1_6 
REMARK    3  A    between atoms: N1_6  and  N2_8 
REMARK    4  A    between atoms: N3_10  and  N4_12 
ROOT
HETATM    1  N2  UNL     1      -3.994   2.333  14.020  1.00  0.00    -0.223 N 
ATOM      2  H2  UNL     1      -4.298   1.686  13.291  1.00  0.00     0.210 HD
HETATM    3  N3  UNL     1      -3.429   3.404  13.678  1.00  0.00    -0.216 N 
ATOM      4  H3  UNL     1      -3.132   4.035  14.422  1.00  0.00     0.211 HD
ENDROOT
BRANCH   1   5
HETATM    5  N1  UNL     1      -4.217   1.996  15.333  1.00  0.00    -0.229 N 
HETATM    6  C2  UNL     1      -4.481   0.676  15.745  1.00  0.00     0.387 C 
HETATM    7  O3  UNL     1      -4.511  -0.225  14.872  1.00  0.00    -0.236 OA
ATOM      8  H1  UNL     1      -4.191   2.733  16.038  1.00  0.00     0.194 HD
BRANCH   6   9
HETATM    9  O2  UNL     1      -4.710   0.308  17.060  1.00  0.00    -0.234 OA
BRANCH   9  10
HETATM   10  C1  UNL     1      -5.956   0.509  17.611  1.00  0.00     0.408 C 
HETATM   11  O1  UNL     1      -7.001   0.385  16.907  1.00  0.00    -0.275 OA
ENDBRANCH   9  10
ENDBRANCH   6   9
ENDBRANCH   1   5
BRANCH   3  12
HETATM   12  N4  UNL     1      -3.180   3.793  12.383  1.00  0.00    -0.196 N 
HETATM   13  C3  UNL     1      -2.460   4.930  11.893  1.00  0.00     0.191 C 
HETATM   14  C4  UNL     1      -2.893   5.276  10.530  1.00  0.00     0.009 C 
HETATM   15  C5  UNL     1      -3.556   4.367   9.875  1.00  0.00     0.131 C 
HETATM   16  S1  UNL     1      -3.686   2.988  10.943  1.00  0.00     0.269 S 
HETATM   17  O4  UNL     1      -5.065   2.451  11.031  1.00  0.00    -0.200 OA
HETATM   18  O5  UNL     1      -2.662   1.942  10.632  1.00  0.00    -0.200 OA
ENDBRANCH   3  12
TORSDOF 4
ENDMDL
