MODEL 1
REMARK VINA RESULT: -7.410835255      0.000      0.000
REMARK  2 active torsions:
REMARK  status: ('A' for Active; 'I' for Inactive)
REMARK    1  A    between atoms: C7_7  and  C8_8 
REMARK       I    between atoms: C8_8  and  N1_10 
REMARK    2  A    between atoms: C12_16  and  N3_17 
ROOT
HETATM    1  C1  UNL     1      -5.432   8.250  11.331  1.00  0.00     0.013 C 
HETATM    2  C2  UNL     1      -4.837   7.199  11.325  1.00  0.00    -0.107 C 
HETATM    3  C3  UNL     1      -4.122   5.905  11.296  1.00  0.00     0.026 C 
HETATM    4  C4  UNL     1      -4.460   5.146  10.041  1.00  0.00     0.027 C 
HETATM    5  C5  UNL     1      -3.721   3.833  10.066  1.00  0.00    -0.009 C 
HETATM    6  C6  UNL     1      -2.251   4.132  10.144  1.00  0.00     0.024 C 
HETATM    7  C7  UNL     1      -1.922   4.851  11.435  1.00  0.00     0.046 C 
HETATM    8  C10 UNL     1      -2.640   6.178  11.433  1.00  0.00     0.042 C 
HETATM    9  C11 UNL     1      -2.430   4.070  12.622  1.00  0.00     0.052 C 
HETATM   10  C12 UNL     1      -3.910   3.778  12.511  1.00  0.00     0.054 C 
HETATM   11  C15 UNL     1      -4.165   3.014  11.251  1.00  0.00     0.037 C 
HETATM   12  C16 UNL     1      -4.635   5.090  12.476  1.00  0.00     0.055 C 
ENDROOT
BRANCH   7  13
HETATM   13  C8  UNL     1      -0.470   4.975  11.527  1.00  0.00     0.239 C 
HETATM   14  O1  UNL     1       0.007   5.941  12.195  1.00  0.00    -0.272 OA
HETATM   15  N1  UNL     1       0.457   4.098  10.926  1.00  0.00    -0.263 N 
HETATM   16  C9  UNL     1       1.831   4.281  11.060  1.00  0.00     0.184 C 
ATOM     17  H1  UNL     1       0.112   3.308  10.381  1.00  0.00     0.181 HD
HETATM   18  N2  UNL     1       2.985   4.447  11.154  1.00  0.00    -0.172 NA
ENDBRANCH   7  13
BRANCH  10  19
HETATM   19  N3  UNL     1      -4.287   3.020  13.684  1.00  0.00    -0.274 N 
HETATM   20  C13 UNL     1      -4.917   3.521  14.773  1.00  0.00     0.147 A 
HETATM   21  C14 UNL     1      -5.118   2.501  15.699  1.00  0.00     0.109 A 
HETATM   22 BR1  UNL     1      -5.948   2.608  17.405  1.00  0.00    -0.029 Br
HETATM   23  N4  UNL     1      -4.592   1.409  15.121  1.00  0.00    -0.276 N 
HETATM   24  N5  UNL     1      -4.107   1.734  13.935  1.00  0.00    -0.019 NA
ATOM     25  H4  UNL     1      -4.569   0.475  15.532  1.00  0.00     0.185 HD
ENDBRANCH  10  19
TORSDOF 2
ENDMDL
MODEL 2
REMARK VINA RESULT: -7.192113070      1.676      2.113
REMARK  2 active torsions:
REMARK  status: ('A' for Active; 'I' for Inactive)
REMARK    1  A    between atoms: C7_7  and  C8_8 
REMARK       I    between atoms: C8_8  and  N1_10 
REMARK    2  A    between atoms: C12_16  and  N3_17 
ROOT
HETATM    1  C1  UNL     1      -1.608   8.914  14.663  1.00  0.00     0.013 C 
HETATM    2  C2  UNL     1      -1.897   7.966  13.975  1.00  0.00    -0.107 C 
HETATM    3  C3  UNL     1      -2.268   6.818  13.119  1.00  0.00     0.026 C 
HETATM    4  C4  UNL     1      -3.169   7.267  12.000  1.00  0.00     0.027 C 
HETATM    5  C5  UNL     1      -3.529   6.064  11.168  1.00  0.00    -0.009 C 
HETATM    6  C6  UNL     1      -2.255   5.471  10.638  1.00  0.00     0.024 C 
HETATM    7  C7  UNL     1      -1.384   4.979  11.774  1.00  0.00     0.046 C 
HETATM    8  C10 UNL     1      -0.997   6.167  12.620  1.00  0.00     0.042 C 
HETATM    9  C11 UNL     1      -2.154   4.031  12.662  1.00  0.00     0.052 C 
HETATM   10  C12 UNL     1      -3.434   4.654  13.173  1.00  0.00     0.054 C 
HETATM   11  C15 UNL     1      -4.279   5.062  12.009  1.00  0.00     0.037 C 
HETATM   12  C16 UNL     1      -3.065   5.856  13.990  1.00  0.00     0.055 C 
ENDROOT
BRANCH   7  13
HETATM   13  C8  UNL     1      -0.241   4.277  11.198  1.00  0.00     0.239 C 
HETATM   14  O1  UNL     1      -0.129   3.034  11.418  1.00  0.00    -0.272 OA
HETATM   15  N1  UNL     1       0.761   4.877  10.406  1.00  0.00    -0.263 N 
HETATM   16  C9  UNL     1       1.824   4.140   9.890  1.00  0.00     0.184 C 
ATOM     17  H1  UNL     1       0.705   5.875  10.207  1.00  0.00     0.181 HD
HETATM   18  N2  UNL     1       2.728   3.526   9.473  1.00  0.00    -0.172 NA
ENDBRANCH   7  13
BRANCH  10  19
HETATM   19  N3  UNL     1      -4.095   3.664  13.995  1.00  0.00    -0.274 N 
HETATM   20  C13 UNL     1      -5.018   3.927  14.950  1.00  0.00     0.147 A 
HETATM   21  C14 UNL     1      -5.432   2.732  15.532  1.00  0.00     0.109 A 
HETATM   22 BR1  UNL     1      -6.704   2.478  16.920  1.00  0.00    -0.029 Br
HETATM   23  N4  UNL     1      -4.729   1.782  14.893  1.00  0.00    -0.276 N 
HETATM   24  N5  UNL     1      -3.947   2.350  13.992  1.00  0.00    -0.019 NA
ATOM     25  H4  UNL     1      -4.789   0.780  15.074  1.00  0.00     0.185 HD
ENDBRANCH  10  19
TORSDOF 2
ENDMDL
MODEL 3
REMARK VINA RESULT: -7.169219639      2.163      2.391
REMARK  2 active torsions:
REMARK  status: ('A' for Active; 'I' for Inactive)
REMARK    1  A    between atoms: C7_7  and  C8_8 
REMARK       I    between atoms: C8_8  and  N1_10 
REMARK    2  A    between atoms: C12_16  and  N3_17 
ROOT
HETATM    1  C1  UNL     1      -7.008   8.593  11.592  1.00  0.00     0.013 C 
HETATM    2  C2  UNL     1      -6.088   7.816  11.680  1.00  0.00    -0.107 C 
HETATM    3  C3  UNL     1      -4.969   6.852  11.765  1.00  0.00     0.026 C 
HETATM    4  C4  UNL     1      -4.861   6.059  10.490  1.00  0.00     0.027 C 
HETATM    5  C5  UNL     1      -3.720   5.086  10.632  1.00  0.00    -0.009 C 
HETATM    6  C6  UNL     1      -2.469   5.876  10.892  1.00  0.00     0.024 C 
HETATM    7  C7  UNL     1      -2.575   6.626  12.201  1.00  0.00     0.046 C 
HETATM    8  C10 UNL     1      -3.705   7.620  12.084  1.00  0.00     0.042 C 
HETATM    9  C11 UNL     1      -2.924   5.684  13.327  1.00  0.00     0.052 C 
HETATM   10  C12 UNL     1      -4.183   4.899  13.034  1.00  0.00     0.054 C 
HETATM   11  C15 UNL     1      -3.996   4.130  11.765  1.00  0.00     0.037 C 
HETATM   12  C16 UNL     1      -5.309   5.877  12.884  1.00  0.00     0.055 C 
ENDROOT
BRANCH   7  13
HETATM   13  C8  UNL     1      -1.282   7.246  12.475  1.00  0.00     0.239 C 
HETATM   14  O1  UNL     1      -0.253   6.505  12.484  1.00  0.00    -0.272 OA
HETATM   15  N1  UNL     1      -1.080   8.618  12.733  1.00  0.00    -0.263 N 
HETATM   16  C9  UNL     1       0.187   9.136  12.986  1.00  0.00     0.184 C 
ATOM     17  H1  UNL     1      -1.884   9.246  12.735  1.00  0.00     0.181 HD
HETATM   18  N2  UNL     1       1.248   9.570  13.219  1.00  0.00    -0.172 NA
ENDBRANCH   7  13
BRANCH  10  19
HETATM   19  N3  UNL     1      -4.416   4.024  14.162  1.00  0.00    -0.274 N 
HETATM   20  C13 UNL     1      -5.329   4.231  15.140  1.00  0.00     0.147 A 
HETATM   21  C14 UNL     1      -5.270   3.184  16.055  1.00  0.00     0.109 A 
HETATM   22 BR1  UNL     1      -6.309   2.934  17.626  1.00  0.00    -0.029 Br
HETATM   23  N4  UNL     1      -4.307   2.374  15.583  1.00  0.00    -0.276 N 
HETATM   24  N5  UNL     1      -3.815   2.886  14.468  1.00  0.00    -0.019 NA
ATOM     25  H4  UNL     1      -4.002   1.503  16.016  1.00  0.00     0.185 HD
ENDBRANCH  10  19
TORSDOF 2
ENDMDL
MODEL 4
REMARK VINA RESULT: -7.161504661      3.679      5.463
REMARK  2 active torsions:
REMARK  status: ('A' for Active; 'I' for Inactive)
REMARK    1  A    between atoms: C7_7  and  C8_8 
REMARK       I    between atoms: C8_8  and  N1_10 
REMARK    2  A    between atoms: C12_16  and  N3_17 
ROOT
HETATM    1  C1  UNL     1      -1.571   8.261  15.086  1.00  0.00     0.013 C 
HETATM    2  C2  UNL     1      -1.889   7.659  14.089  1.00  0.00    -0.107 C 
HETATM    3  C3  UNL     1      -2.259   6.933  12.854  1.00  0.00     0.026 C 
HETATM    4  C4  UNL     1      -1.242   7.182  11.773  1.00  0.00     0.027 C 
HETATM    5  C5  UNL     1      -1.671   6.436  10.537  1.00  0.00    -0.009 C 
HETATM    6  C6  UNL     1      -1.753   4.977  10.884  1.00  0.00     0.024 C 
HETATM    7  C7  UNL     1      -2.815   4.739  11.935  1.00  0.00     0.046 C 
HETATM    8  C10 UNL     1      -2.406   5.466  13.192  1.00  0.00     0.042 C 
HETATM    9  C11 UNL     1      -4.138   5.318  11.495  1.00  0.00     0.052 C 
HETATM   10  C12 UNL     1      -4.021   6.784  11.146  1.00  0.00     0.054 C 
HETATM   11  C15 UNL     1      -3.006   6.951  10.061  1.00  0.00     0.037 C 
HETATM   12  C16 UNL     1      -3.584   7.516  12.379  1.00  0.00     0.055 C 
ENDROOT
BRANCH   7  13
HETATM   13  C8  UNL     1      -2.957   3.297  12.116  1.00  0.00     0.239 C 
HETATM   14  O1  UNL     1      -1.905   2.591  12.155  1.00  0.00    -0.272 OA
HETATM   15  N1  UNL     1      -4.185   2.616  12.254  1.00  0.00    -0.263 N 
HETATM   16  C9  UNL     1      -4.241   1.236  12.426  1.00  0.00     0.184 C 
ATOM     17  H1  UNL     1      -5.054   3.150  12.228  1.00  0.00     0.181 HD
HETATM   18  N2  UNL     1      -4.291   0.073  12.549  1.00  0.00    -0.172 NA
ENDBRANCH   7  13
BRANCH  10  19
HETATM   19  N3  UNL     1      -5.332   7.231  10.727  1.00  0.00    -0.274 N 
HETATM   20  C13 UNL     1      -5.712   7.456   9.447  1.00  0.00     0.147 A 
HETATM   21  C14 UNL     1      -7.039   7.876   9.427  1.00  0.00     0.109 A 
HETATM   22 BR1  UNL     1      -8.106   8.335   7.923  1.00  0.00    -0.029 Br
HETATM   23  N4  UNL     1      -7.411   7.887  10.718  1.00  0.00    -0.276 N 
HETATM   24  N5  UNL     1      -6.391   7.505  11.468  1.00  0.00    -0.019 NA
ATOM     25  H4  UNL     1      -8.333   8.149  11.065  1.00  0.00     0.185 HD
ENDBRANCH  10  19
TORSDOF 2
ENDMDL
MODEL 5
REMARK VINA RESULT: -7.156285364      3.519      5.507
REMARK  2 active torsions:
REMARK  status: ('A' for Active; 'I' for Inactive)
REMARK    1  A    between atoms: C7_7  and  C8_8 
REMARK       I    between atoms: C8_8  and  N1_10 
REMARK    2  A    between atoms: C12_16  and  N3_17 
ROOT
HETATM    1  C1  UNL     1      -1.967   8.164  14.722  1.00  0.00     0.013 C 
HETATM    2  C2  UNL     1      -2.169   7.280  13.925  1.00  0.00    -0.107 C 
HETATM    3  C3  UNL     1      -2.393   6.202  12.937  1.00  0.00     0.026 C 
HETATM    4  C4  UNL     1      -1.139   5.947  12.144  1.00  0.00     0.027 C 
HETATM    5  C5  UNL     1      -1.422   4.856  11.146  1.00  0.00    -0.009 C 
HETATM    6  C6  UNL     1      -1.845   3.632  11.907  1.00  0.00     0.024 C 
HETATM    7  C7  UNL     1      -3.133   3.890  12.658  1.00  0.00     0.046 C 
HETATM    8  C10 UNL     1      -2.876   4.974  13.676  1.00  0.00     0.042 C 
HETATM    9  C11 UNL     1      -4.201   4.402  11.721  1.00  0.00     0.052 C 
HETATM   10  C12 UNL     1      -3.743   5.628  10.964  1.00  0.00     0.054 C 
HETATM   11  C15 UNL     1      -2.506   5.296  10.194  1.00  0.00     0.037 C 
HETATM   12  C16 UNL     1      -3.454   6.705  11.967  1.00  0.00     0.055 C 
ENDROOT
BRANCH   7  13
HETATM   13  C8  UNL     1      -3.575   2.630  13.248  1.00  0.00     0.239 C 
HETATM   14  O1  UNL     1      -3.433   1.569  12.569  1.00  0.00    -0.272 OA
HETATM   15  N1  UNL     1      -4.153   2.495  14.528  1.00  0.00    -0.263 N 
HETATM   16  C9  UNL     1      -4.550   1.256  15.024  1.00  0.00     0.184 C 
ATOM     17  H1  UNL     1      -4.283   3.326  15.104  1.00  0.00     0.181 HD
HETATM   18  N2  UNL     1      -4.902   0.219  15.434  1.00  0.00    -0.172 NA
ENDBRANCH   7  13
BRANCH  10  19
HETATM   19  N3  UNL     1      -4.828   6.024  10.092  1.00  0.00    -0.274 N 
HETATM   20  C13 UNL     1      -5.518   7.186  10.176  1.00  0.00     0.147 A 
HETATM   21  C14 UNL     1      -6.485   7.221   9.176  1.00  0.00     0.109 A 
HETATM   22 BR1  UNL     1      -7.745   8.594   8.804  1.00  0.00    -0.029 Br
HETATM   23  N4  UNL     1      -6.336   6.059   8.518  1.00  0.00    -0.276 N 
HETATM   24  N5  UNL     1      -5.355   5.367   9.074  1.00  0.00    -0.019 NA
ATOM     25  H4  UNL     1      -6.891   5.757   7.718  1.00  0.00     0.185 HD
ENDBRANCH  10  19
TORSDOF 2
ENDMDL
