MODEL 1
REMARK VINA RESULT: -9.332449499      0.000      0.000
REMARK  3 active torsions:
REMARK  status: ('A' for Active; 'I' for Inactive)
REMARK       I    between atoms: C1_2  and  N1_3 
REMARK    1  A    between atoms: C1_2  and  C12_15 
REMARK    2  A    between atoms: N1_3  and  C2_5 
REMARK    3  A    between atoms: N2_18  and  C15_19 
ROOT
HETATM    1  C12 UNL     1      -4.649   5.999  13.008  1.00  0.00     0.081 C 
HETATM    2  C13 UNL     1      -4.209   4.600  12.743  1.00  0.00     0.034 C 
HETATM    3  C14 UNL     1      -3.819   3.982  14.072  1.00  0.00     0.125 C 
HETATM    4  N2  UNL     1      -4.968   4.099  14.956  1.00  0.00    -0.363 N 
HETATM    5  C19 UNL     1      -5.853   5.225  14.995  1.00  0.00     0.125 C 
HETATM    6  C20 UNL     1      -5.972   5.968  13.707  1.00  0.00     0.034 C 
ENDROOT
BRANCH   1   7
HETATM    7  C1  UNL     1      -4.693   6.842  11.787  1.00  0.00     0.222 C 
HETATM    8  O1  UNL     1      -4.065   7.928  11.720  1.00  0.00    -0.273 OA
HETATM    9  N1  UNL     1      -5.448   6.445  10.654  1.00  0.00    -0.356 N 
ATOM     10  H1  UNL     1      -5.967   5.567  10.685  1.00  0.00     0.162 HD
BRANCH   9  11
HETATM   11  C2  UNL     1      -5.503   7.254   9.455  1.00  0.00     0.089 C 
HETATM   12  C3  UNL     1      -5.313   6.442   8.205  1.00  0.00     0.030 C 
HETATM   13  C4  UNL     1      -6.395   6.801   7.209  1.00  0.00    -0.012 C 
HETATM   14  C5  UNL     1      -6.351   8.190   6.722  1.00  0.00     0.009 C 
HETATM   15  C9  UNL     1      -7.688   6.407   7.890  1.00  0.00     0.010 C 
HETATM   16  C6  UNL     1      -7.143   9.193   7.482  1.00  0.00    -0.013 C 
HETATM   17  C7  UNL     1      -8.468   8.660   7.991  1.00  0.00     0.010 C 
HETATM   18  C11 UNL     1      -6.441   9.424   8.830  1.00  0.00     0.011 C 
HETATM   19  C8  UNL     1      -7.953   7.527   8.895  1.00  0.00    -0.008 C 
HETATM   20  C10 UNL     1      -6.730   8.091   9.491  1.00  0.00     0.013 C 
ENDBRANCH   9  11
ENDBRANCH   1   7
BRANCH   4  21
HETATM   21  C15 UNL     1      -5.207   3.005  15.836  1.00  0.00     0.175 A 
HETATM   22  N3  UNL     1      -5.703   3.247  17.059  1.00  0.00    -0.313 N 
HETATM   23  C16 UNL     1      -5.959   2.288  17.952  1.00  0.00     0.205 A 
ATOM     24  H3  UNL     1      -5.896   4.214  17.320  1.00  0.00     0.170 HD
HETATM   25  F1  UNL     1      -6.464   2.557  19.192  1.00  0.00    -0.185 F 
HETATM   26  C17 UNL     1      -5.697   0.979  17.590  1.00  0.00     0.152 A 
HETATM   27  N4  UNL     1      -5.200   0.711  16.372  1.00  0.00    -0.326 N 
HETATM   28  C18 UNL     1      -4.948   1.697  15.482  1.00  0.00     0.289 A 
ATOM     29  H4  UNL     1      -5.010  -0.256  16.112  1.00  0.00     0.168 HD
HETATM   30  O2  UNL     1      -4.477   1.429  14.330  1.00  0.00    -0.264 OA
ENDBRANCH   4  21
TORSDOF 3
ENDMDL
MODEL 2
REMARK VINA RESULT: -8.706826283      4.491      6.136
REMARK  3 active torsions:
REMARK  status: ('A' for Active; 'I' for Inactive)
REMARK       I    between atoms: C1_2  and  N1_3 
REMARK    1  A    between atoms: C1_2  and  C12_15 
REMARK    2  A    between atoms: N1_3  and  C2_5 
REMARK    3  A    between atoms: N2_18  and  C15_19 
ROOT
HETATM    1  C12 UNL     1      -3.322   3.429  12.052  1.00  0.00     0.081 C 
HETATM    2  C13 UNL     1      -3.070   4.151  13.331  1.00  0.00     0.034 C 
HETATM    3  C14 UNL     1      -4.311   4.004  14.192  1.00  0.00     0.125 C 
HETATM    4  N2  UNL     1      -4.569   2.580  14.339  1.00  0.00    -0.363 N 
HETATM    5  C19 UNL     1      -4.373   1.607  13.306  1.00  0.00     0.125 C 
HETATM    6  C20 UNL     1      -3.314   1.955  12.315  1.00  0.00     0.034 C 
ENDROOT
BRANCH   1   7
HETATM    7  C1  UNL     1      -2.371   3.799  10.973  1.00  0.00     0.222 C 
HETATM    8  O1  UNL     1      -2.693   3.713   9.761  1.00  0.00    -0.273 OA
HETATM    9  N1  UNL     1      -1.066   4.262  11.279  1.00  0.00    -0.356 N 
ATOM     10  H1  UNL     1      -0.783   4.340  12.256  1.00  0.00     0.162 HD
BRANCH   9  11
HETATM   11  C2  UNL     1      -0.126   4.627  10.241  1.00  0.00     0.089 C 
HETATM   12  C3  UNL     1      -0.224   6.078   9.861  1.00  0.00     0.030 C 
HETATM   13  C4  UNL     1       1.164   6.682   9.843  1.00  0.00    -0.012 C 
HETATM   14  C5  UNL     1       2.068   6.124   8.824  1.00  0.00     0.009 C 
HETATM   15  C9  UNL     1       1.657   6.552  11.269  1.00  0.00     0.010 C 
HETATM   16  C6  UNL     1       2.909   4.968   9.232  1.00  0.00    -0.013 C 
HETATM   17  C7  UNL     1       3.416   5.061  10.659  1.00  0.00     0.010 C 
HETATM   18  C11 UNL     1       1.988   3.746   9.383  1.00  0.00     0.011 C 
HETATM   19  C8  UNL     1       2.071   5.088  11.403  1.00  0.00    -0.008 C 
HETATM   20  C10 UNL     1       1.230   4.160  10.629  1.00  0.00     0.013 C 
ENDBRANCH   9  11
ENDBRANCH   1   7
BRANCH   4  21
HETATM   21  C15 UNL     1      -5.051   2.150  15.608  1.00  0.00     0.175 A 
HETATM   22  N3  UNL     1      -5.483   3.067  16.488  1.00  0.00    -0.313 N 
HETATM   23  C16 UNL     1      -5.950   2.761  17.700  1.00  0.00     0.205 A 
ATOM     24  H3  UNL     1      -5.453   4.050  16.216  1.00  0.00     0.170 HD
HETATM   25  F1  UNL     1      -6.386   3.710  18.580  1.00  0.00    -0.185 F 
HETATM   26  C17 UNL     1      -5.990   1.426  18.061  1.00  0.00     0.152 A 
HETATM   27  N4  UNL     1      -5.563   0.490  17.198  1.00  0.00    -0.326 N 
HETATM   28  C18 UNL     1      -5.093   0.821  15.975  1.00  0.00     0.289 A 
ATOM     29  H4  UNL     1      -5.595  -0.493  17.471  1.00  0.00     0.168 HD
HETATM   30  O2  UNL     1      -4.692  -0.078  15.167  1.00  0.00    -0.264 OA
ENDBRANCH   4  21
TORSDOF 3
ENDMDL
MODEL 3
REMARK VINA RESULT: -8.672687128      1.082      1.669
REMARK  3 active torsions:
REMARK  status: ('A' for Active; 'I' for Inactive)
REMARK       I    between atoms: C1_2  and  N1_3 
REMARK    1  A    between atoms: C1_2  and  C12_15 
REMARK    2  A    between atoms: N1_3  and  C2_5 
REMARK    3  A    between atoms: N2_18  and  C15_19 
ROOT
HETATM    1  C12 UNL     1      -4.798   5.515  12.895  1.00  0.00     0.081 C 
HETATM    2  C13 UNL     1      -5.845   5.648  13.948  1.00  0.00     0.034 C 
HETATM    3  C14 UNL     1      -6.302   4.250  14.319  1.00  0.00     0.125 C 
HETATM    4  N2  UNL     1      -5.122   3.504  14.727  1.00  0.00    -0.363 N 
HETATM    5  C19 UNL     1      -3.831   3.628  14.119  1.00  0.00     0.125 C 
HETATM    6  C20 UNL     1      -3.553   4.963  13.514  1.00  0.00     0.034 C 
ENDROOT
BRANCH   1   7
HETATM    7  C1  UNL     1      -4.534   6.782  12.167  1.00  0.00     0.222 C 
HETATM    8  O1  UNL     1      -3.556   7.513  12.462  1.00  0.00    -0.273 OA
HETATM    9  N1  UNL     1      -5.382   7.206  11.112  1.00  0.00    -0.356 N 
ATOM     10  H1  UNL     1      -6.182   6.629  10.854  1.00  0.00     0.162 HD
BRANCH   9  11
HETATM   11  C2  UNL     1      -5.140   8.438  10.391  1.00  0.00     0.089 C 
HETATM   12  C3  UNL     1      -4.364   8.219   9.124  1.00  0.00     0.030 C 
HETATM   13  C4  UNL     1      -5.053   8.943   7.987  1.00  0.00    -0.012 C 
HETATM   14  C5  UNL     1      -5.086  10.409   8.116  1.00  0.00     0.009 C 
HETATM   15  C9  UNL     1      -6.411   8.283   7.881  1.00  0.00     0.010 C 
HETATM   16  C6  UNL     1      -6.267  10.996   8.801  1.00  0.00    -0.013 C 
HETATM   17  C7  UNL     1      -7.568  10.280   8.487  1.00  0.00     0.010 C 
HETATM   18  C11 UNL     1      -6.161  10.658  10.297  1.00  0.00     0.011 C 
HETATM   19  C8  UNL     1      -7.222   8.883   9.029  1.00  0.00    -0.008 C 
HETATM   20  C10 UNL     1      -6.425   9.167  10.233  1.00  0.00     0.013 C 
ENDBRANCH   9  11
ENDBRANCH   1   7
BRANCH   4  21
HETATM   21  C15 UNL     1      -5.290   2.592  15.808  1.00  0.00     0.175 A 
HETATM   22  N3  UNL     1      -5.747   3.051  16.984  1.00  0.00    -0.313 N 
HETATM   23  C16 UNL     1      -5.935   2.274  18.053  1.00  0.00     0.205 A 
ATOM     24  H3  UNL     1      -5.961   4.045  17.065  1.00  0.00     0.170 HD
HETATM   25  F1  UNL     1      -6.401   2.761  19.240  1.00  0.00    -0.185 F 
HETATM   26  C17 UNL     1      -5.643   0.927  17.935  1.00  0.00     0.152 A 
HETATM   27  N4  UNL     1      -5.185   0.444  16.769  1.00  0.00    -0.326 N 
HETATM   28  C18 UNL     1      -5.000   1.248  15.698  1.00  0.00     0.289 A 
ATOM     29  H4  UNL     1      -4.972  -0.550  16.690  1.00  0.00     0.168 HD
HETATM   30  O2  UNL     1      -4.565   0.777  14.598  1.00  0.00    -0.264 OA
ENDBRANCH   4  21
TORSDOF 3
ENDMDL
MODEL 4
REMARK VINA RESULT: -8.667696657      1.513      1.684
REMARK  3 active torsions:
REMARK  status: ('A' for Active; 'I' for Inactive)
REMARK       I    between atoms: C1_2  and  N1_3 
REMARK    1  A    between atoms: C1_2  and  C12_15 
REMARK    2  A    between atoms: N1_3  and  C2_5 
REMARK    3  A    between atoms: N2_18  and  C15_19 
ROOT
HETATM    1  C12 UNL     1      -4.767   6.320  12.829  1.00  0.00     0.081 C 
HETATM    2  C13 UNL     1      -4.150   4.995  12.540  1.00  0.00     0.034 C 
HETATM    3  C14 UNL     1      -3.779   4.362  13.867  1.00  0.00     0.125 C 
HETATM    4  N2  UNL     1      -4.990   4.304  14.671  1.00  0.00    -0.363 N 
HETATM    5  C19 UNL     1      -6.001   5.318  14.692  1.00  0.00     0.125 C 
HETATM    6  C20 UNL     1      -6.121   6.105  13.431  1.00  0.00     0.034 C 
ENDROOT
BRANCH   1   7
HETATM    7  C1  UNL     1      -4.829   7.211  11.643  1.00  0.00     0.222 C 
HETATM    8  O1  UNL     1      -4.074   8.210  11.537  1.00  0.00    -0.273 OA
HETATM    9  N1  UNL     1      -5.746   6.960  10.591  1.00  0.00    -0.356 N 
ATOM     10  H1  UNL     1      -6.369   6.155  10.655  1.00  0.00     0.162 HD
BRANCH   9  11
HETATM   11  C2  UNL     1      -5.820   7.818   9.427  1.00  0.00     0.089 C 
HETATM   12  C3  UNL     1      -5.477   7.093   8.156  1.00  0.00     0.030 C 
HETATM   13  C4  UNL     1      -6.535   7.388   7.115  1.00  0.00    -0.012 C 
HETATM   14  C5  UNL     1      -6.612   8.796   6.692  1.00  0.00     0.009 C 
HETATM   15  C9  UNL     1      -7.814   6.829   7.699  1.00  0.00     0.010 C 
HETATM   16  C6  UNL     1      -7.545   9.674   7.446  1.00  0.00    -0.013 C 
HETATM   17  C7  UNL     1      -8.833   8.982   7.852  1.00  0.00     0.010 C 
HETATM   18  C11 UNL     1      -6.947   9.908   8.843  1.00  0.00     0.011 C 
HETATM   19  C8  UNL     1      -8.251   7.864   8.735  1.00  0.00    -0.008 C 
HETATM   20  C10 UNL     1      -7.129   8.521   9.426  1.00  0.00     0.013 C 
ENDBRANCH   9  11
ENDBRANCH   1   7
BRANCH   4  21
HETATM   21  C15 UNL     1      -5.156   3.148  15.487  1.00  0.00     0.175 A 
HETATM   22  N3  UNL     1      -4.720   1.962  15.035  1.00  0.00    -0.313 N 
HETATM   23  C16 UNL     1      -4.832   0.826  15.725  1.00  0.00     0.205 A 
ATOM     24  H3  UNL     1      -4.279   1.928  14.115  1.00  0.00     0.170 HD
HETATM   25  F1  UNL     1      -4.381  -0.371  15.246  1.00  0.00    -0.185 F 
HETATM   26  C17 UNL     1      -5.430   0.881  16.972  1.00  0.00     0.152 A 
HETATM   27  N4  UNL     1      -5.874   2.056  17.446  1.00  0.00    -0.326 N 
HETATM   28  C18 UNL     1      -5.751   3.196  16.730  1.00  0.00     0.289 A 
ATOM     29  H4  UNL     1      -6.313   2.089  18.366  1.00  0.00     0.168 HD
HETATM   30  O2  UNL     1      -6.177   4.303  17.192  1.00  0.00    -0.264 OA
ENDBRANCH   4  21
TORSDOF 3
ENDMDL
MODEL 5
REMARK VINA RESULT: -8.616444246      2.076      2.968
REMARK  3 active torsions:
REMARK  status: ('A' for Active; 'I' for Inactive)
REMARK       I    between atoms: C1_2  and  N1_3 
REMARK    1  A    between atoms: C1_2  and  C12_15 
REMARK    2  A    between atoms: N1_3  and  C2_5 
REMARK    3  A    between atoms: N2_18  and  C15_19 
ROOT
HETATM    1  C12 UNL     1      -3.902   3.280  11.578  1.00  0.00     0.081 C 
HETATM    2  C13 UNL     1      -4.907   2.204  11.809  1.00  0.00     0.034 C 
HETATM    3  C14 UNL     1      -4.535   1.497  13.099  1.00  0.00     0.125 C 
HETATM    4  N2  UNL     1      -4.477   2.507  14.143  1.00  0.00    -0.363 N 
HETATM    5  C19 UNL     1      -3.979   3.838  13.961  1.00  0.00     0.125 C 
HETATM    6  C20 UNL     1      -4.122   4.373  12.576  1.00  0.00     0.034 C 
ENDROOT
BRANCH   1   7
HETATM    7  C1  UNL     1      -3.906   3.797  10.187  1.00  0.00     0.222 C 
HETATM    8  O1  UNL     1      -3.400   3.139   9.244  1.00  0.00    -0.273 OA
HETATM    9  N1  UNL     1      -4.483   5.056   9.879  1.00  0.00    -0.356 N 
ATOM     10  H1  UNL     1      -4.899   5.608  10.629  1.00  0.00     0.162 HD
BRANCH   9  11
HETATM   11  C2  UNL     1      -4.495   5.576   8.529  1.00  0.00     0.089 C 
HETATM   12  C3  UNL     1      -5.780   6.280   8.196  1.00  0.00     0.030 C 
HETATM   13  C4  UNL     1      -5.465   7.620   7.567  1.00  0.00    -0.012 C 
HETATM   14  C5  UNL     1      -4.772   7.547   6.270  1.00  0.00     0.009 C 
HETATM   15  C9  UNL     1      -4.721   8.383   8.642  1.00  0.00     0.010 C 
HETATM   16  C6  UNL     1      -3.286   7.556   6.301  1.00  0.00    -0.013 C 
HETATM   17  C7  UNL     1      -2.708   8.468   7.366  1.00  0.00     0.010 C 
HETATM   18  C11 UNL     1      -2.819   6.203   6.862  1.00  0.00     0.011 C 
HETATM   19  C8  UNL     1      -3.307   7.806   8.618  1.00  0.00    -0.008 C 
HETATM   20  C10 UNL     1      -3.258   6.368   8.303  1.00  0.00     0.013 C 
ENDBRANCH   9  11
ENDBRANCH   1   7
BRANCH   4  21
HETATM   21  C15 UNL     1      -4.954   2.120  15.429  1.00  0.00     0.175 A 
HETATM   22  N3  UNL     1      -5.403   3.065  16.270  1.00  0.00    -0.313 N 
HETATM   23  C16 UNL     1      -5.868   2.800  17.492  1.00  0.00     0.205 A 
ATOM     24  H3  UNL     1      -5.389   4.037  15.958  1.00  0.00     0.170 HD
HETATM   25  F1  UNL     1      -6.321   3.777  18.332  1.00  0.00    -0.185 F 
HETATM   26  C17 UNL     1      -5.886   1.481  17.907  1.00  0.00     0.152 A 
HETATM   27  N4  UNL     1      -5.442   0.517  17.084  1.00  0.00    -0.326 N 
HETATM   28  C18 UNL     1      -4.975   0.807  15.849  1.00  0.00     0.289 A 
ATOM     29  H4  UNL     1      -5.459  -0.453  17.396  1.00  0.00     0.168 HD
HETATM   30  O2  UNL     1      -4.557  -0.117  15.078  1.00  0.00    -0.264 OA
ENDBRANCH   4  21
TORSDOF 3
ENDMDL
