MODEL 1
REMARK VINA RESULT: -6.736913520      0.000      0.000
REMARK  4 active torsions:
REMARK  status: ('A' for Active; 'I' for Inactive)
REMARK    1  A    between atoms: C7_12  and  N3_13 
REMARK    2  A    between atoms: N3_13  and  C8_15 
REMARK    3  A    between atoms: C8_15  and  C9_16 
REMARK    4  A    between atoms: C9_16  and  N4_17 
ROOT
HETATM    1  C1  UNL     1      -6.002   4.994  16.350  1.00  0.00     0.051 C 
HETATM    2  C2  UNL     1      -5.609   3.570  15.993  1.00  0.00    -0.022 A 
HETATM    3  C3  UNL     1      -5.692   2.608  16.967  1.00  0.00     0.059 A 
HETATM    4 BR1  UNL     1      -6.248   2.764  18.790  1.00  0.00    -0.042 Br
HETATM    5  S1  UNL     1      -5.175   1.195  16.176  1.00  0.00    -0.079 SA
HETATM    6  C4  UNL     1      -4.868   1.857  14.630  1.00  0.00     0.046 A 
HETATM    7  C5  UNL     1      -4.409   1.295  13.431  1.00  0.00     0.079 A 
HETATM    8  N1  UNL     1      -4.117  -0.090  13.393  1.00  0.00    -0.100 NA
HETATM    9  C6  UNL     1      -4.253   2.097  12.311  1.00  0.00     0.117 A 
HETATM   10  N2  UNL     1      -4.563   3.380  12.476  1.00  0.00    -0.350 N 
ATOM     11  H2  UNL     1      -4.455   3.990  11.666  1.00  0.00     0.166 HD
HETATM   12  C7  UNL     1      -5.004   3.949  13.610  1.00  0.00     0.113 A 
HETATM   13  C14 UNL     1      -5.181   3.180  14.780  1.00  0.00     0.035 A 
ENDROOT
BRANCH  12  14
HETATM   14  N3  UNL     1      -5.271   5.203  13.647  1.00  0.00    -0.374 N 
ATOM     15  H3  UNL     1      -5.858   5.504  14.425  1.00  0.00     0.161 HD
BRANCH  14  16
HETATM   16  C8  UNL     1      -4.863   6.224  12.762  1.00  0.00     0.141 C 
BRANCH  16  17
HETATM   17  C9  UNL     1      -3.421   6.601  13.126  1.00  0.00     0.146 C 
BRANCH  17  18
HETATM   18  N4  UNL     1      -2.515   5.951  12.264  1.00  0.00    -0.368 N 
HETATM   19  C10 UNL     1      -1.559   5.083  12.804  1.00  0.00     0.089 C 
HETATM   20  C11 UNL     1      -0.926   4.119  11.850  1.00  0.00     0.212 C 
HETATM   21  O1  UNL     1      -1.697   3.874  10.723  1.00  0.00    -0.381 OA
HETATM   22  C12 UNL     1      -1.881   5.069  10.066  1.00  0.00     0.212 C 
HETATM   23  C13 UNL     1      -2.793   5.928  10.885  1.00  0.00     0.089 C 
ENDBRANCH  17  18
ENDBRANCH  16  17
ENDBRANCH  14  16
ENDBRANCH  12  14
TORSDOF 4
ENDMDL
MODEL 2
REMARK VINA RESULT: -6.719094827      2.641      3.275
REMARK  4 active torsions:
REMARK  status: ('A' for Active; 'I' for Inactive)
REMARK    1  A    between atoms: C7_12  and  N3_13 
REMARK    2  A    between atoms: N3_13  and  C8_15 
REMARK    3  A    between atoms: C8_15  and  C9_16 
REMARK    4  A    between atoms: C9_16  and  N4_17 
ROOT
HETATM    1  C1  UNL     1      -5.727   5.672  15.674  1.00  0.00     0.051 C 
HETATM    2  C2  UNL     1      -5.454   4.219  15.324  1.00  0.00    -0.022 A 
HETATM    3  C3  UNL     1      -5.685   3.264  16.281  1.00  0.00     0.059 A 
HETATM    4 BR1  UNL     1      -6.327   3.463  18.071  1.00  0.00    -0.042 Br
HETATM    5  S1  UNL     1      -5.263   1.812  15.505  1.00  0.00    -0.079 SA
HETATM    6  C4  UNL     1      -4.804   2.449  13.987  1.00  0.00     0.046 A 
HETATM    7  C5  UNL     1      -4.333   1.852  12.809  1.00  0.00     0.079 A 
HETATM    8  N1  UNL     1      -4.174   0.446  12.773  1.00  0.00    -0.100 NA
HETATM    9  C6  UNL     1      -4.036   2.642  11.709  1.00  0.00     0.117 A 
HETATM   10  N2  UNL     1      -4.229   3.947  11.871  1.00  0.00    -0.350 N 
ATOM     11  H2  UNL     1      -4.016   4.548  11.074  1.00  0.00     0.166 HD
HETATM   12  C7  UNL     1      -4.679   4.550  12.983  1.00  0.00     0.113 A 
HETATM   13  C14 UNL     1      -4.996   3.796  14.133  1.00  0.00     0.035 A 
ENDROOT
BRANCH  12  14
HETATM   14  N3  UNL     1      -4.825   5.824  13.020  1.00  0.00    -0.374 N 
ATOM     15  H3  UNL     1      -5.228   6.196  13.880  1.00  0.00     0.161 HD
BRANCH  14  16
HETATM   16  C8  UNL     1      -4.504   6.782  12.034  1.00  0.00     0.141 C 
BRANCH  16  17
HETATM   17  C9  UNL     1      -5.772   7.602  11.759  1.00  0.00     0.146 C 
BRANCH  17  18
HETATM   18  N4  UNL     1      -6.156   7.467  10.409  1.00  0.00    -0.368 N 
HETATM   19  C10 UNL     1      -5.418   6.625   9.569  1.00  0.00     0.089 C 
HETATM   20  C11 UNL     1      -6.094   6.193   8.305  1.00  0.00     0.212 C 
HETATM   21  O1  UNL     1      -7.478   6.259   8.372  1.00  0.00    -0.381 OA
HETATM   22  C12 UNL     1      -7.829   7.566   8.620  1.00  0.00     0.212 C 
HETATM   23  C13 UNL     1      -7.435   7.907  10.023  1.00  0.00     0.089 C 
ENDBRANCH  17  18
ENDBRANCH  16  17
ENDBRANCH  14  16
ENDBRANCH  12  14
TORSDOF 4
ENDMDL
MODEL 3
REMARK VINA RESULT: -6.408774801      4.055      6.388
REMARK  4 active torsions:
REMARK  status: ('A' for Active; 'I' for Inactive)
REMARK    1  A    between atoms: C7_12  and  N3_13 
REMARK    2  A    between atoms: N3_13  and  C8_15 
REMARK    3  A    between atoms: C8_15  and  C9_16 
REMARK    4  A    between atoms: C9_16  and  N4_17 
ROOT
HETATM    1  C1  UNL     1      -7.035   7.567  12.284  1.00  0.00     0.051 C 
HETATM    2  C2  UNL     1      -5.659   7.482  11.646  1.00  0.00    -0.022 A 
HETATM    3  C3  UNL     1      -5.404   8.256  10.543  1.00  0.00     0.059 A 
HETATM    4 BR1  UNL     1      -6.545   9.488   9.629  1.00  0.00    -0.042 Br
HETATM    5  S1  UNL     1      -3.795   7.871  10.149  1.00  0.00    -0.079 SA
HETATM    6  C4  UNL     1      -3.485   6.739  11.392  1.00  0.00     0.046 A 
HETATM    7  C5  UNL     1      -2.355   5.980  11.724  1.00  0.00     0.079 A 
HETATM    8  N1  UNL     1      -1.188   6.110  10.932  1.00  0.00    -0.100 NA
HETATM    9  C6  UNL     1      -2.396   5.124  12.814  1.00  0.00     0.117 A 
HETATM   10  N2  UNL     1      -3.549   5.095  13.476  1.00  0.00    -0.350 N 
ATOM     11  H2  UNL     1      -3.604   4.471  14.281  1.00  0.00     0.166 HD
HETATM   12  C7  UNL     1      -4.649   5.808  13.185  1.00  0.00     0.113 A 
HETATM   13  C14 UNL     1      -4.663   6.694  12.086  1.00  0.00     0.035 A 
ENDROOT
BRANCH  12  14
HETATM   14  N3  UNL     1      -5.708   5.694  13.900  1.00  0.00    -0.374 N 
ATOM     15  H3  UNL     1      -6.192   6.566  14.111  1.00  0.00     0.161 HD
BRANCH  14  16
HETATM   16  C8  UNL     1      -6.294   4.527  14.436  1.00  0.00     0.141 C 
BRANCH  16  17
HETATM   17  C9  UNL     1      -6.031   4.531  15.948  1.00  0.00     0.146 C 
BRANCH  17  18
HETATM   18  N4  UNL     1      -5.821   3.216  16.410  1.00  0.00    -0.368 N 
HETATM   19  C10 UNL     1      -6.775   2.624  17.246  1.00  0.00     0.089 C 
HETATM   20  C11 UNL     1      -6.725   1.132  17.355  1.00  0.00     0.212 C 
HETATM   21  O1  UNL     1      -6.107   0.522  16.273  1.00  0.00    -0.381 OA
HETATM   22  C12 UNL     1      -4.815   0.990  16.202  1.00  0.00     0.212 C 
HETATM   23  C13 UNL     1      -4.850   2.423  15.772  1.00  0.00     0.089 C 
ENDBRANCH  17  18
ENDBRANCH  16  17
ENDBRANCH  14  16
ENDBRANCH  12  14
TORSDOF 4
ENDMDL
MODEL 4
REMARK VINA RESULT: -6.369533631      2.699      3.410
REMARK  4 active torsions:
REMARK  status: ('A' for Active; 'I' for Inactive)
REMARK    1  A    between atoms: C7_12  and  N3_13 
REMARK    2  A    between atoms: N3_13  and  C8_15 
REMARK    3  A    between atoms: C8_15  and  C9_16 
REMARK    4  A    between atoms: C9_16  and  N4_17 
ROOT
HETATM    1  C1  UNL     1      -5.713   5.669  15.527  1.00  0.00     0.051 C 
HETATM    2  C2  UNL     1      -5.444   4.204  15.228  1.00  0.00    -0.022 A 
HETATM    3  C3  UNL     1      -5.676   3.285  16.219  1.00  0.00     0.059 A 
HETATM    4 BR1  UNL     1      -6.315   3.549  18.002  1.00  0.00    -0.042 Br
HETATM    5  S1  UNL     1      -5.258   1.804  15.495  1.00  0.00    -0.079 SA
HETATM    6  C4  UNL     1      -4.801   2.386  13.955  1.00  0.00     0.046 A 
HETATM    7  C5  UNL     1      -4.333   1.747  12.798  1.00  0.00     0.079 A 
HETATM    8  N1  UNL     1      -4.178   0.339  12.812  1.00  0.00    -0.100 NA
HETATM    9  C6  UNL     1      -4.035   2.495  11.670  1.00  0.00     0.117 A 
HETATM   10  N2  UNL     1      -4.225   3.807  11.785  1.00  0.00    -0.350 N 
ATOM     11  H2  UNL     1      -4.012   4.378  10.968  1.00  0.00     0.166 HD
HETATM   12  C7  UNL     1      -4.671   4.450  12.876  1.00  0.00     0.113 A 
HETATM   13  C14 UNL     1      -4.989   3.738  14.053  1.00  0.00     0.035 A 
ENDROOT
BRANCH  12  14
HETATM   14  N3  UNL     1      -4.814   5.725  12.868  1.00  0.00    -0.374 N 
ATOM     15  H3  UNL     1      -5.306   6.117  13.670  1.00  0.00     0.161 HD
BRANCH  14  16
HETATM   16  C8  UNL     1      -4.383   6.659  11.901  1.00  0.00     0.141 C 
BRANCH  16  17
HETATM   17  C9  UNL     1      -5.535   7.647  11.671  1.00  0.00     0.146 C 
BRANCH  17  18
HETATM   18  N4  UNL     1      -6.202   7.346  10.466  1.00  0.00    -0.368 N 
HETATM   19  C10 UNL     1      -7.389   8.019  10.154  1.00  0.00     0.089 C 
HETATM   20  C11 UNL     1      -7.814   7.982   8.720  1.00  0.00     0.212 C 
HETATM   21  O1  UNL     1      -6.767   7.738   7.843  1.00  0.00    -0.381 OA
HETATM   22  C12 UNL     1      -6.223   6.514   8.160  1.00  0.00     0.212 C 
HETATM   23  C13 UNL     1      -5.508   6.637   9.469  1.00  0.00     0.089 C 
ENDBRANCH  17  18
ENDBRANCH  16  17
ENDBRANCH  14  16
ENDBRANCH  12  14
TORSDOF 4
ENDMDL
MODEL 5
REMARK VINA RESULT: -6.315527590      1.433      1.601
REMARK  4 active torsions:
REMARK  status: ('A' for Active; 'I' for Inactive)
REMARK    1  A    between atoms: C7_12  and  N3_13 
REMARK    2  A    between atoms: N3_13  and  C8_15 
REMARK    3  A    between atoms: C8_15  and  C9_16 
REMARK    4  A    between atoms: C9_16  and  N4_17 
ROOT
HETATM    1  C1  UNL     1      -5.757   5.270  15.966  1.00  0.00     0.051 C 
HETATM    2  C2  UNL     1      -5.457   3.835  15.567  1.00  0.00    -0.022 A 
HETATM    3  C3  UNL     1      -5.632   2.849  16.504  1.00  0.00     0.059 A 
HETATM    4 BR1  UNL     1      -6.221   2.983  18.319  1.00  0.00    -0.042 Br
HETATM    5  S1  UNL     1      -5.196   1.430  15.676  1.00  0.00    -0.079 SA
HETATM    6  C4  UNL     1      -4.804   2.120  14.162  1.00  0.00     0.046 A 
HETATM    7  C5  UNL     1      -4.356   1.568  12.954  1.00  0.00     0.079 A 
HETATM    8  N1  UNL     1      -4.161   0.168  12.874  1.00  0.00    -0.100 NA
HETATM    9  C6  UNL     1      -4.115   2.394  11.867  1.00  0.00     0.117 A 
HETATM   10  N2  UNL     1      -4.338   3.689  12.071  1.00  0.00    -0.350 N 
ATOM     11  H2  UNL     1      -4.167   4.316  11.285  1.00  0.00     0.166 HD
HETATM   12  C7  UNL     1      -4.767   4.250  13.213  1.00  0.00     0.113 A 
HETATM   13  C14 UNL     1      -5.027   3.456  14.351  1.00  0.00     0.035 A 
ENDROOT
BRANCH  12  14
HETATM   14  N3  UNL     1      -4.946   5.518  13.289  1.00  0.00    -0.374 N 
ATOM     15  H3  UNL     1      -5.790   5.814  13.779  1.00  0.00     0.161 HD
BRANCH  14  16
HETATM   16  C8  UNL     1      -4.136   6.559  12.788  1.00  0.00     0.141 C 
BRANCH  16  17
HETATM   17  C9  UNL     1      -2.858   6.598  13.637  1.00  0.00     0.146 C 
BRANCH  17  18
HETATM   18  N4  UNL     1      -1.720   6.617  12.804  1.00  0.00    -0.368 N 
HETATM   19  C10 UNL     1      -0.907   7.756  12.784  1.00  0.00     0.089 C 
HETATM   20  C11 UNL     1       0.474   7.574  12.236  1.00  0.00     0.212 C 
HETATM   21  O1  UNL     1       0.920   6.262  12.295  1.00  0.00    -0.381 OA
HETATM   22  C12 UNL     1       0.058   5.487  11.552  1.00  0.00     0.212 C 
HETATM   23  C13 UNL     1      -1.249   5.402  12.275  1.00  0.00     0.089 C 
ENDBRANCH  17  18
ENDBRANCH  16  17
ENDBRANCH  14  16
ENDBRANCH  12  14
TORSDOF 4
ENDMDL
