MODEL 1
REMARK VINA RESULT: -7.943309635      0.000      0.000
REMARK  4 active torsions:
REMARK  status: ('A' for Active; 'I' for Inactive)
REMARK    1  A    between atoms: C7_9  and  C8_10 
REMARK       I    between atoms: C8_10  and  N1_12 
REMARK    2  A    between atoms: N1_12  and  C9_14 
REMARK    3  A    between atoms: C15_21  and  C16_22 
REMARK    4  A    between atoms: C16_22  and  O4_23 
ROOT
HETATM    1  O1  UNL     1      -2.491   6.901  10.125  1.00  0.00    -0.295 OA
HETATM    2  C1  UNL     1      -1.808   5.915  10.443  1.00  0.00     0.159 C 
HETATM    3  C2  UNL     1      -0.378   6.126  10.760  1.00  0.00     0.101 C 
HETATM    4  C3  UNL     1      -0.215   6.515  12.206  1.00  0.00     0.087 C 
HETATM    5 BR1  UNL     1       1.002   8.010  12.358  1.00  0.00    -0.086 Br
HETATM    6  C4  UNL     1      -1.511   6.788  12.881  1.00  0.00    -0.015 C 
HETATM    7  C5  UNL     1      -2.334   5.874  13.364  1.00  0.00    -0.026 C 
HETATM    8  C6  UNL     1      -2.080   4.404  13.303  1.00  0.00     0.068 C 
HETATM    9  C7  UNL     1      -3.128   3.703  12.440  1.00  0.00     0.217 C 
HETATM   10  O3  UNL     1      -3.496   4.535  11.405  1.00  0.00    -0.361 OA
HETATM   11  C15 UNL     1      -2.429   4.576  10.496  1.00  0.00     0.215 C 
ENDROOT
BRANCH   9  12
HETATM   12  C8  UNL     1      -4.266   3.231  13.247  1.00  0.00     0.247 C 
HETATM   13  O2  UNL     1      -5.403   3.190  12.731  1.00  0.00    -0.271 OA
HETATM   14  N1  UNL     1      -4.109   2.826  14.584  1.00  0.00    -0.354 N 
ATOM     15  H1  UNL     1      -3.171   2.870  14.980  1.00  0.00     0.162 HD
BRANCH  14  16
HETATM   16  C9  UNL     1      -5.162   2.356  15.436  1.00  0.00     0.084 C 
HETATM   17  C10 UNL     1      -5.467   3.455  16.451  1.00  0.00     0.025 C 
HETATM   18  C11 UNL     1      -6.803   3.224  17.124  1.00  0.00     0.002 C 
HETATM   19  C12 UNL     1      -6.959   1.733  17.324  1.00  0.00     0.000 C 
HETATM   20  C13 UNL     1      -5.620   1.047  17.434  1.00  0.00     0.002 C 
HETATM   21  C14 UNL     1      -4.906   1.040  16.078  1.00  0.00     0.025 C 
ENDBRANCH  14  16
ENDBRANCH   9  12
BRANCH  11  22
HETATM   22  C16 UNL     1      -2.936   4.144   9.118  1.00  0.00     0.203 C 
BRANCH  22  23
HETATM   23  O4  UNL     1      -3.705   3.008   9.174  1.00  0.00    -0.398 OA
ATOM     24  H4  UNL     1      -3.185   2.222   9.294  1.00  0.00     0.209 HD
ENDBRANCH  22  23
ENDBRANCH  11  22
TORSDOF 4
ENDMDL
MODEL 2
REMARK VINA RESULT: -7.885073239      2.784      3.050
REMARK  4 active torsions:
REMARK  status: ('A' for Active; 'I' for Inactive)
REMARK    1  A    between atoms: C7_9  and  C8_10 
REMARK       I    between atoms: C8_10  and  N1_12 
REMARK    2  A    between atoms: N1_12  and  C9_14 
REMARK    3  A    between atoms: C15_21  and  C16_22 
REMARK    4  A    between atoms: C16_22  and  O4_23 
ROOT
HETATM    1  O1  UNL     1      -6.033   5.927   9.206  1.00  0.00    -0.295 OA
HETATM    2  C1  UNL     1      -4.945   6.294   9.675  1.00  0.00     0.159 C 
HETATM    3  C2  UNL     1      -4.599   7.731   9.604  1.00  0.00     0.101 C 
HETATM    4  C3  UNL     1      -5.183   8.468  10.781  1.00  0.00     0.087 C 
HETATM    5 BR1  UNL     1      -6.025  10.105  10.189  1.00  0.00    -0.086 Br
HETATM    6  C4  UNL     1      -6.111   7.630  11.586  1.00  0.00    -0.015 C 
HETATM    7  C5  UNL     1      -5.751   6.742  12.496  1.00  0.00    -0.026 C 
HETATM    8  C6  UNL     1      -4.335   6.443  12.860  1.00  0.00     0.068 C 
HETATM    9  C7  UNL     1      -3.971   5.003  12.505  1.00  0.00     0.217 C 
HETATM   10  O3  UNL     1      -4.639   4.634  11.358  1.00  0.00    -0.361 OA
HETATM   11  C15 UNL     1      -4.034   5.303  10.283  1.00  0.00     0.215 C 
ENDROOT
BRANCH   9  12
HETATM   12  C8  UNL     1      -4.204   4.091  13.638  1.00  0.00     0.247 C 
HETATM   13  O2  UNL     1      -3.234   3.485  14.141  1.00  0.00    -0.271 OA
HETATM   14  N1  UNL     1      -5.489   3.882  14.169  1.00  0.00    -0.354 N 
ATOM     15  H1  UNL     1      -6.262   4.390  13.739  1.00  0.00     0.162 HD
BRANCH  14  16
HETATM   16  C9  UNL     1      -5.801   3.014  15.267  1.00  0.00     0.084 C 
HETATM   17  C10 UNL     1      -5.753   3.845  16.546  1.00  0.00     0.025 C 
HETATM   18  C11 UNL     1      -6.445   3.131  17.689  1.00  0.00     0.002 C 
HETATM   19  C12 UNL     1      -6.144   1.656  17.550  1.00  0.00     0.000 C 
HETATM   20  C13 UNL     1      -4.839   1.422  16.833  1.00  0.00     0.002 C 
HETATM   21  C14 UNL     1      -4.967   1.787  15.350  1.00  0.00     0.025 C 
ENDBRANCH  14  16
ENDBRANCH   9  12
BRANCH  11  22
HETATM   22  C16 UNL     1      -3.572   4.269   9.255  1.00  0.00     0.203 C 
BRANCH  22  23
HETATM   23  O4  UNL     1      -3.976   2.995   9.571  1.00  0.00    -0.398 OA
ATOM     24  H4  UNL     1      -3.385   2.331   9.236  1.00  0.00     0.209 HD
ENDBRANCH  22  23
ENDBRANCH  11  22
TORSDOF 4
ENDMDL
MODEL 3
REMARK VINA RESULT: -7.796984900      2.824      3.314
REMARK  4 active torsions:
REMARK  status: ('A' for Active; 'I' for Inactive)
REMARK    1  A    between atoms: C7_9  and  C8_10 
REMARK       I    between atoms: C8_10  and  N1_12 
REMARK    2  A    between atoms: N1_12  and  C9_14 
REMARK    3  A    between atoms: C15_21  and  C16_22 
REMARK    4  A    between atoms: C16_22  and  O4_23 
ROOT
HETATM    1  O1  UNL     1      -6.006   5.703   9.146  1.00  0.00    -0.295 OA
HETATM    2  C1  UNL     1      -4.929   6.205   9.502  1.00  0.00     0.159 C 
HETATM    3  C2  UNL     1      -4.732   7.658   9.301  1.00  0.00     0.101 C 
HETATM    4  C3  UNL     1      -5.302   8.428  10.464  1.00  0.00     0.087 C 
HETATM    5 BR1  UNL     1      -6.340   9.928   9.821  1.00  0.00    -0.086 Br
HETATM    6  C4  UNL     1      -6.084   7.574  11.396  1.00  0.00    -0.015 C 
HETATM    7  C5  UNL     1      -5.577   6.798  12.337  1.00  0.00    -0.026 C 
HETATM    8  C6  UNL     1      -4.116   6.662  12.612  1.00  0.00     0.068 C 
HETATM    9  C7  UNL     1      -3.638   5.238  12.335  1.00  0.00     0.217 C 
HETATM   10  O3  UNL     1      -4.345   4.719  11.271  1.00  0.00    -0.361 OA
HETATM   11  C15 UNL     1      -3.885   5.354  10.108  1.00  0.00     0.215 C 
ENDROOT
BRANCH   9  12
HETATM   12  C8  UNL     1      -3.700   4.400  13.545  1.00  0.00     0.247 C 
HETATM   13  O2  UNL     1      -2.687   3.760  13.895  1.00  0.00    -0.271 OA
HETATM   14  N1  UNL     1      -4.871   4.301  14.317  1.00  0.00    -0.354 N 
ATOM     15  H1  UNL     1      -5.683   4.834  14.008  1.00  0.00     0.162 HD
BRANCH  14  16
HETATM   16  C9  UNL     1      -5.015   3.511  15.505  1.00  0.00     0.084 C 
HETATM   17  C10 UNL     1      -5.223   2.061  15.078  1.00  0.00     0.025 C 
HETATM   18  C11 UNL     1      -4.989   1.110  16.233  1.00  0.00     0.002 C 
HETATM   19  C12 UNL     1      -5.521   1.776  17.483  1.00  0.00     0.000 C 
HETATM   20  C13 UNL     1      -6.625   2.753  17.162  1.00  0.00     0.002 C 
HETATM   21  C14 UNL     1      -6.062   3.985  16.447  1.00  0.00     0.025 C 
ENDBRANCH  14  16
ENDBRANCH   9  12
BRANCH  11  22
HETATM   22  C16 UNL     1      -3.397   4.289   9.124  1.00  0.00     0.203 C 
BRANCH  22  23
HETATM   23  O4  UNL     1      -3.949   3.055   9.367  1.00  0.00    -0.398 OA
ATOM     24  H4  UNL     1      -3.755   2.428   8.680  1.00  0.00     0.209 HD
ENDBRANCH  22  23
ENDBRANCH  11  22
TORSDOF 4
ENDMDL
MODEL 4
REMARK VINA RESULT: -7.715645456      2.179      2.362
REMARK  4 active torsions:
REMARK  status: ('A' for Active; 'I' for Inactive)
REMARK    1  A    between atoms: C7_9  and  C8_10 
REMARK       I    between atoms: C8_10  and  N1_12 
REMARK    2  A    between atoms: N1_12  and  C9_14 
REMARK    3  A    between atoms: C15_21  and  C16_22 
REMARK    4  A    between atoms: C16_22  and  O4_23 
ROOT
HETATM    1  O1  UNL     1      -4.931   6.439   8.815  1.00  0.00    -0.295 OA
HETATM    2  C1  UNL     1      -3.954   6.408   9.579  1.00  0.00     0.159 C 
HETATM    3  C2  UNL     1      -3.239   7.675   9.854  1.00  0.00     0.101 C 
HETATM    4  C3  UNL     1      -3.907   8.418  10.981  1.00  0.00     0.087 C 
HETATM    5 BR1  UNL     1      -4.098  10.287  10.522  1.00  0.00    -0.086 Br
HETATM    6  C4  UNL     1      -5.204   7.814  11.385  1.00  0.00    -0.015 C 
HETATM    7  C5  UNL     1      -5.350   6.765  12.174  1.00  0.00    -0.026 C 
HETATM    8  C6  UNL     1      -4.215   6.017  12.792  1.00  0.00     0.068 C 
HETATM    9  C7  UNL     1      -4.158   4.582  12.272  1.00  0.00     0.217 C 
HETATM   10  O3  UNL     1      -4.561   4.559  10.954  1.00  0.00    -0.361 OA
HETATM   11  C15 UNL     1      -3.535   5.129  10.188  1.00  0.00     0.215 C 
ENDROOT
BRANCH   9  12
HETATM   12  C8  UNL     1      -4.919   3.663  13.134  1.00  0.00     0.247 C 
HETATM   13  O2  UNL     1      -5.634   2.784  12.607  1.00  0.00    -0.271 OA
HETATM   14  N1  UNL     1      -4.865   3.747  14.537  1.00  0.00    -0.354 N 
ATOM     15  H1  UNL     1      -4.274   4.474  14.940  1.00  0.00     0.162 HD
BRANCH  14  16
HETATM   16  C9  UNL     1      -5.573   2.895  15.446  1.00  0.00     0.084 C 
HETATM   17  C10 UNL     1      -5.870   3.702  16.707  1.00  0.00     0.025 C 
HETATM   18  C11 UNL     1      -6.940   3.034  17.546  1.00  0.00     0.002 C 
HETATM   19  C12 UNL     1      -6.723   1.541  17.452  1.00  0.00     0.000 C 
HETATM   20  C13 UNL     1      -5.278   1.208  17.173  1.00  0.00     0.002 C 
HETATM   21  C14 UNL     1      -4.903   1.601  15.740  1.00  0.00     0.025 C 
ENDBRANCH  14  16
ENDBRANCH   9  12
BRANCH  11  22
HETATM   22  C16 UNL     1      -3.097   4.124   9.120  1.00  0.00     0.203 C 
BRANCH  22  23
HETATM   23  O4  UNL     1      -3.773   2.932   9.213  1.00  0.00    -0.398 OA
ATOM     24  H4  UNL     1      -4.680   3.006   8.941  1.00  0.00     0.209 HD
ENDBRANCH  22  23
ENDBRANCH  11  22
TORSDOF 4
ENDMDL
MODEL 5
REMARK VINA RESULT: -7.586314315      3.749      4.384
REMARK  4 active torsions:
REMARK  status: ('A' for Active; 'I' for Inactive)
REMARK    1  A    between atoms: C7_9  and  C8_10 
REMARK       I    between atoms: C8_10  and  N1_12 
REMARK    2  A    between atoms: N1_12  and  C9_14 
REMARK    3  A    between atoms: C15_21  and  C16_22 
REMARK    4  A    between atoms: C16_22  and  O4_23 
ROOT
HETATM    1  O1  UNL     1      -6.660   5.759   8.615  1.00  0.00    -0.295 OA
HETATM    2  C1  UNL     1      -5.705   6.524   8.818  1.00  0.00     0.159 C 
HETATM    3  C2  UNL     1      -5.763   7.885   8.240  1.00  0.00     0.101 C 
HETATM    4  C3  UNL     1      -6.507   8.814   9.164  1.00  0.00     0.087 C 
HETATM    5 BR1  UNL     1      -7.770   9.879   8.157  1.00  0.00    -0.086 Br
HETATM    6  C4  UNL     1      -7.162   8.104  10.294  1.00  0.00    -0.015 C 
HETATM    7  C5  UNL     1      -6.562   7.706  11.402  1.00  0.00    -0.026 C 
HETATM    8  C6  UNL     1      -5.113   7.916  11.691  1.00  0.00     0.068 C 
HETATM    9  C7  UNL     1      -4.377   6.581  11.794  1.00  0.00     0.217 C 
HETATM   10  O3  UNL     1      -4.937   5.683  10.911  1.00  0.00    -0.361 OA
HETATM   11  C15 UNL     1      -4.551   6.066   9.618  1.00  0.00     0.215 C 
ENDROOT
BRANCH   9  12
HETATM   12  C8  UNL     1      -4.338   6.091  13.183  1.00  0.00     0.247 C 
HETATM   13  O2  UNL     1      -3.504   6.575  13.976  1.00  0.00    -0.271 OA
HETATM   14  N1  UNL     1      -5.214   5.091  13.640  1.00  0.00    -0.354 N 
ATOM     15  H1  UNL     1      -5.884   4.713  12.971  1.00  0.00     0.162 HD
BRANCH  14  16
HETATM   16  C9  UNL     1      -5.241   4.559  14.971  1.00  0.00     0.084 C 
HETATM   17  C10 UNL     1      -5.664   3.096  14.880  1.00  0.00     0.025 C 
HETATM   18  C11 UNL     1      -5.342   2.351  16.159  1.00  0.00     0.002 C 
HETATM   19  C12 UNL     1      -5.590   3.300  17.311  1.00  0.00     0.000 C 
HETATM   20  C13 UNL     1      -6.625   4.339  16.958  1.00  0.00     0.002 C 
HETATM   21  C14 UNL     1      -6.063   5.333  15.937  1.00  0.00     0.025 C 
ENDBRANCH  14  16
ENDBRANCH   9  12
BRANCH  11  22
HETATM   22  C16 UNL     1      -3.841   4.890   8.945  1.00  0.00     0.203 C 
BRANCH  22  23
HETATM   23  O4  UNL     1      -4.298   3.674   9.392  1.00  0.00    -0.398 OA
ATOM     24  H4  UNL     1      -4.791   3.205   8.729  1.00  0.00     0.209 HD
ENDBRANCH  22  23
ENDBRANCH  11  22
TORSDOF 4
ENDMDL
