MODEL 1
REMARK VINA RESULT: -6.026748146      0.000      0.000
REMARK  17 active torsions:
REMARK  status: ('A' for Active; 'I' for Inactive)
REMARK    1  A    between atoms: N1_2  and  C2_4 
REMARK    2  A    between atoms: C3_7  and  S1_8 
REMARK    3  A    between atoms: S1_8  and  C4_9 
REMARK    4  A    between atoms: C4_9  and  C5_10 
REMARK    5  A    between atoms: C5_10  and  C6_11 
REMARK    6  A    between atoms: C5_10  and  C18_38 
REMARK    7  A    between atoms: C6_11  and  C7_12 
REMARK    8  A    between atoms: C7_12  and  C8_13 
REMARK    9  A    between atoms: C10_15  and  C11_16 
REMARK   10  A    between atoms: C11_16  and  O1_17 
REMARK   11  A    between atoms: O1_17  and  C12_18 
REMARK       I    between atoms: C12_18  and  N3_20 
REMARK   12  A    between atoms: N3_20  and  C13_22 
REMARK   13  A    between atoms: C13_22  and  C14_23 
REMARK   14  A    between atoms: C14_23  and  N4_24 
REMARK   15  A    between atoms: C15_28  and  C16_29 
REMARK   16  A    between atoms: C16_29  and  N5_30 
REMARK   17  A    between atoms: C18_38  and  N7_39 
ROOT
HETATM    1  C8  UNL     1      30.251  -2.350   2.698  1.00  0.00     0.086 A 
HETATM    2  C9  UNL     1      29.160  -2.830   3.353  1.00  0.00     0.037 A 
HETATM    3  C10 UNL     1      28.050  -2.083   3.652  1.00  0.00    -0.008 A 
HETATM    4  C15 UNL     1      28.100  -0.712   3.228  1.00  0.00     0.046 A 
HETATM    5  N6  UNL     1      29.144  -0.196   2.593  1.00  0.00    -0.324 N 
ATOM      6  H6  UNL     1      29.142   0.785   2.315  1.00  0.00     0.169 HD
HETATM    7  C17 UNL     1      30.214  -0.981   2.317  1.00  0.00     0.264 A 
HETATM    8  O3  UNL     1      31.185  -0.546   1.728  1.00  0.00    -0.267 OA
ENDROOT
BRANCH   1   9
HETATM    9  C7  UNL     1      31.381  -3.137   2.314  1.00  0.00    -0.061 C 
BRANCH   9  10
HETATM   10  C6  UNL     1      32.346  -3.786   1.916  1.00  0.00    -0.094 C 
BRANCH  10  11
HETATM   11  C5  UNL     1      33.451  -4.517   1.352  1.00  0.00     0.100 C 
BRANCH  11  12
HETATM   12  C4  UNL     1      33.103  -5.122   0.005  1.00  0.00     0.101 C 
BRANCH  12  13
HETATM   13  S1  UNL     1      32.924  -3.681  -1.137  1.00  0.00    -0.091 SA
BRANCH  13  14
HETATM   14  C3  UNL     1      31.333  -2.944  -1.154  1.00  0.00     0.160 A 
HETATM   15  N2  UNL     1      30.184  -3.657  -0.965  1.00  0.00    -0.319 N 
HETATM   16  C2  UNL     1      28.990  -3.068  -0.880  1.00  0.00     0.146 A 
ATOM     17  H2  UNL     1      30.241  -4.673  -0.885  1.00  0.00     0.169 HD
HETATM   18  C19 UNL     1      28.908  -1.656  -0.993  1.00  0.00     0.175 A 
HETATM   19  N9  UNL     1      30.048  -1.018  -1.174  1.00  0.00    -0.283 N 
HETATM   20  N10 UNL     1      27.668  -1.026  -0.850  1.00  0.00    -0.077 NA
HETATM   21  N8  UNL     1      31.205  -1.602  -1.254  1.00  0.00    -0.278 N 
ATOM     22  H9  UNL     1      30.018  -0.001  -1.258  1.00  0.00     0.188 HD
ATOM     23  H8  UNL     1      32.040  -1.033  -1.395  1.00  0.00     0.189 HD
BRANCH  16  24
HETATM   24  N1  UNL     1      27.922  -3.673  -0.651  1.00  0.00    -0.378 N 
HETATM   25  C1  UNL     1      27.486  -4.585   0.313  1.00  0.00     0.147 C 
ATOM     26  H1  UNL     1      27.194  -3.448  -1.330  1.00  0.00     0.160 HD
ENDBRANCH  16  24
ENDBRANCH  13  14
ENDBRANCH  12  13
ENDBRANCH  11  12
BRANCH  11  27
HETATM   27  C18 UNL     1      34.680  -3.599   1.167  1.00  0.00     0.247 C 
BRANCH  27  28
HETATM   28  N7  UNL     1      35.124  -3.057   2.417  1.00  0.00    -0.078 N 
ATOM     29  H73 UNL     1      35.770  -3.690   2.888  1.00  0.00     0.274 HD
ATOM     30  H72 UNL     1      35.751  -2.265   2.278  1.00  0.00     0.274 HD
ATOM     31  H71 UNL     1      34.338  -2.810   3.018  1.00  0.00     0.274 HD
ENDBRANCH  27  28
ENDBRANCH  11  27
ENDBRANCH  10  11
ENDBRANCH   9  10
ENDBRANCH   1   9
BRANCH   3  32
HETATM   32  C11 UNL     1      26.748  -2.540   4.137  1.00  0.00     0.221 C 
BRANCH  32  33
HETATM   33  O1  UNL     1      25.971  -3.219   3.155  1.00  0.00    -0.299 OA
BRANCH  33  34
HETATM   34  C12 UNL     1      24.612  -2.851   3.060  1.00  0.00     0.364 C 
HETATM   35  O2  UNL     1      24.274  -1.899   3.818  1.00  0.00    -0.238 OA
HETATM   36  N3  UNL     1      23.779  -3.554   2.202  1.00  0.00    -0.315 N 
ATOM     37  H3  UNL     1      24.250  -4.258   1.633  1.00  0.00     0.170 HD
BRANCH  36  38
HETATM   38  C13 UNL     1      22.390  -3.457   1.986  1.00  0.00     0.093 C 
BRANCH  38  39
HETATM   39  C14 UNL     1      21.642  -3.712   3.285  1.00  0.00     0.274 C 
BRANCH  39  40
HETATM   40  N4  UNL     1      21.203  -2.525   3.951  1.00  0.00    -0.075 N 
ATOM     41  H43 UNL     1      21.516  -2.523   4.921  1.00  0.00     0.274 HD
ATOM     42  H42 UNL     1      21.711  -1.711   3.603  1.00  0.00     0.274 HD
ATOM     43  H41 UNL     1      20.196  -2.366   3.900  1.00  0.00     0.274 HD
ENDBRANCH  39  40
ENDBRANCH  38  39
ENDBRANCH  36  38
ENDBRANCH  33  34
ENDBRANCH  32  33
ENDBRANCH   3  32
BRANCH   4  44
HETATM   44  C16 UNL     1      26.946   0.188   3.557  1.00  0.00     0.287 C 
BRANCH  44  45
HETATM   45  N5  UNL     1      27.343   1.591   3.341  1.00  0.00    -0.074 N 
ATOM     46  H53 UNL     1      28.275   1.789   3.705  1.00  0.00     0.274 HD
ATOM     47  H52 UNL     1      27.526   1.794   2.358  1.00  0.00     0.274 HD
ATOM     48  H51 UNL     1      26.635   2.208   3.737  1.00  0.00     0.274 HD
ENDBRANCH  44  45
ENDBRANCH   4  44
TORSDOF 17
ENDMDL
MODEL 2
REMARK VINA RESULT: -5.883259015      1.782      2.127
REMARK  17 active torsions:
REMARK  status: ('A' for Active; 'I' for Inactive)
REMARK    1  A    between atoms: N1_2  and  C2_4 
REMARK    2  A    between atoms: C3_7  and  S1_8 
REMARK    3  A    between atoms: S1_8  and  C4_9 
REMARK    4  A    between atoms: C4_9  and  C5_10 
REMARK    5  A    between atoms: C5_10  and  C6_11 
REMARK    6  A    between atoms: C5_10  and  C18_38 
REMARK    7  A    between atoms: C6_11  and  C7_12 
REMARK    8  A    between atoms: C7_12  and  C8_13 
REMARK    9  A    between atoms: C10_15  and  C11_16 
REMARK   10  A    between atoms: C11_16  and  O1_17 
REMARK   11  A    between atoms: O1_17  and  C12_18 
REMARK       I    between atoms: C12_18  and  N3_20 
REMARK   12  A    between atoms: N3_20  and  C13_22 
REMARK   13  A    between atoms: C13_22  and  C14_23 
REMARK   14  A    between atoms: C14_23  and  N4_24 
REMARK   15  A    between atoms: C15_28  and  C16_29 
REMARK   16  A    between atoms: C16_29  and  N5_30 
REMARK   17  A    between atoms: C18_38  and  N7_39 
ROOT
HETATM    1  C8  UNL     1      31.360  -1.442   2.501  1.00  0.00     0.086 A 
HETATM    2  C9  UNL     1      30.712  -1.892   3.610  1.00  0.00     0.037 A 
HETATM    3  C10 UNL     1      29.442  -1.518   3.965  1.00  0.00    -0.008 A 
HETATM    4  C15 UNL     1      28.805  -0.586   3.078  1.00  0.00     0.046 A 
HETATM    5  N6  UNL     1      29.399  -0.113   1.990  1.00  0.00    -0.324 N 
ATOM      6  H6  UNL     1      28.913   0.553   1.389  1.00  0.00     0.169 HD
HETATM    7  C17 UNL     1      30.654  -0.520   1.682  1.00  0.00     0.264 A 
HETATM    8  O3  UNL     1      31.226  -0.116   0.688  1.00  0.00    -0.267 OA
ENDROOT
BRANCH   1   9
HETATM    9  C7  UNL     1      32.653  -1.882   2.081  1.00  0.00    -0.061 C 
BRANCH   9  10
HETATM   10  C6  UNL     1      33.738  -2.267   1.650  1.00  0.00    -0.094 C 
BRANCH  10  11
HETATM   11  C5  UNL     1      34.961  -2.742   1.056  1.00  0.00     0.100 C 
BRANCH  11  12
HETATM   12  C4  UNL     1      34.882  -2.770  -0.459  1.00  0.00     0.101 C 
BRANCH  12  13
HETATM   13  S1  UNL     1      33.704  -4.139  -0.853  1.00  0.00    -0.091 SA
BRANCH  13  14
HETATM   14  C3  UNL     1      32.036  -3.641  -1.064  1.00  0.00     0.160 A 
HETATM   15  N2  UNL     1      30.978  -4.445  -0.750  1.00  0.00    -0.319 N 
HETATM   16  C2  UNL     1      29.717  -4.016  -0.822  1.00  0.00     0.146 A 
ATOM     17  H2  UNL     1      31.158  -5.403  -0.451  1.00  0.00     0.169 HD
HETATM   18  C19 UNL     1      29.463  -2.684  -1.239  1.00  0.00     0.175 A 
HETATM   19  N9  UNL     1      30.521  -1.952  -1.530  1.00  0.00    -0.283 N 
HETATM   20  N10 UNL     1      28.148  -2.209  -1.264  1.00  0.00    -0.077 NA
HETATM   21  N8  UNL     1      31.746  -2.380  -1.455  1.00  0.00    -0.278 N 
ATOM     22  H9  UNL     1      30.368  -0.990  -1.832  1.00  0.00     0.188 HD
ATOM     23  H8  UNL     1      32.508  -1.748  -1.698  1.00  0.00     0.189 HD
BRANCH  16  24
HETATM   24  N1  UNL     1      28.723  -4.697  -0.491  1.00  0.00    -0.378 N 
HETATM   25  C1  UNL     1      28.370  -5.458   0.626  1.00  0.00     0.147 C 
ATOM     26  H1  UNL     1      27.996  -4.696  -1.207  1.00  0.00     0.160 HD
ENDBRANCH  16  24
ENDBRANCH  13  14
ENDBRANCH  12  13
ENDBRANCH  11  12
BRANCH  11  27
HETATM   27  C18 UNL     1      36.153  -1.847   1.462  1.00  0.00     0.247 C 
BRANCH  27  28
HETATM   28  N7  UNL     1      36.743  -1.211   0.322  1.00  0.00    -0.078 N 
ATOM     29  H73 UNL     1      36.033  -0.902  -0.342  1.00  0.00     0.274 HD
ATOM     30  H72 UNL     1      37.138  -0.302   0.565  1.00  0.00     0.274 HD
ATOM     31  H71 UNL     1      37.436  -1.811  -0.125  1.00  0.00     0.274 HD
ENDBRANCH  27  28
ENDBRANCH  11  27
ENDBRANCH  10  11
ENDBRANCH   9  10
ENDBRANCH   1   9
BRANCH   3  32
HETATM   32  C11 UNL     1      28.573  -2.102   4.988  1.00  0.00     0.221 C 
BRANCH  32  33
HETATM   33  O1  UNL     1      28.567  -3.526   4.997  1.00  0.00    -0.299 OA
BRANCH  33  34
HETATM   34  C12 UNL     1      27.458  -4.157   4.395  1.00  0.00     0.364 C 
HETATM   35  O2  UNL     1      27.186  -5.297   4.865  1.00  0.00    -0.238 OA
HETATM   36  N3  UNL     1      26.799  -3.518   3.354  1.00  0.00    -0.315 N 
ATOM     37  H3  UNL     1      27.136  -2.577   3.151  1.00  0.00     0.170 HD
BRANCH  36  38
HETATM   38  C13 UNL     1      25.740  -3.953   2.533  1.00  0.00     0.093 C 
BRANCH  38  39
HETATM   39  C14 UNL     1      24.468  -3.194   2.877  1.00  0.00     0.274 C 
BRANCH  39  40
HETATM   40  N4  UNL     1      23.333  -3.569   2.092  1.00  0.00    -0.075 N 
ATOM     41  H43 UNL     1      23.408  -4.542   1.796  1.00  0.00     0.274 HD
ATOM     42  H42 UNL     1      22.499  -3.630   2.676  1.00  0.00     0.274 HD
ATOM     43  H41 UNL     1      23.163  -2.964   1.288  1.00  0.00     0.274 HD
ENDBRANCH  39  40
ENDBRANCH  38  39
ENDBRANCH  36  38
ENDBRANCH  33  34
ENDBRANCH  32  33
ENDBRANCH   3  32
BRANCH   4  44
HETATM   44  C16 UNL     1      27.431  -0.088   3.417  1.00  0.00     0.287 C 
BRANCH  44  45
HETATM   45  N5  UNL     1      27.378   1.372   3.223  1.00  0.00    -0.074 N 
ATOM     46  H53 UNL     1      27.848   1.664   2.367  1.00  0.00     0.274 HD
ATOM     47  H52 UNL     1      26.440   1.696   2.991  1.00  0.00     0.274 HD
ATOM     48  H51 UNL     1      27.754   1.837   4.049  1.00  0.00     0.274 HD
ENDBRANCH  44  45
ENDBRANCH   4  44
TORSDOF 17
ENDMDL
MODEL 3
REMARK VINA RESULT: -5.630470736      4.208      6.240
REMARK  17 active torsions:
REMARK  status: ('A' for Active; 'I' for Inactive)
REMARK    1  A    between atoms: N1_2  and  C2_4 
REMARK    2  A    between atoms: C3_7  and  S1_8 
REMARK    3  A    between atoms: S1_8  and  C4_9 
REMARK    4  A    between atoms: C4_9  and  C5_10 
REMARK    5  A    between atoms: C5_10  and  C6_11 
REMARK    6  A    between atoms: C5_10  and  C18_38 
REMARK    7  A    between atoms: C6_11  and  C7_12 
REMARK    8  A    between atoms: C7_12  and  C8_13 
REMARK    9  A    between atoms: C10_15  and  C11_16 
REMARK   10  A    between atoms: C11_16  and  O1_17 
REMARK   11  A    between atoms: O1_17  and  C12_18 
REMARK       I    between atoms: C12_18  and  N3_20 
REMARK   12  A    between atoms: N3_20  and  C13_22 
REMARK   13  A    between atoms: C13_22  and  C14_23 
REMARK   14  A    between atoms: C14_23  and  N4_24 
REMARK   15  A    between atoms: C15_28  and  C16_29 
REMARK   16  A    between atoms: C16_29  and  N5_30 
REMARK   17  A    between atoms: C18_38  and  N7_39 
ROOT
HETATM    1  C8  UNL     1      26.688   0.298   4.086  1.00  0.00     0.086 A 
HETATM    2  C9  UNL     1      26.730   1.535   4.652  1.00  0.00     0.037 A 
HETATM    3  C10 UNL     1      25.863   1.968   5.622  1.00  0.00    -0.008 A 
HETATM    4  C15 UNL     1      24.864   1.017   6.022  1.00  0.00     0.046 A 
HETATM    5  N6  UNL     1      24.779  -0.197   5.495  1.00  0.00    -0.324 N 
ATOM      6  H6  UNL     1      24.050  -0.840   5.803  1.00  0.00     0.169 HD
HETATM    7  C17 UNL     1      25.665  -0.576   4.542  1.00  0.00     0.264 A 
HETATM    8  O3  UNL     1      25.624  -1.684   4.043  1.00  0.00    -0.267 OA
ENDROOT
BRANCH   1   9
HETATM    9  C7  UNL     1      27.631  -0.191   3.130  1.00  0.00    -0.061 C 
BRANCH   9  10
HETATM   10  C6  UNL     1      28.387  -0.618   2.259  1.00  0.00    -0.094 C 
BRANCH  10  11
HETATM   11  C5  UNL     1      29.189  -1.165   1.197  1.00  0.00     0.100 C 
BRANCH  11  12
HETATM   12  C4  UNL     1      28.471  -1.116  -0.140  1.00  0.00     0.101 C 
BRANCH  12  13
HETATM   13  S1  UNL     1      27.963  -2.860  -0.477  1.00  0.00    -0.091 SA
BRANCH  13  14
HETATM   14  C3  UNL     1      27.561  -3.802   0.947  1.00  0.00     0.160 A 
HETATM   15  N2  UNL     1      28.431  -4.684   1.522  1.00  0.00    -0.319 N 
HETATM   16  C2  UNL     1      28.148  -5.317   2.661  1.00  0.00     0.146 A 
ATOM     17  H2  UNL     1      29.325  -4.864   1.065  1.00  0.00     0.169 HD
HETATM   18  C19 UNL     1      26.905  -5.071   3.298  1.00  0.00     0.175 A 
HETATM   19  N9  UNL     1      26.104  -4.210   2.700  1.00  0.00    -0.283 N 
HETATM   20  N10 UNL     1      26.624  -5.688   4.521  1.00  0.00    -0.077 NA
HETATM   21  N8  UNL     1      26.390  -3.598   1.591  1.00  0.00    -0.278 N 
ATOM     22  H9  UNL     1      25.203  -4.013   3.137  1.00  0.00     0.188 HD
ATOM     23  H8  UNL     1      25.714  -2.946   1.195  1.00  0.00     0.189 HD
BRANCH  16  24
HETATM   24  N1  UNL     1      28.935  -6.088   3.251  1.00  0.00    -0.378 N 
HETATM   25  C1  UNL     1      29.985  -6.923   2.860  1.00  0.00     0.147 C 
ATOM     26  H1  UNL     1      28.772  -6.114   4.258  1.00  0.00     0.160 HD
ENDBRANCH  16  24
ENDBRANCH  13  14
ENDBRANCH  12  13
ENDBRANCH  11  12
BRANCH  11  27
HETATM   27  C18 UNL     1      30.520  -0.394   1.059  1.00  0.00     0.247 C 
BRANCH  27  28
HETATM   28  N7  UNL     1      30.834   0.330   2.254  1.00  0.00    -0.078 N 
ATOM     29  H73 UNL     1      30.105   1.004   2.484  1.00  0.00     0.274 HD
ATOM     30  H72 UNL     1      30.765  -0.266   3.080  1.00  0.00     0.274 HD
ATOM     31  H71 UNL     1      31.749   0.776   2.192  1.00  0.00     0.274 HD
ENDBRANCH  27  28
ENDBRANCH  11  27
ENDBRANCH  10  11
ENDBRANCH   9  10
ENDBRANCH   1   9
BRANCH   3  32
HETATM   32  C11 UNL     1      25.953   3.168   6.454  1.00  0.00     0.221 C 
BRANCH  32  33
HETATM   33  O1  UNL     1      26.050   4.380   5.711  1.00  0.00    -0.299 OA
BRANCH  33  34
HETATM   34  C12 UNL     1      24.908   4.766   4.979  1.00  0.00     0.364 C 
HETATM   35  O2  UNL     1      25.069   4.775   3.726  1.00  0.00    -0.238 OA
HETATM   36  N3  UNL     1      23.754   5.121   5.663  1.00  0.00    -0.315 N 
ATOM     37  H3  UNL     1      23.804   5.000   6.674  1.00  0.00     0.170 HD
BRANCH  36  38
HETATM   38  C13 UNL     1      22.525   5.622   5.191  1.00  0.00     0.093 C 
BRANCH  38  39
HETATM   39  C14 UNL     1      22.017   6.714   6.119  1.00  0.00     0.274 C 
BRANCH  39  40
HETATM   40  N4  UNL     1      21.500   6.232   7.362  1.00  0.00    -0.075 N 
ATOM     41  H43 UNL     1      21.917   5.331   7.598  1.00  0.00     0.274 HD
ATOM     42  H42 UNL     1      21.851   6.794   8.138  1.00  0.00     0.274 HD
ATOM     43  H41 UNL     1      20.482   6.173   7.396  1.00  0.00     0.274 HD
ENDBRANCH  39  40
ENDBRANCH  38  39
ENDBRANCH  36  38
ENDBRANCH  33  34
ENDBRANCH  32  33
ENDBRANCH   3  32
BRANCH   4  44
HETATM   44  C16 UNL     1      23.847   1.426   7.045  1.00  0.00     0.287 C 
BRANCH  44  45
HETATM   45  N5  UNL     1      22.624   1.886   6.363  1.00  0.00    -0.074 N 
ATOM     46  H53 UNL     1      22.533   1.490   5.427  1.00  0.00     0.274 HD
ATOM     47  H52 UNL     1      21.780   1.487   6.772  1.00  0.00     0.274 HD
ATOM     48  H51 UNL     1      22.605   2.905   6.354  1.00  0.00     0.274 HD
ENDBRANCH  44  45
ENDBRANCH   4  44
TORSDOF 17
ENDMDL
MODEL 4
REMARK VINA RESULT: -5.585782116      4.737      9.660
REMARK  17 active torsions:
REMARK  status: ('A' for Active; 'I' for Inactive)
REMARK    1  A    between atoms: N1_2  and  C2_4 
REMARK    2  A    between atoms: C3_7  and  S1_8 
REMARK    3  A    between atoms: S1_8  and  C4_9 
REMARK    4  A    between atoms: C4_9  and  C5_10 
REMARK    5  A    between atoms: C5_10  and  C6_11 
REMARK    6  A    between atoms: C5_10  and  C18_38 
REMARK    7  A    between atoms: C6_11  and  C7_12 
REMARK    8  A    between atoms: C7_12  and  C8_13 
REMARK    9  A    between atoms: C10_15  and  C11_16 
REMARK   10  A    between atoms: C11_16  and  O1_17 
REMARK   11  A    between atoms: O1_17  and  C12_18 
REMARK       I    between atoms: C12_18  and  N3_20 
REMARK   12  A    between atoms: N3_20  and  C13_22 
REMARK   13  A    between atoms: C13_22  and  C14_23 
REMARK   14  A    between atoms: C14_23  and  N4_24 
REMARK   15  A    between atoms: C15_28  and  C16_29 
REMARK   16  A    between atoms: C16_29  and  N5_30 
REMARK   17  A    between atoms: C18_38  and  N7_39 
ROOT
HETATM    1  C8  UNL     1      26.248   0.596   4.367  1.00  0.00     0.086 A 
HETATM    2  C9  UNL     1      27.284   0.550   3.486  1.00  0.00     0.037 A 
HETATM    3  C10 UNL     1      27.720  -0.595   2.870  1.00  0.00    -0.008 A 
HETATM    4  C15 UNL     1      27.006  -1.790   3.218  1.00  0.00     0.046 A 
HETATM    5  N6  UNL     1      25.995  -1.796   4.076  1.00  0.00    -0.324 N 
ATOM      6  H6  UNL     1      25.518  -2.670   4.301  1.00  0.00     0.169 HD
HETATM    7  C17 UNL     1      25.600  -0.635   4.654  1.00  0.00     0.264 A 
HETATM    8  O3  UNL     1      24.672  -0.601   5.438  1.00  0.00    -0.267 OA
ENDROOT
BRANCH   1   9
HETATM    9  C7  UNL     1      25.737   1.793   4.958  1.00  0.00    -0.061 C 
BRANCH   9  10
HETATM   10  C6  UNL     1      25.293   2.852   5.397  1.00  0.00    -0.094 C 
BRANCH  10  11
HETATM   11  C5  UNL     1      24.743   4.115   5.816  1.00  0.00     0.100 C 
BRANCH  11  12
HETATM   12  C4  UNL     1      23.245   4.032   6.049  1.00  0.00     0.101 C 
BRANCH  12  13
HETATM   13  S1  UNL     1      23.062   3.341   7.752  1.00  0.00    -0.091 SA
BRANCH  13  14
HETATM   14  C3  UNL     1      22.723   1.622   7.821  1.00  0.00     0.160 A 
HETATM   15  N2  UNL     1      22.756   0.907   8.983  1.00  0.00    -0.319 N 
HETATM   16  C2  UNL     1      22.398  -0.377   9.035  1.00  0.00     0.146 A 
ATOM     17  H2  UNL     1      23.064   1.369   9.839  1.00  0.00     0.169 HD
HETATM   18  C19 UNL     1      21.971  -1.024   7.846  1.00  0.00     0.175 A 
HETATM   19  N9  UNL     1      21.959  -0.286   6.753  1.00  0.00    -0.283 N 
HETATM   20  N10 UNL     1      21.542  -2.354   7.902  1.00  0.00    -0.077 NA
HETATM   21  N8  UNL     1      22.308   0.965   6.715  1.00  0.00    -0.278 N 
ATOM     22  H9  UNL     1      21.655  -0.725   5.884  1.00  0.00     0.188 HD
ATOM     23  H8  UNL     1      22.269   1.465   5.827  1.00  0.00     0.189 HD
BRANCH  16  24
HETATM   24  N1  UNL     1      22.358  -1.055  10.084  1.00  0.00    -0.378 N 
HETATM   25  C1  UNL     1      23.191  -1.211  11.195  1.00  0.00     0.147 C 
ATOM     26  H1  UNL     1      21.518  -1.630  10.144  1.00  0.00     0.160 HD
ENDBRANCH  16  24
ENDBRANCH  13  14
ENDBRANCH  12  13
ENDBRANCH  11  12
BRANCH  11  27
HETATM   27  C18 UNL     1      25.410   4.600   7.122  1.00  0.00     0.247 C 
BRANCH  27  28
HETATM   28  N7  UNL     1      26.835   4.660   6.993  1.00  0.00    -0.078 N 
ATOM     29  H73 UNL     1      27.121   4.676   6.015  1.00  0.00     0.274 HD
ATOM     30  H72 UNL     1      27.198   5.570   7.278  1.00  0.00     0.274 HD
ATOM     31  H71 UNL     1      27.289   3.902   7.502  1.00  0.00     0.274 HD
ENDBRANCH  27  28
ENDBRANCH  11  27
ENDBRANCH  10  11
ENDBRANCH   9  10
ENDBRANCH   1   9
BRANCH   3  32
HETATM   32  C11 UNL     1      28.654  -0.727   1.750  1.00  0.00     0.221 C 
BRANCH  32  33
HETATM   33  O1  UNL     1      28.051  -0.558   0.471  1.00  0.00    -0.299 OA
BRANCH  33  34
HETATM   34  C12 UNL     1      28.585  -1.324  -0.585  1.00  0.00     0.364 C 
HETATM   35  O2  UNL     1      27.723  -1.938  -1.275  1.00  0.00    -0.238 OA
HETATM   36  N3  UNL     1      29.961  -1.370  -0.760  1.00  0.00    -0.315 N 
ATOM     37  H3  UNL     1      30.490  -0.764  -0.132  1.00  0.00     0.170 HD
BRANCH  36  38
HETATM   38  C13 UNL     1      30.748  -2.114  -1.660  1.00  0.00     0.093 C 
BRANCH  38  39
HETATM   39  C14 UNL     1      30.866  -3.553  -1.182  1.00  0.00     0.274 C 
BRANCH  39  40
HETATM   40  N4  UNL     1      29.816  -4.409  -1.638  1.00  0.00    -0.075 N 
ATOM     41  H43 UNL     1      29.563  -5.082  -0.914  1.00  0.00     0.274 HD
ATOM     42  H42 UNL     1      28.938  -3.893  -1.708  1.00  0.00     0.274 HD
ATOM     43  H41 UNL     1      30.020  -4.888  -2.516  1.00  0.00     0.274 HD
ENDBRANCH  39  40
ENDBRANCH  38  39
ENDBRANCH  36  38
ENDBRANCH  33  34
ENDBRANCH  32  33
ENDBRANCH   3  32
BRANCH   4  44
HETATM   44  C16 UNL     1      27.448  -3.095   2.623  1.00  0.00     0.287 C 
BRANCH  44  45
HETATM   45  N5  UNL     1      26.619  -3.401   1.444  1.00  0.00    -0.074 N 
ATOM     46  H53 UNL     1      25.721  -2.918   1.467  1.00  0.00     0.274 HD
ATOM     47  H52 UNL     1      26.988  -2.979   0.593  1.00  0.00     0.274 HD
ATOM     48  H51 UNL     1      26.512  -4.411   1.358  1.00  0.00     0.274 HD
ENDBRANCH  44  45
ENDBRANCH   4  44
TORSDOF 17
ENDMDL
MODEL 5
REMARK VINA RESULT: -5.566662436      4.445      6.636
REMARK  17 active torsions:
REMARK  status: ('A' for Active; 'I' for Inactive)
REMARK    1  A    between atoms: N1_2  and  C2_4 
REMARK    2  A    between atoms: C3_7  and  S1_8 
REMARK    3  A    between atoms: S1_8  and  C4_9 
REMARK    4  A    between atoms: C4_9  and  C5_10 
REMARK    5  A    between atoms: C5_10  and  C6_11 
REMARK    6  A    between atoms: C5_10  and  C18_38 
REMARK    7  A    between atoms: C6_11  and  C7_12 
REMARK    8  A    between atoms: C7_12  and  C8_13 
REMARK    9  A    between atoms: C10_15  and  C11_16 
REMARK   10  A    between atoms: C11_16  and  O1_17 
REMARK   11  A    between atoms: O1_17  and  C12_18 
REMARK       I    between atoms: C12_18  and  N3_20 
REMARK   12  A    between atoms: N3_20  and  C13_22 
REMARK   13  A    between atoms: C13_22  and  C14_23 
REMARK   14  A    between atoms: C14_23  and  N4_24 
REMARK   15  A    between atoms: C15_28  and  C16_29 
REMARK   16  A    between atoms: C16_29  and  N5_30 
REMARK   17  A    between atoms: C18_38  and  N7_39 
ROOT
HETATM    1  C8  UNL     1      29.307  -4.652   2.214  1.00  0.00     0.086 A 
HETATM    2  C9  UNL     1      29.076  -3.356   1.869  1.00  0.00     0.037 A 
HETATM    3  C10 UNL     1      27.899  -2.695   2.106  1.00  0.00    -0.008 A 
HETATM    4  C15 UNL     1      26.879  -3.468   2.756  1.00  0.00     0.046 A 
HETATM    5  N6  UNL     1      27.055  -4.736   3.105  1.00  0.00    -0.324 N 
ATOM      6  H6  UNL     1      26.302  -5.252   3.561  1.00  0.00     0.169 HD
HETATM    7  C17 UNL     1      28.241  -5.341   2.852  1.00  0.00     0.264 A 
HETATM    8  O3  UNL     1      28.442  -6.498   3.166  1.00  0.00    -0.267 OA
ENDROOT
BRANCH   1   9
HETATM    9  C7  UNL     1      30.554  -5.329   2.040  1.00  0.00    -0.061 C 
BRANCH   9  10
HETATM   10  C6  UNL     1      31.597  -5.944   1.830  1.00  0.00    -0.094 C 
BRANCH  10  11
HETATM   11  C5  UNL     1      32.851  -6.584   1.526  1.00  0.00     0.100 C 
BRANCH  11  12
HETATM   12  C4  UNL     1      32.682  -8.072   1.276  1.00  0.00     0.101 C 
BRANCH  12  13
HETATM   13  S1  UNL     1      32.999  -8.872   2.911  1.00  0.00    -0.091 SA
BRANCH  13  14
HETATM   14  C3  UNL     1      31.560  -9.271   3.831  1.00  0.00     0.160 A 
HETATM   15  N2  UNL     1      30.864  -8.346   4.555  1.00  0.00    -0.319 N 
HETATM   16  C2  UNL     1      29.717  -8.643   5.167  1.00  0.00     0.146 A 
ATOM     17  H2  UNL     1      31.234  -7.398   4.630  1.00  0.00     0.169 HD
HETATM   18  C19 UNL     1      29.201  -9.961   5.066  1.00  0.00     0.175 A 
HETATM   19  N9  UNL     1      29.914 -10.813   4.354  1.00  0.00    -0.283 N 
HETATM   20  N10 UNL     1      27.972 -10.267   5.658  1.00  0.00    -0.077 NA
HETATM   21  N8  UNL     1      31.030 -10.513   3.761  1.00  0.00    -0.278 N 
ATOM     22  H9  UNL     1      29.566 -11.768   4.264  1.00  0.00     0.188 HD
ATOM     23  H8  UNL     1      31.519 -11.232   3.229  1.00  0.00     0.189 HD
BRANCH  16  24
HETATM   24  N1  UNL     1      29.019  -7.817   5.792  1.00  0.00    -0.378 N 
HETATM   25  C1  UNL     1      29.280  -6.745   6.649  1.00  0.00     0.147 C 
ATOM     26  H1  UNL     1      28.020  -7.958   5.640  1.00  0.00     0.160 HD
ENDBRANCH  16  24
ENDBRANCH  13  14
ENDBRANCH  12  13
ENDBRANCH  11  12
BRANCH  11  27
HETATM   27  C18 UNL     1      33.501  -5.954   0.274  1.00  0.00     0.247 C 
BRANCH  27  28
HETATM   28  N7  UNL     1      34.911  -6.200   0.235  1.00  0.00    -0.078 N 
ATOM     29  H73 UNL     1      35.134  -7.143   0.552  1.00  0.00     0.274 HD
ATOM     30  H72 UNL     1      35.251  -6.271  -0.725  1.00  0.00     0.274 HD
ATOM     31  H71 UNL     1      35.428  -5.497   0.762  1.00  0.00     0.274 HD
ENDBRANCH  27  28
ENDBRANCH  11  27
ENDBRANCH  10  11
ENDBRANCH   9  10
ENDBRANCH   1   9
BRANCH   3  32
HETATM   32  C11 UNL     1      27.620  -1.262   1.991  1.00  0.00     0.221 C 
BRANCH  32  33
HETATM   33  O1  UNL     1      28.584  -0.546   1.225  1.00  0.00    -0.299 OA
BRANCH  33  34
HETATM   34  C12 UNL     1      28.794  -0.988  -0.098  1.00  0.00     0.364 C 
HETATM   35  O2  UNL     1      27.763  -0.966  -0.826  1.00  0.00    -0.238 OA
HETATM   36  N3  UNL     1      30.057  -1.424  -0.473  1.00  0.00    -0.315 N 
ATOM     37  H3  UNL     1      30.774  -1.317   0.244  1.00  0.00     0.170 HD
BRANCH  36  38
HETATM   38  C13 UNL     1      30.511  -1.991  -1.680  1.00  0.00     0.093 C 
BRANCH  38  39
HETATM   39  C14 UNL     1      30.938  -3.432  -1.449  1.00  0.00     0.274 C 
BRANCH  39  40
HETATM   40  N4  UNL     1      29.874  -4.383  -1.557  1.00  0.00    -0.075 N 
ATOM     41  H43 UNL     1      29.483  -4.586  -0.637  1.00  0.00     0.274 HD
ATOM     42  H42 UNL     1      29.060  -3.958  -2.001  1.00  0.00     0.274 HD
ATOM     43  H41 UNL     1      30.133  -5.246  -2.034  1.00  0.00     0.274 HD
ENDBRANCH  39  40
ENDBRANCH  38  39
ENDBRANCH  36  38
ENDBRANCH  33  34
ENDBRANCH  32  33
ENDBRANCH   3  32
BRANCH   4  44
HETATM   44  C16 UNL     1      25.544  -2.834   3.012  1.00  0.00     0.287 C 
BRANCH  44  45
HETATM   45  N5  UNL     1      24.500  -3.588   2.294  1.00  0.00    -0.074 N 
ATOM     46  H53 UNL     1      24.561  -3.466   1.284  1.00  0.00     0.274 HD
ATOM     47  H52 UNL     1      24.658  -4.594   2.329  1.00  0.00     0.274 HD
ATOM     48  H51 UNL     1      23.584  -3.328   2.660  1.00  0.00     0.274 HD
ENDBRANCH  44  45
ENDBRANCH   4  44
TORSDOF 17
ENDMDL
