MODEL 1
REMARK VINA RESULT: -6.097508157      0.000      0.000
REMARK  16 active torsions:
REMARK  status: ('A' for Active; 'I' for Inactive)
REMARK    1  A    between atoms: N1_2  and  C2_3 
REMARK    2  A    between atoms: N1_2  and  C6_12 
REMARK    3  A    between atoms: C2_3  and  C3_4 
REMARK    4  A    between atoms: C6_12  and  O1_13 
REMARK    5  A    between atoms: C6_12  and  C7_15 
REMARK    6  A    between atoms: C7_15  and  N5_16 
REMARK    7  A    between atoms: N5_16  and  C8_17 
REMARK    8  A    between atoms: N5_16  and  C10_23 
REMARK    9  A    between atoms: C8_17  and  C9_18 
REMARK   10  A    between atoms: C9_18  and  N6_19 
REMARK   11  A    between atoms: C10_23  and  C11_24 
REMARK   12  A    between atoms: C11_24  and  C12_25 
REMARK   13  A    between atoms: C12_25  and  N7_26 
REMARK   14  A    between atoms: N7_26  and  C13_28 
REMARK   15  A    between atoms: C14_31  and  N9_32 
REMARK   16  A    between atoms: C17_42  and  N12_43 
ROOT
HETATM    1  C11 UNL     1      29.154  -1.390  -1.212  1.00  0.00     0.040 C 
ENDROOT
BRANCH   1   2
HETATM    2  C10 UNL     1      30.164  -0.562  -0.474  1.00  0.00     0.129 C 
BRANCH   2   3
HETATM    3  N5  UNL     1      31.362  -1.263  -0.188  1.00  0.00    -0.368 N 
BRANCH   3   4
HETATM    4  C7  UNL     1      31.694  -1.515   1.139  1.00  0.00     0.126 C 
BRANCH   4   5
HETATM    5  C6  UNL     1      31.236  -0.426   2.107  1.00  0.00     0.396 C 
BRANCH   5   6
HETATM    6  N1  UNL     1      31.132  -0.949   3.454  1.00  0.00     0.123 N 
HETATM    7  C1  UNL     1      32.282  -1.705   3.854  1.00  0.00     0.314 C 
BRANCH   6   8
HETATM    8  C2  UNL     1      30.656  -0.003   4.397  1.00  0.00     0.335 C 
BRANCH   8   9
HETATM    9  C3  UNL     1      29.203   0.226   4.194  1.00  0.00     0.072 A 
HETATM   10  C4  UNL     1      28.114  -0.564   4.491  1.00  0.00     0.139 A 
HETATM   11  N2  UNL     1      26.961   0.073   4.125  1.00  0.00    -0.292 N 
HETATM   12  C5  UNL     1      25.643  -0.474   4.296  1.00  0.00     0.178 C 
HETATM   13  N3  UNL     1      27.334   1.223   3.617  1.00  0.00    -0.241 N 
HETATM   14  N4  UNL     1      28.646   1.347   3.642  1.00  0.00    -0.287 N 
ATOM     15  H3  UNL     1      26.693   1.928   3.252  1.00  0.00     0.208 HD
ATOM     16  H4  UNL     1      29.167   2.156   3.302  1.00  0.00     0.188 HD
ENDBRANCH   8   9
ENDBRANCH   6   8
ENDBRANCH   5   6
BRANCH   5  17
HETATM   17  O1  UNL     1      32.121   0.644   2.162  1.00  0.00    -0.364 OA
ATOM     18  H1  UNL     1      31.623   1.396   2.461  1.00  0.00     0.212 HD
ENDBRANCH   5  17
ENDBRANCH   4   5
ENDBRANCH   3   4
BRANCH   3  19
HETATM   19  C8  UNL     1      31.714  -2.244  -1.126  1.00  0.00     0.090 C 
BRANCH  19  20
HETATM   20  C9  UNL     1      32.002  -3.632  -0.655  1.00  0.00     0.274 C 
BRANCH  20  21
HETATM   21  N6  UNL     1      30.961  -4.597  -0.870  1.00  0.00    -0.075 N 
ATOM     22  H63 UNL     1      30.478  -4.787   0.008  1.00  0.00     0.274 HD
ATOM     23  H62 UNL     1      30.205  -4.176  -1.408  1.00  0.00     0.274 HD
ATOM     24  H61 UNL     1      31.249  -5.474  -1.304  1.00  0.00     0.274 HD
ENDBRANCH  20  21
ENDBRANCH  19  20
ENDBRANCH   3  19
ENDBRANCH   2   3
ENDBRANCH   1   2
BRANCH   1  25
HETATM   25  C12 UNL     1      27.947  -1.702  -0.308  1.00  0.00     0.123 C 
BRANCH  25  26
HETATM   26  N7  UNL     1      28.316  -2.766   0.600  1.00  0.00    -0.375 N 
ATOM     27  H7  UNL     1      29.268  -3.129   0.536  1.00  0.00     0.161 HD
BRANCH  26  28
HETATM   28  C13 UNL     1      27.552  -3.284   1.467  1.00  0.00     0.129 A 
HETATM   29  N8  UNL     1      26.219  -3.107   1.511  1.00  0.00    -0.176 N 
HETATM   30  C14 UNL     1      25.437  -3.684   2.471  1.00  0.00     0.678 A 
ATOM     31  H8  UNL     1      25.777  -2.522   0.803  1.00  0.00     0.186 HD
HETATM   32  N10 UNL     1      26.016  -4.464   3.419  1.00  0.00    -0.186 N 
HETATM   33  C15 UNL     1      27.334  -4.679   3.431  1.00  0.00     0.131 A 
ATOM     34  H10 UNL     1      25.432  -4.894   4.136  1.00  0.00     0.184 HD
HETATM   35  C16 UNL     1      27.767  -5.496   4.469  1.00  0.00     0.275 C 
HETATM   36  C20 UNL     1      28.100  -4.083   2.447  1.00  0.00     0.041 A 
HETATM   37  O2  UNL     1      26.866  -6.219   4.958  1.00  0.00    -0.266 OA
HETATM   38  N11 UNL     1      29.009  -5.580   4.977  1.00  0.00    -0.308 N 
HETATM   39  C17 UNL     1      30.202  -5.217   4.454  1.00  0.00     0.101 C 
ATOM     40  H11 UNL     1      29.060  -5.984   5.912  1.00  0.00     0.170 HD
HETATM   41  C18 UNL     1      30.401  -4.614   3.232  1.00  0.00     0.049 C 
HETATM   42  C19 UNL     1      29.473  -4.188   2.294  1.00  0.00     0.021 C 
BRANCH  30  43
HETATM   43  N9  UNL     1      24.163  -3.497   2.488  1.00  0.00    -0.234 N 
ATOM     44  H92 UNL     1      23.772  -2.638   2.101  1.00  0.00     0.174 HD
ATOM     45  H91 UNL     1      23.535  -4.197   2.884  1.00  0.00     0.174 HD
ENDBRANCH  30  43
BRANCH  39  46
HETATM   46  N12 UNL     1      31.250  -5.473   5.193  1.00  0.00    -0.385 N 
ATOM     47 2H12 UNL     1      31.110  -5.983   6.065  1.00  0.00     0.157 HD
ATOM     48 1H12 UNL     1      32.142  -5.135   4.832  1.00  0.00     0.157 HD
ENDBRANCH  39  46
ENDBRANCH  26  28
ENDBRANCH  25  26
ENDBRANCH   1  25
TORSDOF 16
ENDMDL
MODEL 2
REMARK VINA RESULT: -6.048375804      2.660      6.654
REMARK  16 active torsions:
REMARK  status: ('A' for Active; 'I' for Inactive)
REMARK    1  A    between atoms: N1_2  and  C2_3 
REMARK    2  A    between atoms: N1_2  and  C6_12 
REMARK    3  A    between atoms: C2_3  and  C3_4 
REMARK    4  A    between atoms: C6_12  and  O1_13 
REMARK    5  A    between atoms: C6_12  and  C7_15 
REMARK    6  A    between atoms: C7_15  and  N5_16 
REMARK    7  A    between atoms: N5_16  and  C8_17 
REMARK    8  A    between atoms: N5_16  and  C10_23 
REMARK    9  A    between atoms: C8_17  and  C9_18 
REMARK   10  A    between atoms: C9_18  and  N6_19 
REMARK   11  A    between atoms: C10_23  and  C11_24 
REMARK   12  A    between atoms: C11_24  and  C12_25 
REMARK   13  A    between atoms: C12_25  and  N7_26 
REMARK   14  A    between atoms: N7_26  and  C13_28 
REMARK   15  A    between atoms: C14_31  and  N9_32 
REMARK   16  A    between atoms: C17_42  and  N12_43 
ROOT
HETATM    1  C11 UNL     1      28.040  -1.532   3.963  1.00  0.00     0.040 C 
ENDROOT
BRANCH   1   2
HETATM    2  C10 UNL     1      27.021  -2.617   4.147  1.00  0.00     0.129 C 
BRANCH   2   3
HETATM    3  N5  UNL     1      27.124  -3.652   3.185  1.00  0.00    -0.368 N 
BRANCH   3   4
HETATM    4  C7  UNL     1      27.974  -4.724   3.436  1.00  0.00     0.126 C 
BRANCH   4   5
HETATM    5  C6  UNL     1      28.765  -5.185   2.213  1.00  0.00     0.396 C 
BRANCH   5   6
HETATM    6  N1  UNL     1      30.159  -5.384   2.551  1.00  0.00     0.123 N 
HETATM    7  C1  UNL     1      30.685  -4.355   3.399  1.00  0.00     0.314 C 
BRANCH   6   8
HETATM    8  C2  UNL     1      30.468  -6.715   2.931  1.00  0.00     0.335 C 
BRANCH   8   9
HETATM    9  C3  UNL     1      31.514  -7.267   2.034  1.00  0.00     0.072 A 
HETATM   10  C4  UNL     1      32.175  -8.477   2.054  1.00  0.00     0.139 A 
HETATM   11  N2  UNL     1      33.058  -8.544   1.014  1.00  0.00    -0.292 N 
HETATM   12  C5  UNL     1      33.908  -9.671   0.742  1.00  0.00     0.178 C 
HETATM   13  N3  UNL     1      32.942  -7.406   0.372  1.00  0.00    -0.241 N 
HETATM   14  N4  UNL     1      32.043  -6.631   0.945  1.00  0.00    -0.287 N 
ATOM     15  H3  UNL     1      33.477  -7.154  -0.459  1.00  0.00     0.208 HD
ATOM     16  H4  UNL     1      31.780  -5.698   0.625  1.00  0.00     0.188 HD
ENDBRANCH   8   9
ENDBRANCH   6   8
ENDBRANCH   5   6
BRANCH   5  17
HETATM   17  O1  UNL     1      28.300  -6.391   1.703  1.00  0.00    -0.364 OA
ATOM     18  H1  UNL     1      27.590  -6.181   1.108  1.00  0.00     0.212 HD
ENDBRANCH   5  17
ENDBRANCH   4   5
ENDBRANCH   3   4
BRANCH   3  19
HETATM   19  C8  UNL     1      25.940  -3.933   2.487  1.00  0.00     0.090 C 
BRANCH  19  20
HETATM   20  C9  UNL     1      24.698  -3.178   2.828  1.00  0.00     0.274 C 
BRANCH  20  21
HETATM   21  N6  UNL     1      23.510  -3.571   2.124  1.00  0.00    -0.075 N 
ATOM     22  H63 UNL     1      23.381  -2.978   1.305  1.00  0.00     0.274 HD
ATOM     23  H62 UNL     1      23.657  -4.475   1.675  1.00  0.00     0.274 HD
ATOM     24  H61 UNL     1      22.652  -3.594   2.674  1.00  0.00     0.274 HD
ENDBRANCH  20  21
ENDBRANCH  19  20
ENDBRANCH   3  19
ENDBRANCH   2   3
ENDBRANCH   1   2
BRANCH   1  25
HETATM   25  C12 UNL     1      27.575  -0.530   2.890  1.00  0.00     0.123 C 
BRANCH  25  26
HETATM   26  N7  UNL     1      28.594  -0.446   1.868  1.00  0.00    -0.375 N 
ATOM     27  H7  UNL     1      29.167   0.398   1.843  1.00  0.00     0.161 HD
BRANCH  26  28
HETATM   28  C13 UNL     1      28.833  -1.339   1.000  1.00  0.00     0.129 A 
HETATM   29  N8  UNL     1      27.893  -1.949   0.257  1.00  0.00    -0.176 N 
HETATM   30  C14 UNL     1      28.201  -2.910  -0.663  1.00  0.00     0.678 A 
ATOM     31  H8  UNL     1      26.916  -1.686   0.385  1.00  0.00     0.186 HD
HETATM   32  N10 UNL     1      29.497  -3.270  -0.840  1.00  0.00    -0.186 N 
HETATM   33  C15 UNL     1      30.478  -2.702  -0.133  1.00  0.00     0.131 A 
ATOM     34  H10 UNL     1      29.727  -3.988  -1.527  1.00  0.00     0.184 HD
HETATM   35  C16 UNL     1      31.747  -3.185  -0.431  1.00  0.00     0.275 C 
HETATM   36  C20 UNL     1      30.137  -1.731   0.790  1.00  0.00     0.041 A 
HETATM   37  O2  UNL     1      31.830  -3.739  -1.554  1.00  0.00    -0.266 OA
HETATM   38  N11 UNL     1      32.847  -3.118   0.339  1.00  0.00    -0.308 N 
HETATM   39  C17 UNL     1      33.145  -2.310   1.382  1.00  0.00     0.101 C 
ATOM     40  H11 UNL     1      33.578  -3.787   0.096  1.00  0.00     0.170 HD
HETATM   41  C18 UNL     1      32.317  -1.357   1.930  1.00  0.00     0.049 C 
HETATM   42  C19 UNL     1      31.006  -1.033   1.611  1.00  0.00     0.021 C 
BRANCH  30  43
HETATM   43  N9  UNL     1      27.279  -3.479  -1.362  1.00  0.00    -0.234 N 
ATOM     44  H92 UNL     1      27.497  -3.834  -2.293  1.00  0.00     0.174 HD
ATOM     45  H91 UNL     1      26.332  -3.581  -0.998  1.00  0.00     0.174 HD
ENDBRANCH  30  43
BRANCH  39  46
HETATM   46  N12 UNL     1      34.334  -2.467   1.901  1.00  0.00    -0.385 N 
ATOM     47 2H12 UNL     1      35.134  -2.505   1.269  1.00  0.00     0.157 HD
ATOM     48 1H12 UNL     1      34.369  -2.540   2.918  1.00  0.00     0.157 HD
ENDBRANCH  39  46
ENDBRANCH  26  28
ENDBRANCH  25  26
ENDBRANCH   1  25
TORSDOF 16
ENDMDL
MODEL 3
REMARK VINA RESULT: -5.958718068      2.194      6.176
REMARK  16 active torsions:
REMARK  status: ('A' for Active; 'I' for Inactive)
REMARK    1  A    between atoms: N1_2  and  C2_3 
REMARK    2  A    between atoms: N1_2  and  C6_12 
REMARK    3  A    between atoms: C2_3  and  C3_4 
REMARK    4  A    between atoms: C6_12  and  O1_13 
REMARK    5  A    between atoms: C6_12  and  C7_15 
REMARK    6  A    between atoms: C7_15  and  N5_16 
REMARK    7  A    between atoms: N5_16  and  C8_17 
REMARK    8  A    between atoms: N5_16  and  C10_23 
REMARK    9  A    between atoms: C8_17  and  C9_18 
REMARK   10  A    between atoms: C9_18  and  N6_19 
REMARK   11  A    between atoms: C10_23  and  C11_24 
REMARK   12  A    between atoms: C11_24  and  C12_25 
REMARK   13  A    between atoms: C12_25  and  N7_26 
REMARK   14  A    between atoms: N7_26  and  C13_28 
REMARK   15  A    between atoms: C14_31  and  N9_32 
REMARK   16  A    between atoms: C17_42  and  N12_43 
ROOT
HETATM    1  C11 UNL     1      30.697  -0.287   4.174  1.00  0.00     0.040 C 
ENDROOT
BRANCH   1   2
HETATM    2  C10 UNL     1      29.346   0.183   4.626  1.00  0.00     0.129 C 
BRANCH   2   3
HETATM    3  N5  UNL     1      28.275  -0.470   3.966  1.00  0.00    -0.368 N 
BRANCH   3   4
HETATM    4  C7  UNL     1      27.868  -1.721   4.418  1.00  0.00     0.126 C 
BRANCH   4   5
HETATM    5  C6  UNL     1      26.914  -2.441   3.467  1.00  0.00     0.396 C 
BRANCH   5   6
HETATM    6  N1  UNL     1      27.358  -3.798   3.226  1.00  0.00     0.123 N 
HETATM    7  C1  UNL     1      26.364  -4.780   3.549  1.00  0.00     0.314 C 
BRANCH   6   8
HETATM    8  C2  UNL     1      28.014  -3.970   1.981  1.00  0.00     0.335 C 
BRANCH   8   9
HETATM    9  C3  UNL     1      29.087  -4.989   2.111  1.00  0.00     0.072 A 
HETATM   10  C4  UNL     1      30.175  -5.052   2.955  1.00  0.00     0.139 A 
HETATM   11  N2  UNL     1      30.888  -6.191   2.713  1.00  0.00    -0.292 N 
HETATM   12  C5  UNL     1      32.083  -6.566   3.419  1.00  0.00     0.178 C 
HETATM   13  N3  UNL     1      30.254  -6.812   1.747  1.00  0.00    -0.241 N 
HETATM   14  N4  UNL     1      29.189  -6.133   1.369  1.00  0.00    -0.287 N 
ATOM     15  H3  UNL     1      30.546  -7.702   1.343  1.00  0.00     0.208 HD
ATOM     16  H4  UNL     1      28.541  -6.418   0.634  1.00  0.00     0.188 HD
ENDBRANCH   8   9
ENDBRANCH   6   8
ENDBRANCH   5   6
BRANCH   5  17
HETATM   17  O1  UNL     1      25.622  -2.527   3.973  1.00  0.00    -0.364 OA
ATOM     18  H1  UNL     1      25.515  -1.798   4.573  1.00  0.00     0.212 HD
ENDBRANCH   5  17
ENDBRANCH   4   5
ENDBRANCH   3   4
BRANCH   3  19
HETATM   19  C8  UNL     1      27.276   0.380   3.471  1.00  0.00     0.090 C 
BRANCH  19  20
HETATM   20  C9  UNL     1      26.374   1.080   4.433  1.00  0.00     0.274 C 
BRANCH  20  21
HETATM   21  N6  UNL     1      25.099   0.461   4.663  1.00  0.00    -0.075 N 
ATOM     22  H63 UNL     1      24.704   0.143   3.778  1.00  0.00     0.274 HD
ATOM     23  H62 UNL     1      25.228  -0.432   5.138  1.00  0.00     0.274 HD
ATOM     24  H61 UNL     1      24.413   1.025   5.166  1.00  0.00     0.274 HD
ENDBRANCH  20  21
ENDBRANCH  19  20
ENDBRANCH   3  19
ENDBRANCH   2   3
ENDBRANCH   1   2
BRANCH   1  25
HETATM   25  C12 UNL     1      31.167   0.518   2.948  1.00  0.00     0.123 C 
BRANCH  25  26
HETATM   26  N7  UNL     1      31.635  -0.410   1.942  1.00  0.00    -0.375 N 
ATOM     27  H7  UNL     1      32.631  -0.632   1.935  1.00  0.00     0.161 HD
BRANCH  26  28
HETATM   28  C13 UNL     1      30.906  -0.970   1.070  1.00  0.00     0.129 A 
HETATM   29  N8  UNL     1      29.704  -0.516   0.676  1.00  0.00    -0.176 N 
HETATM   30  C14 UNL     1      28.953  -1.158  -0.266  1.00  0.00     0.678 A 
ATOM     31  H8  UNL     1      29.340   0.340   1.095  1.00  0.00     0.186 HD
HETATM   32  N10 UNL     1      29.427  -2.298  -0.829  1.00  0.00    -0.186 N 
HETATM   33  C15 UNL     1      30.615  -2.802  -0.481  1.00  0.00     0.131 A 
ATOM     34  H10 UNL     1      28.867  -2.779  -1.532  1.00  0.00     0.184 HD
HETATM   35  C16 UNL     1      30.951  -3.976  -1.147  1.00  0.00     0.275 C 
HETATM   36  C20 UNL     1      31.353  -2.130   0.474  1.00  0.00     0.041 A 
HETATM   37  O2  UNL     1      30.329  -4.146  -2.224  1.00  0.00    -0.266 OA
HETATM   38  N11 UNL     1      31.843  -4.904  -0.762  1.00  0.00    -0.308 N 
HETATM   39  C17 UNL     1      32.872  -4.830   0.111  1.00  0.00     0.101 C 
ATOM     40  H11 UNL     1      31.723  -5.817  -1.202  1.00  0.00     0.170 HD
HETATM   41  C18 UNL     1      33.218  -3.730   0.863  1.00  0.00     0.049 C 
HETATM   42  C19 UNL     1      32.597  -2.494   0.961  1.00  0.00     0.021 C 
BRANCH  30  43
HETATM   43  N9  UNL     1      27.804  -0.699  -0.625  1.00  0.00    -0.234 N 
ATOM     44  H92 UNL     1      27.350   0.022  -0.064  1.00  0.00     0.174 HD
ATOM     45  H91 UNL     1      27.339  -1.045  -1.464  1.00  0.00     0.174 HD
ENDBRANCH  30  43
BRANCH  39  46
HETATM   46  N12 UNL     1      33.592  -5.914   0.237  1.00  0.00    -0.385 N 
ATOM     47 2H12 UNL     1      33.747  -6.282   1.176  1.00  0.00     0.157 HD
ATOM     48 1H12 UNL     1      33.949  -6.315  -0.631  1.00  0.00     0.157 HD
ENDBRANCH  39  46
ENDBRANCH  26  28
ENDBRANCH  25  26
ENDBRANCH   1  25
TORSDOF 16
ENDMDL
MODEL 4
REMARK VINA RESULT: -5.940864761      2.469      5.730
REMARK  16 active torsions:
REMARK  status: ('A' for Active; 'I' for Inactive)
REMARK    1  A    between atoms: N1_2  and  C2_3 
REMARK    2  A    between atoms: N1_2  and  C6_12 
REMARK    3  A    between atoms: C2_3  and  C3_4 
REMARK    4  A    between atoms: C6_12  and  O1_13 
REMARK    5  A    between atoms: C6_12  and  C7_15 
REMARK    6  A    between atoms: C7_15  and  N5_16 
REMARK    7  A    between atoms: N5_16  and  C8_17 
REMARK    8  A    between atoms: N5_16  and  C10_23 
REMARK    9  A    between atoms: C8_17  and  C9_18 
REMARK   10  A    between atoms: C9_18  and  N6_19 
REMARK   11  A    between atoms: C10_23  and  C11_24 
REMARK   12  A    between atoms: C11_24  and  C12_25 
REMARK   13  A    between atoms: C12_25  and  N7_26 
REMARK   14  A    between atoms: N7_26  and  C13_28 
REMARK   15  A    between atoms: C14_31  and  N9_32 
REMARK   16  A    between atoms: C17_42  and  N12_43 
ROOT
HETATM    1  C11 UNL     1      31.208  -4.282   2.666  1.00  0.00     0.040 C 
ENDROOT
BRANCH   1   2
HETATM    2  C10 UNL     1      32.401  -3.930   1.829  1.00  0.00     0.129 C 
BRANCH   2   3
HETATM    3  N5  UNL     1      32.145  -3.985   0.436  1.00  0.00    -0.368 N 
BRANCH   3   4
HETATM    4  C7  UNL     1      31.756  -2.824  -0.223  1.00  0.00     0.126 C 
BRANCH   4   5
HETATM    5  C6  UNL     1      30.622  -3.034  -1.225  1.00  0.00     0.396 C 
BRANCH   5   6
HETATM    6  N1  UNL     1      29.432  -2.321  -0.808  1.00  0.00     0.123 N 
HETATM    7  C1  UNL     1      29.384  -0.974  -1.298  1.00  0.00     0.314 C 
BRANCH   6   8
HETATM    8  C2  UNL     1      28.238  -3.073  -0.951  1.00  0.00     0.335 C 
BRANCH   8   9
HETATM    9  C3  UNL     1      28.165  -4.110   0.108  1.00  0.00     0.072 A 
HETATM   10  C4  UNL     1      27.810  -4.021   1.437  1.00  0.00     0.139 A 
HETATM   11  N2  UNL     1      27.887  -5.252   2.025  1.00  0.00    -0.292 N 
HETATM   12  C5  UNL     1      27.582  -5.512   3.405  1.00  0.00     0.178 C 
HETATM   13  N3  UNL     1      28.277  -6.075   1.082  1.00  0.00    -0.241 N 
HETATM   14  N4  UNL     1      28.450  -5.437  -0.059  1.00  0.00    -0.287 N 
ATOM     15  H3  UNL     1      28.427  -7.075   1.213  1.00  0.00     0.208 HD
ATOM     16  H4  UNL     1      28.751  -5.868  -0.934  1.00  0.00     0.188 HD
ENDBRANCH   8   9
ENDBRANCH   6   8
ENDBRANCH   5   6
BRANCH   5  17
HETATM   17  O1  UNL     1      30.942  -2.570  -2.496  1.00  0.00    -0.364 OA
ATOM     18  H1  UNL     1      31.877  -2.405  -2.499  1.00  0.00     0.212 HD
ENDBRANCH   5  17
ENDBRANCH   4   5
ENDBRANCH   3   4
BRANCH   3  19
HETATM   19  C8  UNL     1      32.952  -4.880  -0.280  1.00  0.00     0.090 C 
BRANCH  19  20
HETATM   20  C9  UNL     1      33.505  -6.080   0.416  1.00  0.00     0.274 C 
BRANCH  20  21
HETATM   21  N6  UNL     1      32.685  -7.258   0.387  1.00  0.00    -0.075 N 
ATOM     22  H63 UNL     1      32.831  -7.759  -0.489  1.00  0.00     0.274 HD
ATOM     23  H62 UNL     1      33.041  -7.943   1.052  1.00  0.00     0.274 HD
ATOM     24  H61 UNL     1      31.687  -7.111   0.540  1.00  0.00     0.274 HD
ENDBRANCH  20  21
ENDBRANCH  19  20
ENDBRANCH   3  19
ENDBRANCH   2   3
ENDBRANCH   1   2
BRANCH   1  25
HETATM   25  C12 UNL     1      31.229  -3.501   3.994  1.00  0.00     0.123 C 
BRANCH  25  26
HETATM   26  N7  UNL     1      29.999  -2.747   4.101  1.00  0.00    -0.375 N 
ATOM     27  H7  UNL     1      29.158  -3.257   4.370  1.00  0.00     0.161 HD
BRANCH  26  28
HETATM   28  C13 UNL     1      29.885  -1.503   3.888  1.00  0.00     0.129 A 
HETATM   29  N8  UNL     1      30.913  -0.677   3.629  1.00  0.00    -0.176 N 
HETATM   30  C14 UNL     1      30.739   0.660   3.410  1.00  0.00     0.678 A 
ATOM     31  H8  UNL     1      31.857  -1.062   3.595  1.00  0.00     0.186 HD
HETATM   32  N10 UNL     1      29.488   1.183   3.455  1.00  0.00    -0.186 N 
HETATM   33  C15 UNL     1      28.424   0.415   3.707  1.00  0.00     0.131 A 
ATOM     34  H10 UNL     1      29.358   2.181   3.292  1.00  0.00     0.184 HD
HETATM   35  C16 UNL     1      27.217   1.106   3.722  1.00  0.00     0.275 C 
HETATM   36  C20 UNL     1      28.630  -0.934   3.923  1.00  0.00     0.041 A 
HETATM   37  O2  UNL     1      27.248   2.199   3.108  1.00  0.00    -0.266 OA
HETATM   38  N11 UNL     1      26.068   0.726   4.308  1.00  0.00    -0.308 N 
HETATM   39  C17 UNL     1      25.644  -0.494   4.709  1.00  0.00     0.101 C 
ATOM     40  H11 UNL     1      25.407   1.484   4.479  1.00  0.00     0.170 HD
HETATM   41  C18 UNL     1      26.360  -1.667   4.631  1.00  0.00     0.049 C 
HETATM   42  C19 UNL     1      27.660  -1.883   4.198  1.00  0.00     0.021 C 
BRANCH  30  43
HETATM   43  N9  UNL     1      31.744   1.428   3.164  1.00  0.00    -0.234 N 
ATOM     44  H92 UNL     1      32.640   1.250   3.617  1.00  0.00     0.174 HD
ATOM     45  H91 UNL     1      31.658   2.215   2.520  1.00  0.00     0.174 HD
ENDBRANCH  30  43
BRANCH  39  46
HETATM   46  N12 UNL     1      24.438  -0.540   5.215  1.00  0.00    -0.385 N 
ATOM     47 2H12 UNL     1      24.154   0.207   5.848  1.00  0.00     0.157 HD
ATOM     48 1H12 UNL     1      23.867  -1.335   4.930  1.00  0.00     0.157 HD
ENDBRANCH  39  46
ENDBRANCH  26  28
ENDBRANCH  25  26
ENDBRANCH   1  25
TORSDOF 16
ENDMDL
MODEL 5
REMARK VINA RESULT: -5.928485659      2.625      6.698
REMARK  16 active torsions:
REMARK  status: ('A' for Active; 'I' for Inactive)
REMARK    1  A    between atoms: N1_2  and  C2_3 
REMARK    2  A    between atoms: N1_2  and  C6_12 
REMARK    3  A    between atoms: C2_3  and  C3_4 
REMARK    4  A    between atoms: C6_12  and  O1_13 
REMARK    5  A    between atoms: C6_12  and  C7_15 
REMARK    6  A    between atoms: C7_15  and  N5_16 
REMARK    7  A    between atoms: N5_16  and  C8_17 
REMARK    8  A    between atoms: N5_16  and  C10_23 
REMARK    9  A    between atoms: C8_17  and  C9_18 
REMARK   10  A    between atoms: C9_18  and  N6_19 
REMARK   11  A    between atoms: C10_23  and  C11_24 
REMARK   12  A    between atoms: C11_24  and  C12_25 
REMARK   13  A    between atoms: C12_25  and  N7_26 
REMARK   14  A    between atoms: N7_26  and  C13_28 
REMARK   15  A    between atoms: C14_31  and  N9_32 
REMARK   16  A    between atoms: C17_42  and  N12_43 
ROOT
HETATM    1  C11 UNL     1      28.186  -1.934   3.849  1.00  0.00     0.040 C 
ENDROOT
BRANCH   1   2
HETATM    2  C10 UNL     1      27.090  -2.943   4.026  1.00  0.00     0.129 C 
BRANCH   2   3
HETATM    3  N5  UNL     1      27.028  -3.893   2.975  1.00  0.00    -0.368 N 
BRANCH   3   4
HETATM    4  C7  UNL     1      27.624  -5.137   3.156  1.00  0.00     0.126 C 
BRANCH   4   5
HETATM    5  C6  UNL     1      28.727  -5.444   2.145  1.00  0.00     0.396 C 
BRANCH   5   6
HETATM    6  N1  UNL     1      29.959  -5.794   2.822  1.00  0.00     0.123 N 
HETATM    7  C1  UNL     1      30.954  -4.764   2.747  1.00  0.00     0.314 C 
BRANCH   6   8
HETATM    8  C2  UNL     1      29.761  -6.368   4.104  1.00  0.00     0.335 C 
BRANCH   8   9
HETATM    9  C3  UNL     1      30.067  -7.821   4.059  1.00  0.00     0.072 A 
HETATM   10  C4  UNL     1      30.187  -8.750   5.070  1.00  0.00     0.139 A 
HETATM   11  N2  UNL     1      30.475  -9.977   4.545  1.00  0.00    -0.292 N 
HETATM   12  C5  UNL     1      30.663 -11.170   5.324  1.00  0.00     0.178 C 
HETATM   13  N3  UNL     1      30.529  -9.807   3.246  1.00  0.00    -0.241 N 
HETATM   14  N4  UNL     1      30.294  -8.549   2.925  1.00  0.00    -0.287 N 
ATOM     15  H3  UNL     1      30.727 -10.548   2.573  1.00  0.00     0.208 HD
ATOM     16  H4  UNL     1      30.283  -8.177   1.975  1.00  0.00     0.188 HD
ENDBRANCH   8   9
ENDBRANCH   6   8
ENDBRANCH   5   6
BRANCH   5  17
HETATM   17  O1  UNL     1      28.408  -6.515   1.318  1.00  0.00    -0.364 OA
ATOM     18  H1  UNL     1      27.472  -6.470   1.162  1.00  0.00     0.212 HD
ENDBRANCH   5  17
ENDBRANCH   4   5
ENDBRANCH   3   4
BRANCH   3  19
HETATM   19  C8  UNL     1      25.850  -3.860   2.215  1.00  0.00     0.090 C 
BRANCH  19  20
HETATM   20  C9  UNL     1      24.623  -3.242   2.800  1.00  0.00     0.274 C 
BRANCH  20  21
HETATM   21  N6  UNL     1      23.386  -3.558   2.144  1.00  0.00    -0.075 N 
ATOM     22  H63 UNL     1      23.477  -3.402   1.140  1.00  0.00     0.274 HD
ATOM     23  H62 UNL     1      23.234  -4.566   2.159  1.00  0.00     0.274 HD
ATOM     24  H61 UNL     1      22.558  -3.077   2.496  1.00  0.00     0.274 HD
ENDBRANCH  20  21
ENDBRANCH  19  20
ENDBRANCH   3  19
ENDBRANCH   2   3
ENDBRANCH   1   2
BRANCH   1  25
HETATM   25  C12 UNL     1      27.676  -0.716   3.057  1.00  0.00     0.123 C 
BRANCH  25  26
HETATM   26  N7  UNL     1      28.581  -0.474   1.955  1.00  0.00    -0.375 N 
ATOM     27  H7  UNL     1      29.051   0.431   1.924  1.00  0.00     0.161 HD
BRANCH  26  28
HETATM   28  C13 UNL     1      28.837  -1.297   1.026  1.00  0.00     0.129 A 
HETATM   29  N8  UNL     1      27.909  -1.886   0.253  1.00  0.00    -0.176 N 
HETATM   30  C14 UNL     1      28.235  -2.772  -0.734  1.00  0.00     0.678 A 
ATOM     31  H8  UNL     1      26.925  -1.664   0.409  1.00  0.00     0.186 HD
HETATM   32  N10 UNL     1      29.540  -3.075  -0.949  1.00  0.00    -0.186 N 
HETATM   33  C15 UNL     1      30.511  -2.524  -0.215  1.00  0.00     0.131 A 
ATOM     34  H10 UNL     1      29.784  -3.737  -1.685  1.00  0.00     0.184 HD
HETATM   35  C16 UNL     1      31.791  -2.944  -0.559  1.00  0.00     0.275 C 
HETATM   36  C20 UNL     1      30.151  -1.631   0.776  1.00  0.00     0.041 A 
HETATM   37  O2  UNL     1      31.877  -3.417  -1.718  1.00  0.00    -0.266 OA
HETATM   38  N11 UNL     1      32.898  -2.893   0.202  1.00  0.00    -0.308 N 
HETATM   39  C17 UNL     1      33.183  -2.149   1.294  1.00  0.00     0.101 C 
ATOM     40  H11 UNL     1      33.647  -3.519  -0.094  1.00  0.00     0.170 HD
HETATM   41  C18 UNL     1      32.332  -1.263   1.915  1.00  0.00     0.049 C 
HETATM   42  C19 UNL     1      31.008  -0.961   1.634  1.00  0.00     0.021 C 
BRANCH  30  43
HETATM   43  N9  UNL     1      27.324  -3.321  -1.460  1.00  0.00    -0.234 N 
ATOM     44  H92 UNL     1      27.389  -3.272  -2.477  1.00  0.00     0.174 HD
ATOM     45  H91 UNL     1      26.535  -3.808  -1.034  1.00  0.00     0.174 HD
ENDBRANCH  30  43
BRANCH  39  46
HETATM   46  N12 UNL     1      34.384  -2.301   1.790  1.00  0.00    -0.385 N 
ATOM     47 2H12 UNL     1      35.180  -2.189   1.163  1.00  0.00     0.157 HD
ATOM     48 1H12 UNL     1      34.429  -2.524   2.784  1.00  0.00     0.157 HD
ENDBRANCH  39  46
ENDBRANCH  26  28
ENDBRANCH  25  26
ENDBRANCH   1  25
TORSDOF 16
ENDMDL
