MODEL 1
REMARK VINA RESULT: -6.758599688      0.000      0.000
REMARK  11 active torsions:
REMARK  status: ('A' for Active; 'I' for Inactive)
REMARK    1  A    between atoms: C2_2  and  C3_3 
REMARK    2  A    between atoms: C3_3  and  N1_4 
REMARK    3  A    between atoms: N1_4  and  C4_5 
REMARK    4  A    between atoms: N1_4  and  C14_31 
REMARK    5  A    between atoms: C4_5  and  C5_6 
REMARK    6  A    between atoms: C5_6  and  O1_7 
REMARK    7  A    between atoms: O1_7  and  C6_8 
REMARK    8  A    between atoms: C6_8  and  C7_9 
REMARK    9  A    between atoms: C7_9  and  N2_10 
REMARK       I    between atoms: N2_10  and  C8_12 
REMARK   10  A    between atoms: C8_12  and  C9_14 
REMARK   11  A    between atoms: C16_36  and  N10_37 
ROOT
HETATM    1  C7  UNL     1      30.806  -8.183   2.379  1.00  0.00     0.149 C 
ENDROOT
BRANCH   1   2
HETATM    2  C6  UNL     1      30.870  -8.237   3.868  1.00  0.00     0.187 C 
BRANCH   2   3
HETATM    3  O1  UNL     1      31.304  -7.135   4.459  1.00  0.00    -0.388 OA
BRANCH   3   4
HETATM    4  C5  UNL     1      30.654  -6.378   5.337  1.00  0.00     0.187 C 
BRANCH   4   5
HETATM    5  C4  UNL     1      30.361  -5.009   4.742  1.00  0.00     0.149 C 
BRANCH   5   6
HETATM    6  N1  UNL     1      29.127  -4.422   5.320  1.00  0.00    -0.372 N 
BRANCH   6   7
HETATM    7  C3  UNL     1      29.143  -4.285   6.742  1.00  0.00     0.123 C 
BRANCH   7   8
HETATM    8  C2  UNL     1      29.174  -2.927   7.344  1.00  0.00     0.015 C 
HETATM    9  C1  UNL     1      27.827  -2.440   7.731  1.00  0.00     0.006 C 
ENDBRANCH   7   8
ENDBRANCH   6   7
BRANCH   6  10
HETATM   10  C14 UNL     1      28.043  -4.169   4.464  1.00  0.00     0.141 A 
HETATM   11  C15 UNL     1      27.063  -5.167   4.309  1.00  0.00     0.164 A 
HETATM   12  N8  UNL     1      27.221  -6.421   4.956  1.00  0.00    -0.080 NA
HETATM   13  N9  UNL     1      25.992  -4.962   3.534  1.00  0.00    -0.177 N 
HETATM   14  C16 UNL     1      25.777  -3.821   2.862  1.00  0.00     0.680 A 
ATOM     15  H9  UNL     1      25.305  -5.711   3.449  1.00  0.00     0.185 HD
HETATM   16  N11 UNL     1      26.695  -2.856   2.994  1.00  0.00    -0.154 N 
HETATM   17  C17 UNL     1      27.810  -3.006   3.772  1.00  0.00     0.289 A 
ATOM     18  H11 UNL     1      26.558  -1.976   2.496  1.00  0.00     0.187 HD
HETATM   19  O5  UNL     1      28.634  -2.057   3.854  1.00  0.00    -0.265 OA
BRANCH  14  20
HETATM   20  N10 UNL     1      24.719  -3.662   2.116  1.00  0.00    -0.234 N 
ATOM     21 2H10 UNL     1      24.649  -4.084   1.190  1.00  0.00     0.174 HD
ATOM     22 1H10 UNL     1      23.923  -3.107   2.433  1.00  0.00     0.174 HD
ENDBRANCH  14  20
ENDBRANCH   6  10
ENDBRANCH   5   6
ENDBRANCH   4   5
ENDBRANCH   3   4
ENDBRANCH   2   3
ENDBRANCH   1   2
BRANCH   1  23
HETATM   23  N2  UNL     1      30.494  -6.900   1.862  1.00  0.00    -0.352 N 
HETATM   24  C8  UNL     1      29.206  -6.538   1.394  1.00  0.00     0.287 C 
HETATM   25  O2  UNL     1      28.291  -7.388   1.431  1.00  0.00    -0.264 OA
ATOM     26  H2  UNL     1      31.235  -6.200   1.824  1.00  0.00     0.162 HD
BRANCH  24  27
HETATM   27  C9  UNL     1      28.952  -5.209   0.880  1.00  0.00     0.191 A 
HETATM   28  N3  UNL     1      27.864  -4.969   0.130  1.00  0.00    -0.280 N 
HETATM   29  N4  UNL     1      27.608  -3.768  -0.347  1.00  0.00    -0.291 N 
ATOM     30  H3  UNL     1      27.221  -5.734  -0.074  1.00  0.00     0.188 HD
HETATM   31  C10 UNL     1      28.425  -2.713  -0.109  1.00  0.00     0.161 A 
ATOM     32  H4  UNL     1      26.771  -3.628  -0.913  1.00  0.00     0.187 HD
HETATM   33  C11 UNL     1      28.171  -1.458  -0.600  1.00  0.00     0.281 A 
HETATM   34  C13 UNL     1      29.564  -2.929   0.667  1.00  0.00     0.145 A 
HETATM   35  O3  UNL     1      27.148  -1.244  -1.303  1.00  0.00    -0.265 OA
HETATM   36  N5  UNL     1      29.048  -0.465  -0.308  1.00  0.00    -0.273 N 
HETATM   37  C12 UNL     1      30.148  -0.711   0.452  1.00  0.00     0.328 A 
ATOM     38  H5  UNL     1      28.879   0.477  -0.663  1.00  0.00     0.173 HD
HETATM   39  O4  UNL     1      30.958   0.223   0.719  1.00  0.00    -0.247 OA
HETATM   40  N6  UNL     1      30.418  -1.924   0.941  1.00  0.00    -0.292 N 
ATOM     41  H6  UNL     1      31.249  -2.085   1.509  1.00  0.00     0.172 HD
HETATM   42  N7  UNL     1      29.770  -4.167   1.123  1.00  0.00    -0.321 N 
ATOM     43  H7  UNL     1      30.601  -4.334   1.691  1.00  0.00     0.169 HD
ENDBRANCH  24  27
ENDBRANCH   1  23
TORSDOF 11
ENDMDL
MODEL 2
REMARK VINA RESULT: -6.597062996      2.228      3.176
REMARK  11 active torsions:
REMARK  status: ('A' for Active; 'I' for Inactive)
REMARK    1  A    between atoms: C2_2  and  C3_3 
REMARK    2  A    between atoms: C3_3  and  N1_4 
REMARK    3  A    between atoms: N1_4  and  C4_5 
REMARK    4  A    between atoms: N1_4  and  C14_31 
REMARK    5  A    between atoms: C4_5  and  C5_6 
REMARK    6  A    between atoms: C5_6  and  O1_7 
REMARK    7  A    between atoms: O1_7  and  C6_8 
REMARK    8  A    between atoms: C6_8  and  C7_9 
REMARK    9  A    between atoms: C7_9  and  N2_10 
REMARK       I    between atoms: N2_10  and  C8_12 
REMARK   10  A    between atoms: C8_12  and  C9_14 
REMARK   11  A    between atoms: C16_36  and  N10_37 
ROOT
HETATM    1  C7  UNL     1      32.944  -8.369   1.024  1.00  0.00     0.149 C 
ENDROOT
BRANCH   1   2
HETATM    2  C6  UNL     1      33.013  -8.664   2.484  1.00  0.00     0.187 C 
BRANCH   2   3
HETATM    3  O1  UNL     1      32.025  -8.167   3.212  1.00  0.00    -0.388 OA
BRANCH   3   4
HETATM    4  C5  UNL     1      32.123  -7.386   4.283  1.00  0.00     0.187 C 
BRANCH   4   5
HETATM    5  C4  UNL     1      31.495  -6.029   4.010  1.00  0.00     0.149 C 
BRANCH   5   6
HETATM    6  N1  UNL     1      30.014  -6.113   3.990  1.00  0.00    -0.372 N 
BRANCH   6   7
HETATM    7  C3  UNL     1      29.438  -6.724   5.147  1.00  0.00     0.123 C 
BRANCH   7   8
HETATM    8  C2  UNL     1      29.347  -5.950   6.411  1.00  0.00     0.015 C 
HETATM    9  C1  UNL     1      29.576  -6.787   7.614  1.00  0.00     0.006 C 
ENDBRANCH   7   8
ENDBRANCH   6   7
BRANCH   6  10
HETATM   10  C14 UNL     1      29.336  -5.706   2.829  1.00  0.00     0.141 A 
HETATM   11  C15 UNL     1      28.978  -4.350   2.703  1.00  0.00     0.164 A 
HETATM   12  N8  UNL     1      29.243  -3.446   3.765  1.00  0.00    -0.080 NA
HETATM   13  N9  UNL     1      28.364  -3.904   1.602  1.00  0.00    -0.177 N 
HETATM   14  C16 UNL     1      28.049  -4.692   0.564  1.00  0.00     0.680 A 
ATOM     15  H9  UNL     1      28.122  -2.915   1.550  1.00  0.00     0.185 HD
HETATM   16  N11 UNL     1      28.379  -5.986   0.660  1.00  0.00    -0.154 N 
HETATM   17  C17 UNL     1      29.008  -6.501   1.760  1.00  0.00     0.289 A 
ATOM     18  H11 UNL     1      28.153  -6.610  -0.115  1.00  0.00     0.187 HD
HETATM   19  O5  UNL     1      29.294  -7.728   1.786  1.00  0.00    -0.265 OA
BRANCH  14  20
HETATM   20  N10 UNL     1      27.448  -4.216  -0.492  1.00  0.00    -0.234 N 
ATOM     21 2H10 UNL     1      27.011  -3.294  -0.489  1.00  0.00     0.174 HD
ATOM     22 1H10 UNL     1      27.393  -4.751  -1.359  1.00  0.00     0.174 HD
ENDBRANCH  14  20
ENDBRANCH   6  10
ENDBRANCH   5   6
ENDBRANCH   4   5
ENDBRANCH   3   4
ENDBRANCH   2   3
ENDBRANCH   1   2
BRANCH   1  23
HETATM   23  N2  UNL     1      32.283  -7.154   0.712  1.00  0.00    -0.352 N 
HETATM   24  C8  UNL     1      32.958  -5.918   0.543  1.00  0.00     0.287 C 
HETATM   25  O2  UNL     1      34.200  -5.887   0.678  1.00  0.00    -0.264 OA
ATOM     26  H2  UNL     1      31.269  -7.169   0.604  1.00  0.00     0.162 HD
BRANCH  24  27
HETATM   27  C9  UNL     1      32.224  -4.712   0.223  1.00  0.00     0.191 A 
HETATM   28  N3  UNL     1      31.459  -4.656  -0.879  1.00  0.00    -0.280 N 
HETATM   29  N4  UNL     1      30.780  -3.572  -1.192  1.00  0.00    -0.291 N 
ATOM     30  H3  UNL     1      31.404  -5.473  -1.488  1.00  0.00     0.188 HD
HETATM   31  C10 UNL     1      30.815  -2.458  -0.421  1.00  0.00     0.161 A 
ATOM     32  H4  UNL     1      30.210  -3.572  -2.038  1.00  0.00     0.187 HD
HETATM   33  C11 UNL     1      30.113  -1.322  -0.734  1.00  0.00     0.281 A 
HETATM   34  C13 UNL     1      31.600  -2.483   0.732  1.00  0.00     0.145 A 
HETATM   35  O3  UNL     1      29.399  -1.281  -1.771  1.00  0.00    -0.265 OA
HETATM   36  N5  UNL     1      30.212  -0.256   0.098  1.00  0.00    -0.273 N 
HETATM   37  C12 UNL     1      30.987  -0.316   1.214  1.00  0.00     0.328 A 
ATOM     38  H5  UNL     1      29.698   0.600  -0.115  1.00  0.00     0.173 HD
HETATM   39  O4  UNL     1      31.070   0.684   1.984  1.00  0.00    -0.247 OA
HETATM   40  N6  UNL     1      31.680  -1.409   1.541  1.00  0.00    -0.292 N 
ATOM     41  H6  UNL     1      32.255  -1.431   2.383  1.00  0.00     0.172 HD
HETATM   42  N7  UNL     1      32.266  -3.609   0.996  1.00  0.00    -0.321 N 
ATOM     43  H7  UNL     1      32.843  -3.637   1.837  1.00  0.00     0.169 HD
ENDBRANCH  24  27
ENDBRANCH   1  23
TORSDOF 11
ENDMDL
MODEL 3
REMARK VINA RESULT: -6.473693555      2.134      3.075
REMARK  11 active torsions:
REMARK  status: ('A' for Active; 'I' for Inactive)
REMARK    1  A    between atoms: C2_2  and  C3_3 
REMARK    2  A    between atoms: C3_3  and  N1_4 
REMARK    3  A    between atoms: N1_4  and  C4_5 
REMARK    4  A    between atoms: N1_4  and  C14_31 
REMARK    5  A    between atoms: C4_5  and  C5_6 
REMARK    6  A    between atoms: C5_6  and  O1_7 
REMARK    7  A    between atoms: O1_7  and  C6_8 
REMARK    8  A    between atoms: C6_8  and  C7_9 
REMARK    9  A    between atoms: C7_9  and  N2_10 
REMARK       I    between atoms: N2_10  and  C8_12 
REMARK   10  A    between atoms: C8_12  and  C9_14 
REMARK   11  A    between atoms: C16_36  and  N10_37 
ROOT
HETATM    1  C7  UNL     1      29.279  -6.846   4.818  1.00  0.00     0.149 C 
ENDROOT
BRANCH   1   2
HETATM    2  C6  UNL     1      28.692  -6.245   6.050  1.00  0.00     0.187 C 
BRANCH   2   3
HETATM    3  O1  UNL     1      28.084  -5.081   5.881  1.00  0.00    -0.388 OA
BRANCH   3   4
HETATM    4  C5  UNL     1      28.632  -3.869   5.916  1.00  0.00     0.187 C 
BRANCH   4   5
HETATM    5  C4  UNL     1      27.557  -2.799   5.802  1.00  0.00     0.149 C 
BRANCH   5   6
HETATM    6  N1  UNL     1      27.345  -2.395   4.390  1.00  0.00    -0.372 N 
BRANCH   6   7
HETATM    7  C3  UNL     1      28.484  -1.800   3.764  1.00  0.00     0.123 C 
BRANCH   7   8
HETATM    8  C2  UNL     1      28.346  -0.475   3.107  1.00  0.00     0.015 C 
HETATM    9  C1  UNL     1      28.439   0.653   4.066  1.00  0.00     0.006 C 
ENDBRANCH   7   8
ENDBRANCH   6   7
BRANCH   6  10
HETATM   10  C14 UNL     1      26.057  -2.521   3.845  1.00  0.00     0.141 A 
HETATM   11  C15 UNL     1      25.771  -3.652   3.056  1.00  0.00     0.164 A 
HETATM   12  N8  UNL     1      26.794  -4.594   2.772  1.00  0.00    -0.080 NA
HETATM   13  N9  UNL     1      24.550  -3.838   2.544  1.00  0.00    -0.177 N 
HETATM   14  C16 UNL     1      23.533  -2.985   2.736  1.00  0.00     0.680 A 
ATOM     15  H9  UNL     1      24.384  -4.670   1.978  1.00  0.00     0.185 HD
HETATM   16  N11 UNL     1      23.780  -1.902   3.483  1.00  0.00    -0.154 N 
HETATM   17  C17 UNL     1      25.007  -1.657   4.035  1.00  0.00     0.289 A 
ATOM     18  H11 UNL     1      23.025  -1.236   3.647  1.00  0.00     0.187 HD
HETATM   19  O5  UNL     1      25.173  -0.620   4.730  1.00  0.00    -0.265 OA
BRANCH  14  20
HETATM   20  N10 UNL     1      22.356  -3.204   2.217  1.00  0.00    -0.234 N 
ATOM     21 2H10 UNL     1      21.547  -3.421   2.799  1.00  0.00     0.174 HD
ATOM     22 1H10 UNL     1      22.204  -3.167   1.209  1.00  0.00     0.174 HD
ENDBRANCH  14  20
ENDBRANCH   6  10
ENDBRANCH   5   6
ENDBRANCH   4   5
ENDBRANCH   3   4
ENDBRANCH   2   3
ENDBRANCH   1   2
BRANCH   1  23
HETATM   23  N2  UNL     1      29.454  -5.924   3.754  1.00  0.00    -0.352 N 
HETATM   24  C8  UNL     1      30.009  -6.277   2.499  1.00  0.00     0.287 C 
HETATM   25  O2  UNL     1      30.371  -7.458   2.310  1.00  0.00    -0.264 OA
ATOM     26  H2  UNL     1      29.165  -4.957   3.900  1.00  0.00     0.162 HD
BRANCH  24  27
HETATM   27  C9  UNL     1      30.159  -5.288   1.452  1.00  0.00     0.191 A 
HETATM   28  N3  UNL     1      31.223  -5.322   0.634  1.00  0.00    -0.280 N 
HETATM   29  N4  UNL     1      31.381  -4.436  -0.327  1.00  0.00    -0.291 N 
ATOM     30  H3  UNL     1      31.926  -6.051   0.762  1.00  0.00     0.188 HD
HETATM   31  C10 UNL     1      30.482  -3.446  -0.545  1.00  0.00     0.161 A 
ATOM     32  H4  UNL     1      32.205  -4.498  -0.927  1.00  0.00     0.187 HD
HETATM   33  C11 UNL     1      30.634  -2.517  -1.542  1.00  0.00     0.281 A 
HETATM   34  C13 UNL     1      29.363  -3.383   0.287  1.00  0.00     0.145 A 
HETATM   35  O3  UNL     1      31.637  -2.558  -2.303  1.00  0.00    -0.265 OA
HETATM   36  N5  UNL     1      29.680  -1.562  -1.681  1.00  0.00    -0.273 N 
HETATM   37  C12 UNL     1      28.603  -1.531  -0.852  1.00  0.00     0.328 A 
ATOM     38  H5  UNL     1      29.772  -0.861  -2.416  1.00  0.00     0.173 HD
HETATM   39  O4  UNL     1      27.719  -0.637  -0.992  1.00  0.00    -0.247 OA
HETATM   40  N6  UNL     1      28.432  -2.423   0.126  1.00  0.00    -0.292 N 
ATOM     41  H6  UNL     1      27.616  -2.380   0.736  1.00  0.00     0.172 HD
HETATM   42  N7  UNL     1      29.258  -4.307   1.244  1.00  0.00    -0.321 N 
ATOM     43  H7  UNL     1      28.444  -4.269   1.858  1.00  0.00     0.169 HD
ENDBRANCH  24  27
ENDBRANCH   1  23
TORSDOF 11
ENDMDL
MODEL 4
REMARK VINA RESULT: -6.435348396      3.864      7.127
REMARK  11 active torsions:
REMARK  status: ('A' for Active; 'I' for Inactive)
REMARK    1  A    between atoms: C2_2  and  C3_3 
REMARK    2  A    between atoms: C3_3  and  N1_4 
REMARK    3  A    between atoms: N1_4  and  C4_5 
REMARK    4  A    between atoms: N1_4  and  C14_31 
REMARK    5  A    between atoms: C4_5  and  C5_6 
REMARK    6  A    between atoms: C5_6  and  O1_7 
REMARK    7  A    between atoms: O1_7  and  C6_8 
REMARK    8  A    between atoms: C6_8  and  C7_9 
REMARK    9  A    between atoms: C7_9  and  N2_10 
REMARK       I    between atoms: N2_10  and  C8_12 
REMARK   10  A    between atoms: C8_12  and  C9_14 
REMARK   11  A    between atoms: C16_36  and  N10_37 
ROOT
HETATM    1  C7  UNL     1      34.258  -0.018   3.843  1.00  0.00     0.149 C 
ENDROOT
BRANCH   1   2
HETATM    2  C6  UNL     1      35.470   0.067   2.977  1.00  0.00     0.187 C 
BRANCH   2   3
HETATM    3  O1  UNL     1      35.342  -0.455   1.767  1.00  0.00    -0.388 OA
BRANCH   3   4
HETATM    4  C5  UNL     1      36.010  -1.485   1.256  1.00  0.00     0.187 C 
BRANCH   4   5
HETATM    5  C4  UNL     1      35.090  -2.686   1.094  1.00  0.00     0.149 C 
BRANCH   5   6
HETATM    6  N1  UNL     1      34.678  -2.863  -0.320  1.00  0.00    -0.372 N 
BRANCH   6   7
HETATM    7  C3  UNL     1      35.674  -2.502  -1.279  1.00  0.00     0.123 C 
BRANCH   7   8
HETATM    8  C2  UNL     1      36.553  -3.556  -1.850  1.00  0.00     0.015 C 
HETATM    9  C1  UNL     1      37.704  -2.998  -2.601  1.00  0.00     0.006 C 
ENDBRANCH   7   8
ENDBRANCH   6   7
BRANCH   6  10
HETATM   10  C14 UNL     1      33.354  -3.246  -0.588  1.00  0.00     0.141 A 
HETATM   11  C15 UNL     1      33.017  -4.610  -0.488  1.00  0.00     0.164 A 
HETATM   12  N8  UNL     1      34.023  -5.567  -0.192  1.00  0.00    -0.080 NA
HETATM   13  N9  UNL     1      31.762  -5.022  -0.697  1.00  0.00    -0.177 N 
HETATM   14  C16 UNL     1      30.757  -4.192  -1.011  1.00  0.00     0.680 A 
ATOM     15  H9  UNL     1      31.560  -6.018  -0.615  1.00  0.00     0.185 HD
HETATM   16  N11 UNL     1      31.052  -2.890  -1.111  1.00  0.00    -0.154 N 
HETATM   17  C17 UNL     1      32.315  -2.407  -0.908  1.00  0.00     0.289 A 
ATOM     18  H11 UNL     1      30.307  -2.234  -1.347  1.00  0.00     0.187 HD
HETATM   19  O5  UNL     1      32.525  -1.170  -1.015  1.00  0.00    -0.265 OA
BRANCH  14  20
HETATM   20  N10 UNL     1      29.546  -4.637  -1.208  1.00  0.00    -0.234 N 
ATOM     21 2H10 UNL     1      29.135  -5.352  -0.608  1.00  0.00     0.174 HD
ATOM     22 1H10 UNL     1      28.968  -4.283  -1.970  1.00  0.00     0.174 HD
ENDBRANCH  14  20
ENDBRANCH   6  10
ENDBRANCH   5   6
ENDBRANCH   4   5
ENDBRANCH   3   4
ENDBRANCH   2   3
ENDBRANCH   1   2
BRANCH   1  23
HETATM   23  N2  UNL     1      33.112  -0.525   3.180  1.00  0.00    -0.352 N 
HETATM   24  C8  UNL     1      32.041   0.291   2.735  1.00  0.00     0.287 C 
HETATM   25  O2  UNL     1      32.100   1.523   2.935  1.00  0.00    -0.264 OA
ATOM     26  H2  UNL     1      33.053  -1.530   3.016  1.00  0.00     0.162 HD
BRANCH  24  27
HETATM   27  C9  UNL     1      30.899  -0.289   2.062  1.00  0.00     0.191 A 
HETATM   28  N3  UNL     1      30.540   0.141   0.842  1.00  0.00    -0.280 N 
HETATM   29  N4  UNL     1      29.507  -0.372   0.207  1.00  0.00    -0.291 N 
ATOM     30  H3  UNL     1      31.082   0.882   0.397  1.00  0.00     0.188 HD
HETATM   31  C10 UNL     1      28.751  -1.358   0.748  1.00  0.00     0.161 A 
ATOM     32  H4  UNL     1      29.268  -0.017  -0.719  1.00  0.00     0.187 HD
HETATM   33  C11 UNL     1      27.672  -1.902   0.099  1.00  0.00     0.281 A 
HETATM   34  C13 UNL     1      29.097  -1.829   2.016  1.00  0.00     0.145 A 
HETATM   35  O3  UNL     1      27.345  -1.490  -1.046  1.00  0.00    -0.265 OA
HETATM   36  N5  UNL     1      26.976  -2.885   0.722  1.00  0.00    -0.273 N 
HETATM   37  C12 UNL     1      27.341  -3.319   1.958  1.00  0.00     0.328 A 
ATOM     38  H5  UNL     1      26.169  -3.304   0.258  1.00  0.00     0.173 HD
HETATM   39  O4  UNL     1      26.685  -4.237   2.528  1.00  0.00    -0.247 OA
HETATM   40  N6  UNL     1      28.387  -2.806   2.610  1.00  0.00    -0.292 N 
ATOM     41  H6  UNL     1      28.643  -3.147   3.537  1.00  0.00     0.172 HD
HETATM   42  N7  UNL     1      30.154  -1.270   2.609  1.00  0.00    -0.321 N 
ATOM     43  H7  UNL     1      30.414  -1.607   3.537  1.00  0.00     0.169 HD
ENDBRANCH  24  27
ENDBRANCH   1  23
TORSDOF 11
ENDMDL
MODEL 5
REMARK VINA RESULT: -6.406620399      2.848      6.363
REMARK  11 active torsions:
REMARK  status: ('A' for Active; 'I' for Inactive)
REMARK    1  A    between atoms: C2_2  and  C3_3 
REMARK    2  A    between atoms: C3_3  and  N1_4 
REMARK    3  A    between atoms: N1_4  and  C4_5 
REMARK    4  A    between atoms: N1_4  and  C14_31 
REMARK    5  A    between atoms: C4_5  and  C5_6 
REMARK    6  A    between atoms: C5_6  and  O1_7 
REMARK    7  A    between atoms: O1_7  and  C6_8 
REMARK    8  A    between atoms: C6_8  and  C7_9 
REMARK    9  A    between atoms: C7_9  and  N2_10 
REMARK       I    between atoms: N2_10  and  C8_12 
REMARK   10  A    between atoms: C8_12  and  C9_14 
REMARK   11  A    between atoms: C16_36  and  N10_37 
ROOT
HETATM    1  C7  UNL     1      31.862   0.864   3.405  1.00  0.00     0.149 C 
ENDROOT
BRANCH   1   2
HETATM    2  C6  UNL     1      33.258   0.421   3.122  1.00  0.00     0.187 C 
BRANCH   2   3
HETATM    3  O1  UNL     1      33.388  -0.451   2.134  1.00  0.00    -0.388 OA
BRANCH   3   4
HETATM    4  C5  UNL     1      33.984  -1.639   2.176  1.00  0.00     0.187 C 
BRANCH   4   5
HETATM    5  C4  UNL     1      32.959  -2.739   2.408  1.00  0.00     0.149 C 
BRANCH   5   6
HETATM    6  N1  UNL     1      32.709  -3.513   1.168  1.00  0.00    -0.372 N 
BRANCH   6   7
HETATM    7  C3  UNL     1      33.840  -4.241   0.683  1.00  0.00     0.123 C 
BRANCH   7   8
HETATM    8  C2  UNL     1      34.116  -4.274  -0.776  1.00  0.00     0.015 C 
HETATM    9  C1  UNL     1      35.237  -3.385  -1.168  1.00  0.00     0.006 C 
ENDBRANCH   7   8
ENDBRANCH   6   7
BRANCH   6  10
HETATM   10  C14 UNL     1      31.463  -3.379   0.535  1.00  0.00     0.141 A 
HETATM   11  C15 UNL     1      30.439  -4.285   0.873  1.00  0.00     0.164 A 
HETATM   12  N8  UNL     1      30.702  -5.344   1.780  1.00  0.00    -0.080 NA
HETATM   13  N9  UNL     1      29.223  -4.178   0.326  1.00  0.00    -0.177 N 
HETATM   14  C16 UNL     1      28.895  -3.228  -0.562  1.00  0.00     0.680 A 
ATOM     15  H9  UNL     1      28.509  -4.854   0.597  1.00  0.00     0.185 HD
HETATM   16  N11 UNL     1      29.852  -2.354  -0.899  1.00  0.00    -0.154 N 
HETATM   17  C17 UNL     1      31.114  -2.411  -0.374  1.00  0.00     0.289 A 
ATOM     18  H11 UNL     1      29.632  -1.619  -1.571  1.00  0.00     0.187 HD
HETATM   19  O5  UNL     1      31.968  -1.557  -0.731  1.00  0.00    -0.265 OA
BRANCH  14  20
HETATM   20  N10 UNL     1      27.696  -3.159  -1.072  1.00  0.00    -0.234 N 
ATOM     21 2H10 UNL     1      26.947  -2.646  -0.609  1.00  0.00     0.174 HD
ATOM     22 1H10 UNL     1      27.467  -3.620  -1.953  1.00  0.00     0.174 HD
ENDBRANCH  14  20
ENDBRANCH   6  10
ENDBRANCH   5   6
ENDBRANCH   4   5
ENDBRANCH   3   4
ENDBRANCH   2   3
ENDBRANCH   1   2
BRANCH   1  23
HETATM   23  N2  UNL     1      30.958  -0.200   3.651  1.00  0.00    -0.352 N 
HETATM   24  C8  UNL     1      30.004  -0.649   2.704  1.00  0.00     0.287 C 
HETATM   25  O2  UNL     1      29.945  -0.082   1.592  1.00  0.00    -0.264 OA
ATOM     26  H2  UNL     1      30.996  -0.667   4.557  1.00  0.00     0.162 HD
BRANCH  24  27
HETATM   27  C9  UNL     1      29.110  -1.744   3.017  1.00  0.00     0.191 A 
HETATM   28  N3  UNL     1      29.541  -2.783   3.750  1.00  0.00    -0.280 N 
HETATM   29  N4  UNL     1      28.747  -3.790   4.051  1.00  0.00    -0.291 N 
ATOM     30  H3  UNL     1      30.505  -2.792   4.082  1.00  0.00     0.188 HD
HETATM   31  C10 UNL     1      27.457  -3.833   3.638  1.00  0.00     0.161 A 
ATOM     32  H4  UNL     1      29.114  -4.560   4.610  1.00  0.00     0.187 HD
HETATM   33  C11 UNL     1      26.618  -4.875   3.943  1.00  0.00     0.281 A 
HETATM   34  C13 UNL     1      26.977  -2.768   2.874  1.00  0.00     0.145 A 
HETATM   35  O3  UNL     1      27.034  -5.845   4.632  1.00  0.00    -0.265 OA
HETATM   36  N5  UNL     1      25.343  -4.829   3.485  1.00  0.00    -0.273 N 
HETATM   37  C12 UNL     1      24.910  -3.775   2.743  1.00  0.00     0.328 A 
ATOM     38  H5  UNL     1      24.702  -5.593   3.700  1.00  0.00     0.173 HD
HETATM   39  O4  UNL     1      23.717  -3.743   2.322  1.00  0.00    -0.247 OA
HETATM   40  N6  UNL     1      25.705  -2.749   2.432  1.00  0.00    -0.292 N 
ATOM     41  H6  UNL     1      25.358  -1.969   1.874  1.00  0.00     0.172 HD
HETATM   42  N7  UNL     1      27.828  -1.777   2.602  1.00  0.00    -0.321 N 
ATOM     43  H7  UNL     1      27.487  -0.994   2.043  1.00  0.00     0.169 HD
ENDBRANCH  24  27
ENDBRANCH   1  23
TORSDOF 11
ENDMDL
