MODEL 1
REMARK VINA RESULT: -7.342442498      0.000      0.000
REMARK  2 active torsions:
REMARK  status: ('A' for Active; 'I' for Inactive)
REMARK    1  A    between atoms: C6_8  and  C7_9 
REMARK    2  A    between atoms: N2_10  and  O1_12 
ROOT
HETATM    1  C1  UNL     1      16.606 -56.156 -43.164  1.00  0.00     0.097 C 
HETATM    2  C2  UNL     1      16.374 -55.126 -42.111  1.00  0.00     0.113 C 
HETATM    3  N1  UNL     1      16.182 -53.908 -42.464  1.00  0.00    -0.365 N 
ATOM      4  H1  UNL     1      16.195 -53.696 -43.462  1.00  0.00     0.162 HD
HETATM    5  C3  UNL     1      15.947 -52.814 -41.548  1.00  0.00     0.037 C 
HETATM    6  C4  UNL     1      14.599 -52.161 -41.852  1.00  0.00     0.032 C 
HETATM    7  C5  UNL     1      14.903 -50.669 -41.889  1.00  0.00     0.012 C 
HETATM    8  C6  UNL     1      16.254 -50.645 -42.536  1.00  0.00     0.028 C 
HETATM    9  C8  UNL     1      16.992 -51.756 -41.850  1.00  0.00     0.041 C 
HETATM   10  C9  UNL     1      16.052 -53.239 -40.122  1.00  0.00     0.092 C 
HETATM   11  C10 UNL     1      15.586 -54.648 -39.909  1.00  0.00     0.145 C 
HETATM   12  C11 UNL     1      15.718 -55.040 -38.465  1.00  0.00     0.073 C 
HETATM   13  C12 UNL     1      14.327 -54.869 -37.921  1.00  0.00     0.053 C 
HETATM   14  C13 UNL     1      14.059 -55.775 -36.738  1.00  0.00     0.018 C 
HETATM   15  C14 UNL     1      13.486 -55.277 -39.074  1.00  0.00     0.076 C 
HETATM   16  N3  UNL     1      12.329 -55.891 -39.029  1.00  0.00    -0.389 N 
ATOM     17  H31 UNL     1      11.751 -56.171 -39.822  1.00  0.00     0.157 HD
ATOM     18  H32 UNL     1      11.815 -56.193 -38.201  1.00  0.00     0.157 HD
HETATM   19  N4  UNL     1      14.205 -54.856 -40.231  1.00  0.00    -0.348 N 
ATOM     20  H4  UNL     1      13.795 -54.723 -41.155  1.00  0.00     0.163 HD
HETATM   21  O2  UNL     1      16.367 -55.481 -40.761  1.00  0.00    -0.308 OA
ENDROOT
BRANCH   8  22
HETATM   22  C7  UNL     1      16.986 -49.382 -42.295  1.00  0.00     0.091 C 
HETATM   23  N2  UNL     1      16.463 -48.397 -41.671  1.00  0.00    -0.284 N 
ATOM     24  H2  UNL     1      15.507 -48.474 -41.324  1.00  0.00     0.192 HD
BRANCH  23  25
HETATM   25  O1  UNL     1      17.160 -47.246 -41.463  1.00  0.00    -0.291 OA
ATOM     26  H1  UNL     1      17.328 -46.638 -42.173  1.00  0.00     0.244 HD
ENDBRANCH  23  25
ENDBRANCH   8  22
TORSDOF 2
ENDMDL
MODEL 2
REMARK VINA RESULT: -7.236073693      3.907      6.663
REMARK  2 active torsions:
REMARK  status: ('A' for Active; 'I' for Inactive)
REMARK    1  A    between atoms: C6_8  and  C7_9 
REMARK    2  A    between atoms: N2_10  and  O1_12 
ROOT
HETATM    1  C1  UNL     1      18.140 -50.029 -46.458  1.00  0.00     0.097 C 
HETATM    2  C2  UNL     1      17.457 -51.118 -45.703  1.00  0.00     0.113 C 
HETATM    3  N1  UNL     1      17.795 -52.335 -45.924  1.00  0.00    -0.365 N 
ATOM      4  H1  UNL     1      18.527 -52.506 -46.614  1.00  0.00     0.162 HD
HETATM    5  C3  UNL     1      17.214 -53.483 -45.264  1.00  0.00     0.037 C 
HETATM    6  C4  UNL     1      18.301 -54.268 -44.532  1.00  0.00     0.032 C 
HETATM    7  C5  UNL     1      18.064 -55.715 -44.943  1.00  0.00     0.012 C 
HETATM    8  C6  UNL     1      17.659 -55.566 -46.378  1.00  0.00     0.028 C 
HETATM    9  C8  UNL     1      16.706 -54.407 -46.355  1.00  0.00     0.041 C 
HETATM   10  C9  UNL     1      16.093 -53.104 -44.355  1.00  0.00     0.092 C 
HETATM   11  C10 UNL     1      16.301 -51.765 -43.716  1.00  0.00     0.145 C 
HETATM   12  C11 UNL     1      15.147 -51.417 -42.821  1.00  0.00     0.073 C 
HETATM   13  C12 UNL     1      15.647 -51.760 -41.445  1.00  0.00     0.053 C 
HETATM   14  C13 UNL     1      14.975 -50.936 -40.368  1.00  0.00     0.018 C 
HETATM   15  C14 UNL     1      17.086 -51.403 -41.535  1.00  0.00     0.076 C 
HETATM   16  N3  UNL     1      17.841 -50.922 -40.578  1.00  0.00    -0.389 N 
ATOM     17  H31 UNL     1      18.829 -50.677 -40.640  1.00  0.00     0.157 HD
ATOM     18  H32 UNL     1      17.571 -50.711 -39.617  1.00  0.00     0.157 HD
HETATM   19  N4  UNL     1      17.462 -51.697 -42.878  1.00  0.00    -0.348 N 
ATOM     20  H4  UNL     1      18.420 -51.839 -43.196  1.00  0.00     0.163 HD
HETATM   21  O2  UNL     1      16.463 -50.818 -44.769  1.00  0.00    -0.308 OA
ENDROOT
BRANCH   8  22
HETATM   22  C7  UNL     1      16.940 -56.748 -46.900  1.00  0.00     0.091 C 
HETATM   23  N2  UNL     1      16.567 -57.710 -46.145  1.00  0.00    -0.284 N 
ATOM     24  H2  UNL     1      16.767 -57.670 -45.146  1.00  0.00     0.192 HD
BRANCH  23  25
HETATM   25  O1  UNL     1      15.906 -58.787 -46.653  1.00  0.00    -0.291 OA
ATOM     26  H1  UNL     1      15.032 -59.011 -46.356  1.00  0.00     0.244 HD
ENDBRANCH  23  25
ENDBRANCH   8  22
TORSDOF 2
ENDMDL
MODEL 3
REMARK VINA RESULT: -7.223345041      2.250      6.298
REMARK  2 active torsions:
REMARK  status: ('A' for Active; 'I' for Inactive)
REMARK    1  A    between atoms: C6_8  and  C7_9 
REMARK    2  A    between atoms: N2_10  and  O1_12 
ROOT
HETATM    1  C1  UNL     1      17.055 -53.109 -43.825  1.00  0.00     0.097 C 
HETATM    2  C2  UNL     1      16.041 -52.595 -42.862  1.00  0.00     0.113 C 
HETATM    3  N1  UNL     1      15.840 -53.236 -41.769  1.00  0.00    -0.365 N 
ATOM      4  H1  UNL     1      16.389 -54.080 -41.607  1.00  0.00     0.162 HD
HETATM    5  C3  UNL     1      14.888 -52.849 -40.751  1.00  0.00     0.037 C 
HETATM    6  C4  UNL     1      15.610 -52.625 -39.423  1.00  0.00     0.032 C 
HETATM    7  C5  UNL     1      14.777 -53.395 -38.407  1.00  0.00     0.012 C 
HETATM    8  C6  UNL     1      14.371 -54.605 -39.194  1.00  0.00     0.028 C 
HETATM    9  C8  UNL     1      13.976 -54.040 -40.526  1.00  0.00     0.041 C 
HETATM   10  C9  UNL     1      14.083 -51.660 -41.155  1.00  0.00     0.092 C 
HETATM   11  C10 UNL     1      14.861 -50.703 -42.007  1.00  0.00     0.145 C 
HETATM   12  C11 UNL     1      14.012 -49.529 -42.401  1.00  0.00     0.073 C 
HETATM   13  C12 UNL     1      14.421 -48.453 -41.434  1.00  0.00     0.053 C 
HETATM   14  C13 UNL     1      14.218 -47.064 -42.001  1.00  0.00     0.018 C 
HETATM   15  C14 UNL     1      15.871 -48.723 -41.259  1.00  0.00     0.076 C 
HETATM   16  N3  UNL     1      16.820 -47.840 -41.061  1.00  0.00    -0.389 N 
ATOM     17  H31 UNL     1      17.816 -48.026 -40.941  1.00  0.00     0.157 HD
ATOM     18  H32 UNL     1      16.725 -46.827 -40.996  1.00  0.00     0.157 HD
HETATM   19  N4  UNL     1      16.003 -50.139 -41.350  1.00  0.00    -0.348 N 
ATOM     20  H4  UNL     1      16.796 -50.674 -40.998  1.00  0.00     0.163 HD
HETATM   21  O2  UNL     1      15.321 -51.432 -43.142  1.00  0.00    -0.308 OA
ENDROOT
BRANCH   8  22
HETATM   22  C7  UNL     1      13.200 -55.300 -38.618  1.00  0.00     0.091 C 
HETATM   23  N2  UNL     1      12.473 -56.097 -39.302  1.00  0.00    -0.284 N 
ATOM     24  H2  UNL     1      12.700 -56.267 -40.282  1.00  0.00     0.192 HD
BRANCH  23  25
HETATM   25  O1  UNL     1      11.400 -56.725 -38.745  1.00  0.00    -0.291 OA
ATOM     26  H1  UNL     1      11.514 -57.412 -38.099  1.00  0.00     0.244 HD
ENDBRANCH  23  25
ENDBRANCH   8  22
TORSDOF 2
ENDMDL
MODEL 4
REMARK VINA RESULT: -7.132243599      2.602      4.039
REMARK  2 active torsions:
REMARK  status: ('A' for Active; 'I' for Inactive)
REMARK    1  A    between atoms: C6_8  and  C7_9 
REMARK    2  A    between atoms: N2_10  and  O1_12 
ROOT
HETATM    1  C1  UNL     1      12.100 -52.555 -37.770  1.00  0.00     0.097 C 
HETATM    2  C2  UNL     1      13.016 -52.319 -38.922  1.00  0.00     0.113 C 
HETATM    3  N1  UNL     1      13.467 -51.135 -39.125  1.00  0.00    -0.365 N 
ATOM      4  H1  UNL     1      13.176 -50.399 -38.481  1.00  0.00     0.162 HD
HETATM    5  C3  UNL     1      14.360 -50.769 -40.202  1.00  0.00     0.037 C 
HETATM    6  C4  UNL     1      15.650 -50.181 -39.631  1.00  0.00     0.032 C 
HETATM    7  C5  UNL     1      15.870 -48.905 -40.434  1.00  0.00     0.012 C 
HETATM    8  C6  UNL     1      14.469 -48.402 -40.604  1.00  0.00     0.028 C 
HETATM    9  C8  UNL     1      13.694 -49.636 -40.960  1.00  0.00     0.041 C 
HETATM   10  C9  UNL     1      14.629 -51.909 -41.125  1.00  0.00     0.092 C 
HETATM   11  C10 UNL     1      14.640 -53.230 -40.416  1.00  0.00     0.145 C 
HETATM   12  C11 UNL     1      14.901 -54.350 -41.381  1.00  0.00     0.073 C 
HETATM   13  C12 UNL     1      16.366 -54.639 -41.205  1.00  0.00     0.053 C 
HETATM   14  C13 UNL     1      16.714 -56.072 -41.547  1.00  0.00     0.018 C 
HETATM   15  C14 UNL     1      16.560 -54.403 -39.751  1.00  0.00     0.076 C 
HETATM   16  N3  UNL     1      17.383 -55.036 -38.952  1.00  0.00    -0.389 N 
ATOM     17  H31 UNL     1      17.516 -54.874 -37.953  1.00  0.00     0.157 HD
ATOM     18  H32 UNL     1      18.023 -55.795 -39.188  1.00  0.00     0.157 HD
HETATM   19  N4  UNL     1      15.665 -53.344 -39.421  1.00  0.00    -0.348 N 
ATOM     20  H4  UNL     1      15.743 -52.752 -38.594  1.00  0.00     0.163 HD
HETATM   21  O2  UNL     1      13.379 -53.368 -39.767  1.00  0.00    -0.308 OA
ENDROOT
BRANCH   8  22
HETATM   22  C7  UNL     1      14.336 -47.433 -41.714  1.00  0.00     0.091 C 
HETATM   23  N2  UNL     1      13.958 -47.781 -42.884  1.00  0.00    -0.284 N 
ATOM     24  H2  UNL     1      13.737 -48.760 -43.069  1.00  0.00     0.192 HD
BRANCH  23  25
HETATM   25  O1  UNL     1      13.844 -46.867 -43.887  1.00  0.00    -0.291 OA
ATOM     26  H1  UNL     1      14.612 -46.519 -44.323  1.00  0.00     0.244 HD
ENDBRANCH  23  25
ENDBRANCH   8  22
TORSDOF 2
ENDMDL
MODEL 5
REMARK VINA RESULT: -7.063594931      2.530      6.534
REMARK  2 active torsions:
REMARK  status: ('A' for Active; 'I' for Inactive)
REMARK    1  A    between atoms: C6_8  and  C7_9 
REMARK    2  A    between atoms: N2_10  and  O1_12 
ROOT
HETATM    1  C1  UNL     1      13.063 -50.457 -41.812  1.00  0.00     0.097 C 
HETATM    2  C2  UNL     1      14.430 -51.048 -41.870  1.00  0.00     0.113 C 
HETATM    3  N1  UNL     1      14.651 -52.163 -41.276  1.00  0.00    -0.365 N 
ATOM      4  H1  UNL     1      13.871 -52.602 -40.785  1.00  0.00     0.162 HD
HETATM    5  C3  UNL     1      15.927 -52.844 -41.253  1.00  0.00     0.037 C 
HETATM    6  C4  UNL     1      15.783 -54.238 -41.862  1.00  0.00     0.032 C 
HETATM    7  C5  UNL     1      16.471 -55.159 -40.863  1.00  0.00     0.012 C 
HETATM    8  C6  UNL     1      16.087 -54.537 -39.555  1.00  0.00     0.028 C 
HETATM    9  C8  UNL     1      16.279 -53.069 -39.795  1.00  0.00     0.041 C 
HETATM   10  C9  UNL     1      17.001 -52.053 -41.920  1.00  0.00     0.092 C 
HETATM   11  C10 UNL     1      16.485 -51.242 -43.070  1.00  0.00     0.145 C 
HETATM   12  C11 UNL     1      17.594 -50.453 -43.705  1.00  0.00     0.073 C 
HETATM   13  C12 UNL     1      17.971 -51.272 -44.908  1.00  0.00     0.053 C 
HETATM   14  C13 UNL     1      18.563 -50.427 -46.015  1.00  0.00     0.018 C 
HETATM   15  C14 UNL     1      16.660 -51.824 -45.336  1.00  0.00     0.076 C 
HETATM   16  N3  UNL     1      16.270 -52.069 -46.563  1.00  0.00    -0.389 N 
ATOM     17  H31 UNL     1      15.370 -52.448 -46.857  1.00  0.00     0.157 HD
ATOM     18  H32 UNL     1      16.794 -51.922 -47.425  1.00  0.00     0.157 HD
HETATM   19  N4  UNL     1      15.928 -52.029 -44.131  1.00  0.00    -0.348 N 
ATOM     20  H4  UNL     1      15.122 -52.647 -44.037  1.00  0.00     0.163 HD
HETATM   21  O2  UNL     1      15.455 -50.399 -42.560  1.00  0.00    -0.308 OA
ENDROOT
BRANCH   8  22
HETATM   22  C7  UNL     1      16.971 -54.946 -38.442  1.00  0.00     0.091 C 
HETATM   23  N2  UNL     1      17.002 -56.143 -37.997  1.00  0.00    -0.284 N 
ATOM     24  H2  UNL     1      16.399 -56.850 -38.417  1.00  0.00     0.192 HD
BRANCH  23  25
HETATM   25  O1  UNL     1      17.827 -56.491 -36.970  1.00  0.00    -0.291 OA
ATOM     26  H1  UNL     1      17.490 -56.616 -36.091  1.00  0.00     0.244 HD
ENDBRANCH  23  25
ENDBRANCH   8  22
TORSDOF 2
ENDMDL
