MODEL 1
REMARK VINA RESULT: -6.227762438      0.000      0.000
REMARK  1 active torsions:
REMARK  status: ('A' for Active; 'I' for Inactive)
REMARK    1  A    between atoms: C2_2  and  N1_5 
ROOT
HETATM    1  N1  UNL     1      16.188 -53.072 -41.299  1.00  0.00    -0.305 N 
HETATM    2  N2  UNL     1      16.538 -53.367 -42.657  1.00  0.00    -0.279 N 
ATOM      3  H2  UNL     1      16.740 -54.337 -42.897  1.00  0.00     0.189 HD
HETATM    4  C5  UNL     1      16.612 -52.502 -43.577  1.00  0.00     0.184 C 
HETATM    5  S1  UNL     1      17.020 -52.530 -45.359  1.00  0.00    -0.014 SA
HETATM    6  C6  UNL     1      17.600 -50.799 -45.303  1.00  0.00     0.160 C 
HETATM    7  N3  UNL     1      18.470 -50.327 -46.101  1.00  0.00    -0.378 N 
ATOM      8  H31 UNL     1      18.793 -49.360 -46.070  1.00  0.00     0.158 HD
ATOM      9  H32 UNL     1      19.009 -50.712 -46.877  1.00  0.00     0.158 HD
HETATM   10  N4  UNL     1      16.857 -50.267 -44.232  1.00  0.00    -0.275 N 
ATOM     11  H4  UNL     1      16.710 -49.262 -44.133  1.00  0.00     0.189 HD
HETATM   12  N5  UNL     1      16.342 -51.153 -43.334  1.00  0.00    -0.256 N 
HETATM   13  C7  UNL     1      15.506 -50.914 -42.144  1.00  0.00     0.075 C 
HETATM   14  C8  UNL     1      15.451 -49.429 -41.837  1.00  0.00     0.043 C 
HETATM   15  C9  UNL     1      14.100 -51.364 -42.394  1.00  0.00     0.043 C 
HETATM   16  C10 UNL     1      16.095 -51.692 -40.994  1.00  0.00     0.068 C 
HETATM   17  C11 UNL     1      15.365 -51.225 -39.809  1.00  0.00     0.042 C 
HETATM   18  C12 UNL     1      17.574 -51.202 -40.944  1.00  0.00     0.042 C 
ENDROOT
BRANCH   1  19
HETATM   19  C2  UNL     1      16.031 -54.233 -40.502  1.00  0.00     0.038 C 
HETATM   20  C1  UNL     1      16.650 -54.219 -39.148  1.00  0.00     0.039 C 
HETATM   21  C3  UNL     1      14.560 -54.536 -40.341  1.00  0.00     0.039 C 
HETATM   22  C4  UNL     1      16.607 -55.506 -41.163  1.00  0.00     0.039 C 
ENDBRANCH   1  19
TORSDOF 1
ENDMDL
MODEL 2
REMARK VINA RESULT: -6.010455526      3.820      5.883
REMARK  1 active torsions:
REMARK  status: ('A' for Active; 'I' for Inactive)
REMARK    1  A    between atoms: C2_2  and  N1_5 
ROOT
HETATM    1  N1  UNL     1      14.697 -52.448 -39.515  1.00  0.00    -0.305 N 
HETATM    2  N2  UNL     1      14.421 -53.385 -38.466  1.00  0.00    -0.279 N 
ATOM      3  H2  UNL     1      13.832 -53.075 -37.693  1.00  0.00     0.189 HD
HETATM    4  C5  UNL     1      14.860 -54.570 -38.437  1.00  0.00     0.184 C 
HETATM    5  S1  UNL     1      14.713 -55.984 -37.286  1.00  0.00    -0.014 SA
HETATM    6  C6  UNL     1      16.321 -56.656 -37.830  1.00  0.00     0.160 C 
HETATM    7  N3  UNL     1      17.061 -57.383 -37.093  1.00  0.00    -0.378 N 
ATOM      8  H31 UNL     1      17.959 -57.758 -37.397  1.00  0.00     0.158 HD
ATOM      9  H32 UNL     1      16.985 -57.742 -36.141  1.00  0.00     0.158 HD
HETATM   10  N4  UNL     1      16.426 -56.161 -39.143  1.00  0.00    -0.275 N 
ATOM     11  H4  UNL     1      17.045 -56.596 -39.829  1.00  0.00     0.189 HD
HETATM   12  N5  UNL     1      15.665 -55.076 -39.460  1.00  0.00    -0.256 N 
HETATM   13  C7  UNL     1      15.532 -54.357 -40.739  1.00  0.00     0.075 C 
HETATM   14  C8  UNL     1      16.593 -54.828 -41.715  1.00  0.00     0.043 C 
HETATM   15  C9  UNL     1      14.202 -54.643 -41.363  1.00  0.00     0.043 C 
HETATM   16  C10 UNL     1      15.659 -52.879 -40.460  1.00  0.00     0.068 C 
HETATM   17  C11 UNL     1      15.754 -52.252 -41.784  1.00  0.00     0.042 C 
HETATM   18  C12 UNL     1      17.021 -52.766 -39.711  1.00  0.00     0.042 C 
ENDROOT
BRANCH   1  19
HETATM   19  C2  UNL     1      13.967 -51.240 -39.387  1.00  0.00     0.038 C 
HETATM   20  C1  UNL     1      13.086 -50.853 -40.523  1.00  0.00     0.039 C 
HETATM   21  C3  UNL     1      13.122 -51.294 -38.136  1.00  0.00     0.039 C 
HETATM   22  C4  UNL     1      14.871 -50.003 -39.177  1.00  0.00     0.039 C 
ENDBRANCH   1  19
TORSDOF 1
ENDMDL
MODEL 3
REMARK VINA RESULT: -5.862137366      2.379      2.978
REMARK  1 active torsions:
REMARK  status: ('A' for Active; 'I' for Inactive)
REMARK    1  A    between atoms: C2_2  and  N1_5 
ROOT
HETATM    1  N1  UNL     1      15.372 -54.282 -39.325  1.00  0.00    -0.305 N 
HETATM    2  N2  UNL     1      15.724 -55.277 -40.295  1.00  0.00    -0.279 N 
ATOM      3  H2  UNL     1      15.773 -56.248 -39.986  1.00  0.00     0.189 HD
HETATM    4  C5  UNL     1      15.979 -55.028 -41.508  1.00  0.00     0.184 C 
HETATM    5  S1  UNL     1      16.453 -56.022 -42.968  1.00  0.00    -0.014 SA
HETATM    6  C6  UNL     1      17.309 -54.596 -43.722  1.00  0.00     0.160 C 
HETATM    7  N3  UNL     1      18.278 -54.714 -44.537  1.00  0.00    -0.378 N 
ATOM      8  H31 UNL     1      18.756 -53.918 -44.959  1.00  0.00     0.158 HD
ATOM      9  H32 UNL     1      18.778 -55.507 -44.941  1.00  0.00     0.158 HD
HETATM   10  N4  UNL     1      16.620 -53.503 -43.166  1.00  0.00    -0.275 N 
ATOM     11  H4  UNL     1      16.638 -52.582 -43.605  1.00  0.00     0.189 HD
HETATM   12  N5  UNL     1      15.927 -53.727 -42.014  1.00  0.00    -0.256 N 
HETATM   13  C7  UNL     1      15.093 -52.808 -41.219  1.00  0.00     0.075 C 
HETATM   14  C8  UNL     1      15.273 -51.385 -41.711  1.00  0.00     0.043 C 
HETATM   15  C9  UNL     1      13.644 -53.149 -41.377  1.00  0.00     0.043 C 
HETATM   16  C10 UNL     1      15.496 -52.944 -39.771  1.00  0.00     0.068 C 
HETATM   17  C11 UNL     1      14.804 -51.848 -39.083  1.00  0.00     0.042 C 
HETATM   18  C12 UNL     1      17.032 -52.682 -39.795  1.00  0.00     0.042 C 
ENDROOT
BRANCH   1  19
HETATM   19  C2  UNL     1      14.990 -54.835 -38.077  1.00  0.00     0.038 C 
HETATM   20  C1  UNL     1      15.151 -53.975 -36.873  1.00  0.00     0.039 C 
HETATM   21  C3  UNL     1      13.548 -55.281 -38.145  1.00  0.00     0.039 C 
HETATM   22  C4  UNL     1      15.765 -56.125 -37.721  1.00  0.00     0.039 C 
ENDBRANCH   1  19
TORSDOF 1
ENDMDL
MODEL 4
REMARK VINA RESULT: -5.820994786      2.112      4.335
REMARK  1 active torsions:
REMARK  status: ('A' for Active; 'I' for Inactive)
REMARK    1  A    between atoms: C2_2  and  N1_5 
ROOT
HETATM    1  N1  UNL     1      15.100 -51.670 -41.332  1.00  0.00    -0.305 N 
HETATM    2  N2  UNL     1      15.845 -52.082 -42.485  1.00  0.00    -0.279 N 
ATOM      3  H2  UNL     1      15.987 -51.400 -43.230  1.00  0.00     0.189 HD
HETATM    4  C5  UNL     1      16.337 -53.237 -42.639  1.00  0.00     0.184 C 
HETATM    5  S1  UNL     1      17.307 -54.075 -43.944  1.00  0.00    -0.014 SA
HETATM    6  C6  UNL     1      16.655 -55.707 -43.448  1.00  0.00     0.160 C 
HETATM    7  N3  UNL     1      16.550 -56.691 -44.247  1.00  0.00    -0.378 N 
ATOM      8  H31 UNL     1      16.187 -57.602 -43.970  1.00  0.00     0.158 HD
ATOM      9  H32 UNL     1      16.763 -56.832 -45.235  1.00  0.00     0.158 HD
HETATM   10  N4  UNL     1      16.360 -55.513 -42.085  1.00  0.00    -0.275 N 
ATOM     11  H4  UNL     1      16.274 -56.299 -41.441  1.00  0.00     0.189 HD
HETATM   12  N5  UNL     1      16.196 -54.227 -41.664  1.00  0.00    -0.256 N 
HETATM   13  C7  UNL     1      15.917 -53.704 -40.315  1.00  0.00     0.075 C 
HETATM   14  C8  UNL     1      15.563 -54.843 -39.378  1.00  0.00     0.043 C 
HETATM   15  C9  UNL     1      17.131 -53.033 -39.753  1.00  0.00     0.043 C 
HETATM   16  C10 UNL     1      14.787 -52.709 -40.423  1.00  0.00     0.068 C 
HETATM   17  C11 UNL     1      14.411 -52.414 -39.035  1.00  0.00     0.042 C 
HETATM   18  C12 UNL     1      13.656 -53.518 -41.128  1.00  0.00     0.042 C 
ENDROOT
BRANCH   1  19
HETATM   19  C2  UNL     1      14.789 -50.288 -41.339  1.00  0.00     0.038 C 
HETATM   20  C1  UNL     1      15.434 -49.440 -40.298  1.00  0.00     0.039 C 
HETATM   21  C3  UNL     1      15.120 -49.704 -42.691  1.00  0.00     0.039 C 
HETATM   22  C4  UNL     1      13.278 -50.005 -41.166  1.00  0.00     0.039 C 
ENDBRANCH   1  19
TORSDOF 1
ENDMDL
MODEL 5
REMARK VINA RESULT: -5.756346034      1.658      4.057
REMARK  1 active torsions:
REMARK  status: ('A' for Active; 'I' for Inactive)
REMARK    1  A    between atoms: C2_2  and  N1_5 
ROOT
HETATM    1  N1  UNL     1      15.263 -49.924 -41.785  1.00  0.00    -0.305 N 
HETATM    2  N2  UNL     1      15.893 -49.914 -43.072  1.00  0.00    -0.279 N 
ATOM      3  H2  UNL     1      15.818 -49.065 -43.632  1.00  0.00     0.189 HD
HETATM    4  C5  UNL     1      16.534 -50.889 -43.559  1.00  0.00     0.184 C 
HETATM    5  S1  UNL     1      17.428 -51.209 -45.122  1.00  0.00    -0.014 SA
HETATM    6  C6  UNL     1      17.118 -53.004 -44.989  1.00  0.00     0.160 C 
HETATM    7  N3  UNL     1      17.058 -53.779 -45.995  1.00  0.00    -0.378 N 
ATOM      8  H31 UNL     1      16.885 -54.781 -45.921  1.00  0.00     0.158 HD
ATOM      9  H32 UNL     1      17.148 -53.647 -47.003  1.00  0.00     0.158 HD
HETATM   10  N4  UNL     1      16.993 -53.185 -43.599  1.00  0.00    -0.275 N 
ATOM     11  H4  UNL     1      17.124 -54.101 -43.167  1.00  0.00     0.189 HD
HETATM   12  N5  UNL     1      16.690 -52.085 -42.854  1.00  0.00    -0.256 N 
HETATM   13  C7  UNL     1      16.526 -51.947 -41.396  1.00  0.00     0.075 C 
HETATM   14  C8  UNL     1      16.493 -53.317 -40.744  1.00  0.00     0.043 C 
HETATM   15  C9  UNL     1      17.688 -51.208 -40.808  1.00  0.00     0.043 C 
HETATM   16  C10 UNL     1      15.251 -51.184 -41.138  1.00  0.00     0.068 C 
HETATM   17  C11 UNL     1      15.033 -51.291 -39.691  1.00  0.00     0.042 C 
HETATM   18  C12 UNL     1      14.173 -52.007 -41.908  1.00  0.00     0.042 C 
ENDROOT
BRANCH   1  19
HETATM   19  C2  UNL     1      14.740 -48.661 -41.413  1.00  0.00     0.038 C 
HETATM   20  C1  UNL     1      13.643 -48.648 -40.407  1.00  0.00     0.039 C 
HETATM   21  C3  UNL     1      15.858 -47.786 -40.898  1.00  0.00     0.039 C 
HETATM   22  C4  UNL     1      14.161 -47.868 -42.607  1.00  0.00     0.039 C 
ENDBRANCH   1  19
TORSDOF 1
ENDMDL
