MODEL 1
REMARK VINA RESULT: -8.184208220      0.000      0.000
REMARK  1 active torsions:
REMARK  status: ('A' for Active; 'I' for Inactive)
REMARK    1  A    between atoms: C11_19  and  C12_20 
ROOT
HETATM    1  N1  UNL     1      17.602 -51.426 -45.632  1.00  0.00    -0.196 NA
HETATM    2  C1  UNL     1      17.155 -52.156 -44.855  1.00  0.00     0.074 C 
HETATM    3  C2  UNL     1      16.606 -53.104 -43.854  1.00  0.00     0.204 C 
HETATM    4  C3  UNL     1      16.785 -52.524 -42.501  1.00  0.00     0.132 C 
HETATM    5  N2  UNL     1      17.094 -51.276 -42.451  1.00  0.00    -0.382 N 
ATOM      6  H21 UNL     1      17.217 -50.877 -41.521  1.00  0.00     0.158 HD
ATOM      7  H22 UNL     1      17.187 -50.801 -43.350  1.00  0.00     0.158 HD
HETATM    8  O1  UNL     1      16.659 -53.169 -41.279  1.00  0.00    -0.325 OA
HETATM    9  C4  UNL     1      15.865 -54.313 -41.048  1.00  0.00     0.093 C 
HETATM   10  C5  UNL     1      14.459 -53.825 -40.760  1.00  0.00     0.040 C 
HETATM   11  C6  UNL     1      13.807 -54.800 -39.824  1.00  0.00     0.003 C 
HETATM   12  C7  UNL     1      14.397 -54.587 -38.430  1.00  0.00     0.000 C 
HETATM   13  C8  UNL     1      15.893 -54.468 -38.598  1.00  0.00     0.003 C 
HETATM   14  C9  UNL     1      16.369 -55.125 -39.874  1.00  0.00     0.040 C 
HETATM   15  C10 UNL     1      15.867 -55.169 -42.297  1.00  0.00     0.271 C 
HETATM   16  N3  UNL     1      17.158 -55.302 -42.896  1.00  0.00    -0.060 N 
ATOM     17  H31 UNL     1      17.293 -56.252 -43.242  1.00  0.00     0.278 HD
ATOM     18  H32 UNL     1      17.886 -55.272 -42.182  1.00  0.00     0.278 HD
HETATM   19  C11 UNL     1      17.434 -54.345 -43.935  1.00  0.00     0.268 C 
ENDROOT
BRANCH  19  20
HETATM   20  C12 UNL     1      17.339 -54.988 -45.290  1.00  0.00     0.085 A 
HETATM   21  C13 UNL     1      16.859 -56.263 -45.525  1.00  0.00     0.037 A 
HETATM   22  C14 UNL     1      16.928 -56.496 -46.881  1.00  0.00     0.027 A 
HETATM   23  C15 UNL     1      17.449 -55.348 -47.423  1.00  0.00     0.142 A 
HETATM   24  O2  UNL     1      17.669 -54.504 -46.442  1.00  0.00    -0.325 OA
ENDBRANCH  19  20
TORSDOF 1
ENDMDL
MODEL 2
REMARK VINA RESULT: -8.078178865      2.678      3.239
REMARK  1 active torsions:
REMARK  status: ('A' for Active; 'I' for Inactive)
REMARK    1  A    between atoms: C11_19  and  C12_20 
ROOT
HETATM    1  N1  UNL     1      17.865 -53.368 -48.405  1.00  0.00    -0.196 NA
HETATM    2  C1  UNL     1      17.478 -53.213 -47.327  1.00  0.00     0.074 C 
HETATM    3  C2  UNL     1      17.006 -53.021 -45.933  1.00  0.00     0.204 C 
HETATM    4  C3  UNL     1      17.484 -51.706 -45.443  1.00  0.00     0.132 C 
HETATM    5  N2  UNL     1      17.940 -50.897 -46.335  1.00  0.00    -0.382 N 
ATOM      6  H21 UNL     1      18.269 -49.992 -45.998  1.00  0.00     0.158 HD
ATOM      7  H22 UNL     1      17.930 -51.238 -47.297  1.00  0.00     0.158 HD
HETATM    8  O1  UNL     1      17.499 -51.242 -44.136  1.00  0.00    -0.325 OA
HETATM    9  C4  UNL     1      16.630 -51.680 -43.114  1.00  0.00     0.093 C 
HETATM   10  C5  UNL     1      15.362 -50.857 -43.228  1.00  0.00     0.040 C 
HETATM   11  C6  UNL     1      14.774 -50.710 -41.855  1.00  0.00     0.003 C 
HETATM   12  C7  UNL     1      15.619 -49.696 -41.084  1.00  0.00     0.000 C 
HETATM   13  C8  UNL     1      17.066 -50.046 -41.336  1.00  0.00     0.003 C 
HETATM   14  C9  UNL     1      17.233 -51.494 -41.739  1.00  0.00     0.040 C 
HETATM   15  C10 UNL     1      16.315 -53.144 -43.336  1.00  0.00     0.271 C 
HETATM   16  N3  UNL     1      17.457 -53.927 -43.690  1.00  0.00    -0.060 N 
ATOM     17  H31 UNL     1      17.418 -54.839 -43.234  1.00  0.00     0.278 HD
ATOM     18  H32 UNL     1      18.296 -53.549 -43.252  1.00  0.00     0.278 HD
HETATM   19  C11 UNL     1      17.657 -54.083 -45.107  1.00  0.00     0.268 C 
ENDROOT
BRANCH  19  20
HETATM   20  C12 UNL     1      17.253 -55.460 -45.555  1.00  0.00     0.085 A 
HETATM   21  C13 UNL     1      17.100 -56.547 -44.714  1.00  0.00     0.037 A 
HETATM   22  C14 UNL     1      16.726 -57.625 -45.485  1.00  0.00     0.027 A 
HETATM   23  C15 UNL     1      16.665 -57.151 -46.772  1.00  0.00     0.142 A 
HETATM   24  O2  UNL     1      16.984 -55.879 -46.747  1.00  0.00    -0.325 OA
ENDBRANCH  19  20
TORSDOF 1
ENDMDL
MODEL 3
REMARK VINA RESULT: -7.663189758      1.354      1.450
REMARK  1 active torsions:
REMARK  status: ('A' for Active; 'I' for Inactive)
REMARK    1  A    between atoms: C11_19  and  C12_20 
ROOT
HETATM    1  N1  UNL     1      17.608 -52.099 -46.900  1.00  0.00    -0.196 NA
HETATM    2  C1  UNL     1      17.175 -52.444 -45.886  1.00  0.00     0.074 C 
HETATM    3  C2  UNL     1      16.645 -52.896 -44.576  1.00  0.00     0.204 C 
HETATM    4  C3  UNL     1      16.941 -51.860 -43.558  1.00  0.00     0.132 C 
HETATM    5  N2  UNL     1      17.316 -50.712 -44.004  1.00  0.00    -0.382 N 
ATOM      6  H21 UNL     1      17.519 -50.000 -43.304  1.00  0.00     0.158 HD
ATOM      7  H22 UNL     1      17.374 -50.624 -45.019  1.00  0.00     0.158 HD
HETATM    8  O1  UNL     1      16.861 -51.980 -42.178  1.00  0.00    -0.325 OA
HETATM    9  C4  UNL     1      16.026 -52.889 -41.493  1.00  0.00     0.093 C 
HETATM   10  C5  UNL     1      14.669 -52.228 -41.358  1.00  0.00     0.040 C 
HETATM   11  C6  UNL     1      14.030 -52.723 -40.094  1.00  0.00     0.003 C 
HETATM   12  C7  UNL     1      14.719 -52.038 -38.915  1.00  0.00     0.000 C 
HETATM   13  C8  UNL     1      16.205 -52.100 -39.175  1.00  0.00     0.003 C 
HETATM   14  C9  UNL     1      16.563 -53.226 -40.119  1.00  0.00     0.040 C 
HETATM   15  C10 UNL     1      15.904 -54.153 -42.316  1.00  0.00     0.271 C 
HETATM   16  N3  UNL     1      17.144 -54.598 -42.869  1.00  0.00    -0.060 N 
ATOM     17  H31 UNL     1      17.207 -55.615 -42.829  1.00  0.00     0.278 HD
ATOM     18  H32 UNL     1      17.917 -54.350 -42.252  1.00  0.00     0.278 HD
HETATM   19  C11 UNL     1      17.401 -54.131 -44.207  1.00  0.00     0.268 C 
ENDROOT
BRANCH  19  20
HETATM   20  C12 UNL     1      17.186 -55.233 -45.206  1.00  0.00     0.085 A 
HETATM   21  C13 UNL     1      16.808 -56.523 -44.885  1.00  0.00     0.037 A 
HETATM   22  C14 UNL     1      16.713 -57.239 -46.059  1.00  0.00     0.027 A 
HETATM   23  C15 UNL     1      17.037 -56.351 -47.054  1.00  0.00     0.142 A 
HETATM   24  O2  UNL     1      17.304 -55.197 -46.492  1.00  0.00    -0.325 OA
ENDBRANCH  19  20
TORSDOF 1
ENDMDL
MODEL 4
REMARK VINA RESULT: -7.547667947      2.215      6.177
REMARK  1 active torsions:
REMARK  status: ('A' for Active; 'I' for Inactive)
REMARK    1  A    between atoms: C11_19  and  C12_20 
ROOT
HETATM    1  N1  UNL     1      15.136 -55.126 -37.981  1.00  0.00    -0.196 NA
HETATM    2  C1  UNL     1      15.327 -54.970 -39.110  1.00  0.00     0.074 C 
HETATM    3  C2  UNL     1      15.593 -54.754 -40.554  1.00  0.00     0.204 C 
HETATM    4  C3  UNL     1      16.696 -55.651 -40.975  1.00  0.00     0.132 C 
HETATM    5  N2  UNL     1      17.009 -56.594 -40.156  1.00  0.00    -0.382 N 
ATOM      6  H21 UNL     1      17.767 -57.211 -40.446  1.00  0.00     0.158 HD
ATOM      7  H22 UNL     1      16.468 -56.634 -39.292  1.00  0.00     0.158 HD
HETATM    8  O1  UNL     1      17.431 -55.596 -42.150  1.00  0.00    -0.325 OA
HETATM    9  C4  UNL     1      16.974 -55.039 -43.364  1.00  0.00     0.093 C 
HETATM   10  C5  UNL     1      16.198 -56.124 -44.084  1.00  0.00     0.040 C 
HETATM   11  C6  UNL     1      16.343 -55.903 -45.561  1.00  0.00     0.003 C 
HETATM   12  C7  UNL     1      17.749 -56.340 -45.969  1.00  0.00     0.000 C 
HETATM   13  C8  UNL     1      18.702 -55.771 -44.945  1.00  0.00     0.003 C 
HETATM   14  C9  UNL     1      18.117 -54.570 -44.238  1.00  0.00     0.040 C 
HETATM   15  C10 UNL     1      16.060 -53.873 -43.052  1.00  0.00     0.271 C 
HETATM   16  N3  UNL     1      16.554 -53.022 -42.014  1.00  0.00    -0.060 N 
ATOM     17  H31 UNL     1      16.363 -52.045 -42.235  1.00  0.00     0.278 HD
ATOM     18  H32 UNL     1      17.573 -53.007 -42.022  1.00  0.00     0.278 HD
HETATM   19  C11 UNL     1      16.067 -53.344 -40.699  1.00  0.00     0.268 C 
ENDROOT
BRANCH  19  20
HETATM   20  C12 UNL     1      15.020 -52.359 -40.261  1.00  0.00     0.085 A 
HETATM   21  C13 UNL     1      13.819 -52.146 -40.912  1.00  0.00     0.037 A 
HETATM   22  C14 UNL     1      13.131 -51.175 -40.219  1.00  0.00     0.027 A 
HETATM   23  C15 UNL     1      13.943 -50.832 -39.167  1.00  0.00     0.142 A 
HETATM   24  O2  UNL     1      15.032 -51.559 -39.247  1.00  0.00    -0.325 OA
ENDBRANCH  19  20
TORSDOF 1
ENDMDL
MODEL 5
REMARK VINA RESULT: -7.494354320      2.346      2.849
REMARK  1 active torsions:
REMARK  status: ('A' for Active; 'I' for Inactive)
REMARK    1  A    between atoms: C11_19  and  C12_20 
ROOT
HETATM    1  N1  UNL     1      17.739 -51.905 -46.525  1.00  0.00    -0.196 NA
HETATM    2  C1  UNL     1      17.156 -51.984 -45.531  1.00  0.00     0.074 C 
HETATM    3  C2  UNL     1      16.429 -52.090 -44.241  1.00  0.00     0.204 C 
HETATM    4  C3  UNL     1      16.497 -50.782 -43.546  1.00  0.00     0.132 C 
HETATM    5  N2  UNL     1      16.889 -49.781 -44.253  1.00  0.00    -0.382 N 
ATOM      6  H21 UNL     1      16.936 -48.881 -43.776  1.00  0.00     0.158 HD
ATOM      7  H22 UNL     1      17.117 -49.982 -45.228  1.00  0.00     0.158 HD
HETATM    8  O1  UNL     1      16.187 -50.509 -42.222  1.00  0.00    -0.325 OA
HETATM    9  C4  UNL     1      15.291 -51.259 -41.431  1.00  0.00     0.093 C 
HETATM   10  C5  UNL     1      13.901 -50.720 -41.706  1.00  0.00     0.040 C 
HETATM   11  C6  UNL     1      13.078 -50.890 -40.462  1.00  0.00     0.003 C 
HETATM   12  C7  UNL     1      13.521 -49.834 -39.452  1.00  0.00     0.000 C 
HETATM   13  C8  UNL     1      15.031 -49.826 -39.455  1.00  0.00     0.003 C 
HETATM   14  C9  UNL     1      15.598 -51.136 -39.955  1.00  0.00     0.040 C 
HETATM   15  C10 UNL     1      15.371 -52.712 -41.848  1.00  0.00     0.271 C 
HETATM   16  N3  UNL     1      16.707 -53.176 -42.050  1.00  0.00    -0.060 N 
ATOM     17  H31 UNL     1      16.810 -54.128 -41.699  1.00  0.00     0.278 HD
ATOM     18  H32 UNL     1      17.350 -52.689 -41.426  1.00  0.00     0.278 HD
HETATM   19  C11 UNL     1      17.168 -53.090 -43.411  1.00  0.00     0.268 C 
ENDROOT
BRANCH  19  20
HETATM   20  C12 UNL     1      17.179 -54.447 -44.057  1.00  0.00     0.085 A 
HETATM   21  C13 UNL     1      18.272 -55.007 -44.692  1.00  0.00     0.037 A 
HETATM   22  C14 UNL     1      17.900 -56.250 -45.154  1.00  0.00     0.027 A 
HETATM   23  C15 UNL     1      16.588 -56.402 -44.778  1.00  0.00     0.142 A 
HETATM   24  O2  UNL     1      16.225 -55.314 -44.141  1.00  0.00    -0.325 OA
ENDBRANCH  19  20
TORSDOF 1
ENDMDL
