MODEL 1
REMARK VINA RESULT: -6.617897342      0.000      0.000
REMARK  0 active torsions:
REMARK  status: ('A' for Active; 'I' for Inactive)
ROOT
HETATM    1  C1  UNL     1      13.884 -53.302 -41.050  1.00  0.00     0.013 C 
HETATM    2  C2  UNL     1      14.859 -52.541 -41.915  1.00  0.00     0.020 C 
HETATM    3  C3  UNL     1      14.537 -51.103 -41.808  1.00  0.00     0.040 C 
HETATM    4  C4  UNL     1      15.626 -50.120 -42.048  1.00  0.00     0.187 C 
HETATM    5  C5  UNL     1      16.068 -49.600 -40.665  1.00  0.00     0.035 C 
HETATM    6  C6  UNL     1      16.489 -50.965 -40.089  1.00  0.00     0.038 C 
HETATM    7  C7  UNL     1      17.057 -51.649 -41.277  1.00  0.00     0.221 C 
HETATM    8  N1  UNL     1      16.909 -50.750 -42.408  1.00  0.00    -0.064 N 
ATOM      9  H11 UNL     1      17.687 -50.114 -42.581  1.00  0.00     0.278 HD
ATOM     10  H12 UNL     1      16.954 -51.180 -43.332  1.00  0.00     0.278 HD
HETATM   11  C8  UNL     1      16.303 -52.925 -41.692  1.00  0.00     0.108 C 
HETATM   12  N2  UNL     1      16.930 -53.247 -42.956  1.00  0.00    -0.355 N 
ATOM     13  H2  UNL     1      17.353 -52.447 -43.428  1.00  0.00     0.162 HD
HETATM   14  C9  UNL     1      17.048 -54.316 -43.568  1.00  0.00     0.157 C 
HETATM   15  N3  UNL     1      17.690 -54.456 -44.798  1.00  0.00    -0.075 NA
HETATM   16  S1  UNL     1      16.348 -55.779 -42.783  1.00  0.00    -0.038 SA
HETATM   17  C10 UNL     1      16.478 -55.364 -41.025  1.00  0.00     0.103 A 
HETATM   18  N4  UNL     1      16.612 -56.137 -39.975  1.00  0.00    -0.345 N 
ATOM     19  H4  UNL     1      16.652 -57.156 -39.966  1.00  0.00     0.167 HD
HETATM   20  C11 UNL     1      16.685 -55.313 -38.905  1.00  0.00     0.181 A 
HETATM   21  N5  UNL     1      16.591 -54.038 -39.343  1.00  0.00    -0.351 N 
ATOM     22  H5  UNL     1      16.617 -53.215 -38.741  1.00  0.00     0.166 HD
HETATM   23  C12 UNL     1      16.456 -54.002 -40.698  1.00  0.00     0.075 A 
ENDROOT
TORSDOF 0
ENDMDL
MODEL 2
REMARK VINA RESULT: -6.537085318      4.046      6.209
REMARK  0 active torsions:
REMARK  status: ('A' for Active; 'I' for Inactive)
ROOT
HETATM    1  C1  UNL     1      16.232 -49.629 -39.565  1.00  0.00     0.013 C 
HETATM    2  C2  UNL     1      15.463 -49.964 -40.820  1.00  0.00     0.020 C 
HETATM    3  C3  UNL     1      15.543 -51.425 -41.027  1.00  0.00     0.040 C 
HETATM    4  C4  UNL     1      14.451 -52.086 -41.789  1.00  0.00     0.187 C 
HETATM    5  C5  UNL     1      13.555 -52.798 -40.755  1.00  0.00     0.035 C 
HETATM    6  C6  UNL     1      13.171 -51.537 -39.958  1.00  0.00     0.038 C 
HETATM    7  C7  UNL     1      13.076 -50.506 -41.021  1.00  0.00     0.221 C 
HETATM    8  N1  UNL     1      13.428 -51.144 -42.277  1.00  0.00    -0.064 N 
ATOM      9  H11 UNL     1      12.657 -51.552 -42.805  1.00  0.00     0.278 HD
ATOM     10  H12 UNL     1      13.716 -50.520 -43.032  1.00  0.00     0.278 HD
HETATM   11  C8  UNL     1      14.083 -49.352 -40.872  1.00  0.00     0.108 C 
HETATM   12  N2  UNL     1      13.905 -48.637 -42.118  1.00  0.00    -0.355 N 
ATOM     13  H2  UNL     1      13.537 -49.208 -42.879  1.00  0.00     0.162 HD
HETATM   14  C9  UNL     1      14.119 -47.458 -42.429  1.00  0.00     0.157 C 
HETATM   15  N3  UNL     1      13.893 -46.921 -43.696  1.00  0.00    -0.075 NA
HETATM   16  S1  UNL     1      14.746 -46.380 -41.128  1.00  0.00    -0.038 SA
HETATM   17  C10 UNL     1      14.049 -47.137 -39.639  1.00  0.00     0.103 A 
HETATM   18  N4  UNL     1      13.716 -46.606 -38.488  1.00  0.00    -0.345 N 
ATOM     19  H4  UNL     1      13.813 -45.628 -38.215  1.00  0.00     0.167 HD
HETATM   20  C11 UNL     1      13.221 -47.613 -37.734  1.00  0.00     0.181 A 
HETATM   21  N5  UNL     1      13.267 -48.751 -38.461  1.00  0.00    -0.351 N 
ATOM     22  H5  UNL     1      12.954 -49.664 -38.130  1.00  0.00     0.166 HD
HETATM   23  C12 UNL     1      13.790 -48.513 -39.696  1.00  0.00     0.075 A 
ENDROOT
TORSDOF 0
ENDMDL
MODEL 3
REMARK VINA RESULT: -6.482289780      2.044      4.022
REMARK  0 active torsions:
REMARK  status: ('A' for Active; 'I' for Inactive)
ROOT
HETATM    1  C1  UNL     1      17.580 -50.353 -41.236  1.00  0.00     0.013 C 
HETATM    2  C2  UNL     1      16.127 -50.329 -40.830  1.00  0.00     0.020 C 
HETATM    3  C3  UNL     1      15.773 -48.935 -40.488  1.00  0.00     0.040 C 
HETATM    4  C4  UNL     1      14.352 -48.518 -40.627  1.00  0.00     0.187 C 
HETATM    5  C5  UNL     1      14.259 -47.684 -41.921  1.00  0.00     0.035 C 
HETATM    6  C6  UNL     1      14.749 -48.787 -42.878  1.00  0.00     0.038 C 
HETATM    7  C7  UNL     1      14.166 -50.011 -42.275  1.00  0.00     0.221 C 
HETATM    8  N1  UNL     1      13.466 -49.610 -41.068  1.00  0.00    -0.064 N 
ATOM      9  H11 UNL     1      12.481 -49.370 -41.179  1.00  0.00     0.278 HD
ATOM     10  H12 UNL     1      13.289 -50.347 -40.385  1.00  0.00     0.278 HD
HETATM   11  C8  UNL     1      15.210 -51.037 -41.798  1.00  0.00     0.108 C 
HETATM   12  N2  UNL     1      14.387 -51.995 -41.090  1.00  0.00    -0.355 N 
ATOM     13  H2  UNL     1      13.507 -51.612 -40.741  1.00  0.00     0.162 HD
HETATM   14  C9  UNL     1      14.556 -53.193 -40.830  1.00  0.00     0.157 C 
HETATM   15  N3  UNL     1      13.650 -53.984 -40.124  1.00  0.00    -0.075 NA
HETATM   16  S1  UNL     1      16.076 -53.945 -41.438  1.00  0.00    -0.038 SA
HETATM   17  C10 UNL     1      16.421 -52.962 -42.918  1.00  0.00     0.103 A 
HETATM   18  N4  UNL     1      17.046 -53.279 -44.025  1.00  0.00    -0.345 N 
ATOM     19  H4  UNL     1      17.480 -54.174 -44.248  1.00  0.00     0.167 HD
HETATM   20  C11 UNL     1      17.000 -52.182 -44.814  1.00  0.00     0.181 A 
HETATM   21  N5  UNL     1      16.337 -51.209 -44.152  1.00  0.00    -0.351 N 
ATOM     22  H5  UNL     1      16.159 -50.274 -44.520  1.00  0.00     0.166 HD
HETATM   23  C12 UNL     1      15.937 -51.647 -42.925  1.00  0.00     0.075 A 
ENDROOT
TORSDOF 0
ENDMDL
MODEL 4
REMARK VINA RESULT: -6.478891073      1.952      4.295
REMARK  0 active torsions:
REMARK  status: ('A' for Active; 'I' for Inactive)
ROOT
HETATM    1  C1  UNL     1      17.230 -52.322 -39.541  1.00  0.00     0.013 C 
HETATM    2  C2  UNL     1      16.705 -53.736 -39.481  1.00  0.00     0.020 C 
HETATM    3  C3  UNL     1      16.523 -54.094 -38.059  1.00  0.00     0.040 C 
HETATM    4  C4  UNL     1      15.514 -55.132 -37.721  1.00  0.00     0.187 C 
HETATM    5  C5  UNL     1      14.284 -54.390 -37.161  1.00  0.00     0.035 C 
HETATM    6  C6  UNL     1      14.003 -53.542 -38.416  1.00  0.00     0.038 C 
HETATM    7  C7  UNL     1      14.363 -54.473 -39.514  1.00  0.00     0.221 C 
HETATM    8  N1  UNL     1      14.844 -55.700 -38.905  1.00  0.00    -0.064 N 
ATOM      9  H11 UNL     1      14.142 -56.416 -38.722  1.00  0.00     0.278 HD
ATOM     10  H12 UNL     1      15.415 -56.302 -39.498  1.00  0.00     0.278 HD
HETATM   11  C8  UNL     1      15.530 -53.990 -40.395  1.00  0.00     0.108 C 
HETATM   12  N2  UNL     1      15.785 -55.153 -41.218  1.00  0.00    -0.355 N 
ATOM     13  H2  UNL     1      15.484 -56.034 -40.801  1.00  0.00     0.162 HD
HETATM   14  C9  UNL     1      16.303 -55.273 -42.335  1.00  0.00     0.157 C 
HETATM   15  N3  UNL     1      16.480 -56.487 -42.999  1.00  0.00    -0.075 NA
HETATM   16  S1  UNL     1      16.837 -53.755 -43.147  1.00  0.00    -0.038 SA
HETATM   17  C10 UNL     1      15.685 -52.536 -42.465  1.00  0.00     0.103 A 
HETATM   18  N4  UNL     1      15.224 -51.420 -42.975  1.00  0.00    -0.345 N 
ATOM     19  H4  UNL     1      15.459 -51.020 -43.883  1.00  0.00     0.167 HD
HETATM   20  C11 UNL     1      14.376 -50.905 -42.057  1.00  0.00     0.181 A 
HETATM   21  N5  UNL     1      14.344 -51.737 -40.993  1.00  0.00    -0.351 N 
ATOM     22  H5  UNL     1      13.782 -51.586 -40.155  1.00  0.00     0.166 HD
HETATM   23  C12 UNL     1      15.165 -52.806 -41.192  1.00  0.00     0.075 A 
ENDROOT
TORSDOF 0
ENDMDL
MODEL 5
REMARK VINA RESULT: -6.457207540      1.897      4.294
REMARK  0 active torsions:
REMARK  status: ('A' for Active; 'I' for Inactive)
ROOT
HETATM    1  C1  UNL     1      16.669 -51.439 -39.449  1.00  0.00     0.013 C 
HETATM    2  C2  UNL     1      16.739 -52.847 -39.987  1.00  0.00     0.020 C 
HETATM    3  C3  UNL     1      16.808 -53.772 -38.836  1.00  0.00     0.040 C 
HETATM    4  C4  UNL     1      16.306 -55.159 -39.020  1.00  0.00     0.187 C 
HETATM    5  C5  UNL     1      14.925 -55.226 -38.336  1.00  0.00     0.035 C 
HETATM    6  C6  UNL     1      14.253 -54.134 -39.188  1.00  0.00     0.038 C 
HETATM    7  C7  UNL     1      14.869 -54.348 -40.521  1.00  0.00     0.221 C 
HETATM    8  N1  UNL     1      15.829 -55.429 -40.388  1.00  0.00    -0.064 N 
ATOM      9  H11 UNL     1      15.473 -56.369 -40.561  1.00  0.00     0.278 HD
ATOM     10  H12 UNL     1      16.546 -55.484 -41.111  1.00  0.00     0.278 HD
HETATM   11  C8  UNL     1      15.694 -53.154 -41.034  1.00  0.00     0.108 C 
HETATM   12  N2  UNL     1      16.323 -53.709 -42.213  1.00  0.00    -0.355 N 
ATOM     13  H2  UNL     1      16.417 -54.725 -42.198  1.00  0.00     0.162 HD
HETATM   14  C9  UNL     1      16.769 -53.175 -43.237  1.00  0.00     0.157 C 
HETATM   15  N3  UNL     1      17.356 -53.866 -44.296  1.00  0.00    -0.075 NA
HETATM   16  S1  UNL     1      16.615 -51.383 -43.348  1.00  0.00    -0.038 SA
HETATM   17  C10 UNL     1      15.131 -51.069 -42.360  1.00  0.00     0.103 A 
HETATM   18  N4  UNL     1      14.240 -50.111 -42.443  1.00  0.00    -0.345 N 
ATOM     19  H4  UNL     1      14.238 -49.332 -43.100  1.00  0.00     0.167 HD
HETATM   20  C11 UNL     1      13.323 -50.363 -41.481  1.00  0.00     0.181 A 
HETATM   21  N5  UNL     1      13.689 -51.487 -40.827  1.00  0.00    -0.351 N 
ATOM     22  H5  UNL     1      13.172 -51.902 -40.052  1.00  0.00     0.166 HD
HETATM   23  C12 UNL     1      14.845 -51.990 -41.345  1.00  0.00     0.075 A 
ENDROOT
TORSDOF 0
ENDMDL
