MODEL 1
REMARK VINA RESULT: -6.239613593      0.000      0.000
REMARK  0 active torsions:
REMARK  status: ('A' for Active; 'I' for Inactive)
ROOT
HETATM    1  C1  UNL     1      15.242 -51.142 -41.303  1.00  0.00     0.048 C 
HETATM    2  C2  UNL     1      16.578 -51.768 -41.477  1.00  0.00     0.142 C 
HETATM    3  C3  UNL     1      17.283 -51.741 -40.115  1.00  0.00     0.042 C 
HETATM    4  C4  UNL     1      16.370 -51.894 -38.961  1.00  0.00     0.028 C 
HETATM    5  C5  UNL     1      16.618 -52.970 -37.949  1.00  0.00     0.151 C 
HETATM    6  S1  UNL     1      14.950 -53.699 -37.529  1.00  0.00    -0.077 SA
HETATM    7  S2  UNL     1      14.372 -54.457 -39.478  1.00  0.00    -0.043 SA
HETATM    8  C6  UNL     1      15.799 -54.365 -40.471  1.00  0.00     0.061 C 
HETATM    9  N1  UNL     1      16.990 -54.271 -39.983  1.00  0.00    -0.323 N 
ATOM     10  H1  UNL     1      17.774 -54.243 -40.635  1.00  0.00     0.169 HD
HETATM   11  C7  UNL     1      17.273 -54.204 -38.618  1.00  0.00     0.237 C 
HETATM   12  O1  UNL     1      17.930 -54.955 -37.949  1.00  0.00    -0.272 OA
HETATM   13  C8  UNL     1      15.722 -54.140 -41.982  1.00  0.00     0.092 C 
HETATM   14  C9  UNL     1      16.688 -52.996 -42.272  1.00  0.00     0.118 C 
HETATM   15  N2  UNL     1      16.732 -52.845 -43.683  1.00  0.00    -0.413 N 
ATOM     16  H2  UNL     1      17.088 -53.587 -44.288  1.00  0.00     0.153 HD
HETATM   17  C10 UNL     1      16.261 -51.623 -44.213  1.00  0.00     0.142 C 
HETATM   18  C11 UNL     1      16.815 -50.412 -43.494  1.00  0.00     0.252 C 
HETATM   19  N3  UNL     1      17.368 -50.748 -42.236  1.00  0.00    -0.063 N 
ATOM     20  H31 UNL     1      18.337 -51.050 -42.340  1.00  0.00     0.278 HD
ATOM     21  H32 UNL     1      17.508 -49.910 -41.672  1.00  0.00     0.278 HD
ENDROOT
TORSDOF 0
ENDMDL
MODEL 2
REMARK VINA RESULT: -6.165812711      3.186      4.410
REMARK  0 active torsions:
REMARK  status: ('A' for Active; 'I' for Inactive)
ROOT
HETATM    1  C1  UNL     1      15.405 -49.163 -39.742  1.00  0.00     0.048 C 
HETATM    2  C2  UNL     1      15.804 -48.850 -41.138  1.00  0.00     0.142 C 
HETATM    3  C3  UNL     1      16.994 -49.750 -41.493  1.00  0.00     0.042 C 
HETATM    4  C4  UNL     1      16.951 -51.084 -40.857  1.00  0.00     0.028 C 
HETATM    5  C5  UNL     1      17.047 -52.318 -41.701  1.00  0.00     0.151 C 
HETATM    6  S1  UNL     1      15.812 -53.534 -41.006  1.00  0.00    -0.077 SA
HETATM    7  S2  UNL     1      13.977 -52.416 -41.309  1.00  0.00    -0.043 SA
HETATM    8  C6  UNL     1      14.396 -51.074 -42.335  1.00  0.00     0.061 C 
HETATM    9  N1  UNL     1      15.463 -51.051 -43.061  1.00  0.00    -0.323 N 
ATOM     10  H1  UNL     1      15.623 -50.234 -43.651  1.00  0.00     0.169 HD
HETATM   11  C7  UNL     1      16.410 -52.075 -43.091  1.00  0.00     0.237 C 
HETATM   12  O1  UNL     1      16.763 -52.746 -44.024  1.00  0.00    -0.272 OA
HETATM   13  C8  UNL     1      13.663 -49.733 -42.256  1.00  0.00     0.092 C 
HETATM   14  C9  UNL     1      14.759 -48.678 -42.153  1.00  0.00     0.118 C 
HETATM   15  N2  UNL     1      14.114 -47.413 -42.203  1.00  0.00    -0.413 N 
ATOM     16  H2  UNL     1      13.599 -47.110 -43.030  1.00  0.00     0.153 HD
HETATM   17  C10 UNL     1      14.218 -46.594 -41.056  1.00  0.00     0.142 C 
HETATM   18  C11 UNL     1      15.632 -46.491 -40.527  1.00  0.00     0.252 C 
HETATM   19  N3  UNL     1      16.467 -47.511 -41.040  1.00  0.00    -0.063 N 
ATOM     20  H31 UNL     1      16.854 -47.236 -41.943  1.00  0.00     0.278 HD
ATOM     21  H32 UNL     1      17.328 -47.576 -40.497  1.00  0.00     0.278 HD
ENDROOT
TORSDOF 0
ENDMDL
MODEL 3
REMARK VINA RESULT: -6.160946242      3.367      4.946
REMARK  0 active torsions:
REMARK  status: ('A' for Active; 'I' for Inactive)
ROOT
HETATM    1  C1  UNL     1      14.061 -51.755 -39.441  1.00  0.00     0.048 C 
HETATM    2  C2  UNL     1      13.942 -52.665 -40.608  1.00  0.00     0.142 C 
HETATM    3  C3  UNL     1      13.741 -51.795 -41.855  1.00  0.00     0.042 C 
HETATM    4  C4  UNL     1      14.450 -50.499 -41.806  1.00  0.00     0.028 C 
HETATM    5  C5  UNL     1      15.386 -50.115 -42.911  1.00  0.00     0.151 C 
HETATM    6  S1  UNL     1      16.871 -49.325 -42.098  1.00  0.00    -0.077 SA
HETATM    7  S2  UNL     1      17.576 -50.994 -40.904  1.00  0.00    -0.043 SA
HETATM    8  C6  UNL     1      16.692 -52.387 -41.458  1.00  0.00     0.061 C 
HETATM    9  N1  UNL     1      16.095 -52.432 -42.601  1.00  0.00    -0.323 N 
ATOM     10  H1  UNL     1      15.616 -53.296 -42.858  1.00  0.00     0.169 HD
HETATM   11  C7  UNL     1      16.063 -51.373 -43.509  1.00  0.00     0.237 C 
HETATM   12  O1  UNL     1      16.479 -51.336 -44.636  1.00  0.00    -0.272 OA
HETATM   13  C8  UNL     1      16.353 -53.554 -40.529  1.00  0.00     0.092 C 
HETATM   14  C9  UNL     1      14.861 -53.803 -40.717  1.00  0.00     0.118 C 
HETATM   15  N2  UNL     1      14.540 -54.962 -39.960  1.00  0.00    -0.413 N 
ATOM     16  H2  UNL     1      14.941 -55.873 -40.185  1.00  0.00     0.153 HD
HETATM   17  C10 UNL     1      13.643 -54.796 -38.882  1.00  0.00     0.142 C 
HETATM   18  C11 UNL     1      12.409 -54.001 -39.254  1.00  0.00     0.252 C 
HETATM   19  N3  UNL     1      12.585 -53.281 -40.459  1.00  0.00    -0.063 N 
ATOM     20  H31 UNL     1      12.369 -53.870 -41.263  1.00  0.00     0.278 HD
ATOM     21  H32 UNL     1      11.857 -52.574 -40.563  1.00  0.00     0.278 HD
ENDROOT
TORSDOF 0
ENDMDL
MODEL 4
REMARK VINA RESULT: -6.089811481      1.984      2.220
REMARK  0 active torsions:
REMARK  status: ('A' for Active; 'I' for Inactive)
ROOT
HETATM    1  C1  UNL     1      14.857 -51.173 -39.313  1.00  0.00     0.048 C 
HETATM    2  C2  UNL     1      15.441 -51.663 -40.588  1.00  0.00     0.142 C 
HETATM    3  C3  UNL     1      16.736 -52.411 -40.247  1.00  0.00     0.042 C 
HETATM    4  C4  UNL     1      16.696 -53.125 -38.953  1.00  0.00     0.028 C 
HETATM    5  C5  UNL     1      17.013 -54.588 -38.895  1.00  0.00     0.151 C 
HETATM    6  S1  UNL     1      15.780 -55.352 -37.718  1.00  0.00    -0.077 SA
HETATM    7  S2  UNL     1      13.934 -54.905 -38.768  1.00  0.00    -0.043 SA
HETATM    8  C6  UNL     1      14.404 -54.352 -40.351  1.00  0.00     0.061 C 
HETATM    9  N1  UNL     1      15.565 -54.591 -40.862  1.00  0.00    -0.323 N 
ATOM     10  H1  UNL     1      15.752 -54.249 -41.805  1.00  0.00     0.169 HD
HETATM   11  C7  UNL     1      16.580 -55.288 -40.206  1.00  0.00     0.237 C 
HETATM   12  O1  UNL     1      17.121 -56.311 -40.532  1.00  0.00    -0.272 OA
HETATM   13  C8  UNL     1      13.570 -53.340 -41.137  1.00  0.00     0.092 C 
HETATM   14  C9  UNL     1      14.554 -52.267 -41.589  1.00  0.00     0.118 C 
HETATM   15  N2  UNL     1      13.831 -51.376 -42.427  1.00  0.00    -0.413 N 
ATOM     16  H2  UNL     1      13.428 -51.685 -43.311  1.00  0.00     0.153 HD
HETATM   17  C10 UNL     1      13.696 -50.042 -41.980  1.00  0.00     0.142 C 
HETATM   18  C11 UNL     1      15.000 -49.441 -41.502  1.00  0.00     0.252 C 
HETATM   19  N3  UNL     1      15.979 -50.430 -41.246  1.00  0.00    -0.063 N 
ATOM     20  H31 UNL     1      16.478 -50.670 -42.103  1.00  0.00     0.278 HD
ATOM     21  H32 UNL     1      16.748 -50.040 -40.702  1.00  0.00     0.278 HD
ENDROOT
TORSDOF 0
ENDMDL
MODEL 5
REMARK VINA RESULT: -6.078818291      3.084      5.114
REMARK  0 active torsions:
REMARK  status: ('A' for Active; 'I' for Inactive)
ROOT
HETATM    1  C1  UNL     1      13.280 -53.234 -38.754  1.00  0.00     0.048 C 
HETATM    2  C2  UNL     1      13.874 -54.339 -39.547  1.00  0.00     0.142 C 
HETATM    3  C3  UNL     1      13.827 -53.928 -41.024  1.00  0.00     0.042 C 
HETATM    4  C4  UNL     1      13.999 -52.477 -41.250  1.00  0.00     0.028 C 
HETATM    5  C5  UNL     1      15.066 -51.986 -42.180  1.00  0.00     0.151 C 
HETATM    6  S1  UNL     1      15.833 -50.490 -41.365  1.00  0.00    -0.077 SA
HETATM    7  S2  UNL     1      16.610 -51.406 -39.558  1.00  0.00    -0.043 SA
HETATM    8  C6  UNL     1      16.487 -53.125 -39.800  1.00  0.00     0.061 C 
HETATM    9  N1  UNL     1      16.363 -53.663 -40.967  1.00  0.00    -0.323 N 
ATOM     10  H1  UNL     1      16.318 -54.681 -41.022  1.00  0.00     0.169 HD
HETATM   11  C7  UNL     1      16.285 -52.940 -42.157  1.00  0.00     0.237 C 
HETATM   12  O1  UNL     1      17.019 -52.977 -43.108  1.00  0.00    -0.272 OA
HETATM   13  C8  UNL     1      16.267 -54.094 -38.637  1.00  0.00     0.092 C 
HETATM   14  C9  UNL     1      15.102 -54.981 -39.062  1.00  0.00     0.118 C 
HETATM   15  N2  UNL     1      14.953 -55.972 -38.055  1.00  0.00    -0.413 N 
ATOM     16  H2  UNL     1      15.687 -56.655 -37.868  1.00  0.00     0.153 HD
HETATM   17  C10 UNL     1      13.744 -55.968 -37.324  1.00  0.00     0.142 C 
HETATM   18  C11 UNL     1      12.518 -55.866 -38.207  1.00  0.00     0.252 C 
HETATM   19  N3  UNL     1      12.838 -55.419 -39.510  1.00  0.00    -0.063 N 
ATOM     20  H31 UNL     1      13.117 -56.204 -40.099  1.00  0.00     0.278 HD
ATOM     21  H32 UNL     1      11.995 -55.124 -40.004  1.00  0.00     0.278 HD
ENDROOT
TORSDOF 0
ENDMDL
