MODEL 1
REMARK VINA RESULT: -4.044283922      0.000      0.000
REMARK  2 active torsions:
REMARK  status: ('A' for Active; 'I' for Inactive)
REMARK    1  A    between atoms: C2_2  and  N1_4 
REMARK       I    between atoms: N1_4  and  C4_6 
REMARK    2  A    between atoms: C4_6  and  C5_8 
ROOT
HETATM    1  N1  UNL     1     -13.636  36.528  97.053  1.00  0.00    -0.357 N 
ATOM      2  H1  UNL     1     -14.095  36.820  96.190  1.00  0.00     0.162 HD
HETATM    3  C4  UNL     1     -13.015  37.515  97.860  1.00  0.00     0.225 C 
HETATM    4  O1  UNL     1     -12.444  37.176  98.927  1.00  0.00    -0.273 OA
ENDROOT
BRANCH   3   5
HETATM    5  C5  UNL     1     -13.014  38.939  97.486  1.00  0.00     0.129 C 
HETATM    6  C6  UNL     1     -12.249  39.260  96.199  1.00  0.00     0.248 C 
HETATM    7  N2  UNL     1     -11.026  39.152  97.009  1.00  0.00    -0.073 N 
HETATM    8  C7  UNL     1     -11.833  39.694  98.114  1.00  0.00     0.248 C 
ATOM      9  H22 UNL     1     -10.515  38.273  97.097  1.00  0.00     0.277 HD
ATOM     10  H21 UNL     1     -10.150  39.589  96.720  1.00  0.00     0.277 HD
ENDBRANCH   3   5
BRANCH   1  11
HETATM   11  C2  UNL     1     -13.646  35.143  97.400  1.00  0.00     0.076 C 
HETATM   12  C1  UNL     1     -14.928  34.445  97.008  1.00  0.00     0.032 C 
HETATM   13  C3  UNL     1     -12.515  34.424  96.656  1.00  0.00     0.032 C 
ENDBRANCH   1  11
TORSDOF 2
ENDMDL
MODEL 2
REMARK VINA RESULT: -4.041412877      1.755      2.128
REMARK  2 active torsions:
REMARK  status: ('A' for Active; 'I' for Inactive)
REMARK    1  A    between atoms: C2_2  and  N1_4 
REMARK       I    between atoms: N1_4  and  C4_6 
REMARK    2  A    between atoms: C4_6  and  C5_8 
ROOT
HETATM    1  N1  UNL     1     -15.079  36.100  96.458  1.00  0.00    -0.357 N 
ATOM      2  H1  UNL     1     -15.985  36.566  96.494  1.00  0.00     0.162 HD
HETATM    3  C4  UNL     1     -13.911  36.860  96.723  1.00  0.00     0.225 C 
HETATM    4  O1  UNL     1     -12.785  36.303  96.684  1.00  0.00    -0.273 OA
ENDROOT
BRANCH   3   5
HETATM    5  C5  UNL     1     -13.973  38.295  97.045  1.00  0.00     0.129 C 
HETATM    6  C6  UNL     1     -14.271  39.204  95.850  1.00  0.00     0.248 C 
HETATM    7  N2  UNL     1     -12.856  39.031  95.485  1.00  0.00    -0.073 N 
HETATM    8  C7  UNL     1     -12.597  38.966  96.932  1.00  0.00     0.248 C 
ATOM      9  H22 UNL     1     -12.552  38.292  94.851  1.00  0.00     0.277 HD
ATOM     10  H21 UNL     1     -12.372  39.696  94.882  1.00  0.00     0.277 HD
ENDBRANCH   3   5
BRANCH   1  11
HETATM   11  C2  UNL     1     -15.036  34.707  96.143  1.00  0.00     0.076 C 
HETATM   12  C1  UNL     1     -14.952  33.827  97.369  1.00  0.00     0.032 C 
HETATM   13  C3  UNL     1     -16.324  34.311  95.412  1.00  0.00     0.032 C 
ENDBRANCH   1  11
TORSDOF 2
ENDMDL
MODEL 3
REMARK VINA RESULT: -3.991267664      1.715      2.145
REMARK  2 active torsions:
REMARK  status: ('A' for Active; 'I' for Inactive)
REMARK    1  A    between atoms: C2_2  and  N1_4 
REMARK       I    between atoms: N1_4  and  C4_6 
REMARK    2  A    between atoms: C4_6  and  C5_8 
ROOT
HETATM    1  N1  UNL     1     -15.020  36.314  96.791  1.00  0.00    -0.357 N 
ATOM      2  H1  UNL     1     -15.922  36.720  97.038  1.00  0.00     0.162 HD
HETATM    3  C4  UNL     1     -13.847  37.082  97.003  1.00  0.00     0.225 C 
HETATM    4  O1  UNL     1     -12.725  36.598  96.705  1.00  0.00    -0.273 OA
ENDROOT
BRANCH   3   5
HETATM    5  C5  UNL     1     -13.898  38.441  97.565  1.00  0.00     0.129 C 
HETATM    6  C6  UNL     1     -12.528  39.078  97.818  1.00  0.00     0.248 C 
HETATM    7  N2  UNL     1     -12.468  38.245  99.029  1.00  0.00    -0.073 N 
HETATM    8  C7  UNL     1     -13.927  38.425  99.100  1.00  0.00     0.248 C 
ATOM      9  H22 UNL     1     -12.040  37.319  99.023  1.00  0.00     0.277 HD
ATOM     10  H21 UNL     1     -11.859  38.481  99.813  1.00  0.00     0.277 HD
ENDBRANCH   3   5
BRANCH   1  11
HETATM   11  C2  UNL     1     -14.990  34.994  96.246  1.00  0.00     0.076 C 
HETATM   12  C1  UNL     1     -14.844  33.922  97.302  1.00  0.00     0.032 C 
HETATM   13  C3  UNL     1     -16.310  34.712  95.520  1.00  0.00     0.032 C 
ENDBRANCH   1  11
TORSDOF 2
ENDMDL
MODEL 4
REMARK VINA RESULT: -3.959366878      8.058      8.767
REMARK  2 active torsions:
REMARK  status: ('A' for Active; 'I' for Inactive)
REMARK    1  A    between atoms: C2_2  and  N1_4 
REMARK       I    between atoms: N1_4  and  C4_6 
REMARK    2  A    between atoms: C4_6  and  C5_8 
ROOT
HETATM    1  N1  UNL     1     -20.390  40.404  94.977  1.00  0.00    -0.357 N 
ATOM      2  H1  UNL     1     -21.217  40.790  94.521  1.00  0.00     0.162 HD
HETATM    3  C4  UNL     1     -19.467  39.664  94.195  1.00  0.00     0.225 C 
HETATM    4  O1  UNL     1     -18.441  39.180  94.738  1.00  0.00    -0.273 OA
ENDROOT
BRANCH   3   5
HETATM    5  C5  UNL     1     -19.671  39.438  92.755  1.00  0.00     0.129 C 
HETATM    6  C6  UNL     1     -18.400  39.540  91.908  1.00  0.00     0.248 C 
HETATM    7  N2  UNL     1     -18.555  40.999  92.017  1.00  0.00    -0.073 N 
HETATM    8  C7  UNL     1     -20.004  40.741  92.014  1.00  0.00     0.248 C 
ATOM      9  H22 UNL     1     -18.106  41.533  92.761  1.00  0.00     0.277 HD
ATOM     10  H21 UNL     1     -18.122  41.637  91.349  1.00  0.00     0.277 HD
ENDBRANCH   3   5
BRANCH   1  11
HETATM   11  C2  UNL     1     -20.209  40.631  96.375  1.00  0.00     0.076 C 
HETATM   12  C1  UNL     1     -19.781  42.046  96.692  1.00  0.00     0.032 C 
HETATM   13  C3  UNL     1     -21.538  40.405  97.104  1.00  0.00     0.032 C 
ENDBRANCH   1  11
TORSDOF 2
ENDMDL
MODEL 5
REMARK VINA RESULT: -3.938881752      1.638      4.483
REMARK  2 active torsions:
REMARK  status: ('A' for Active; 'I' for Inactive)
REMARK    1  A    between atoms: C2_2  and  N1_4 
REMARK       I    between atoms: N1_4  and  C4_6 
REMARK    2  A    between atoms: C4_6  and  C5_8 
ROOT
HETATM    1  N1  UNL     1     -13.039  37.567  97.358  1.00  0.00    -0.357 N 
ATOM      2  H1  UNL     1     -12.119  37.422  97.773  1.00  0.00     0.162 HD
HETATM    3  C4  UNL     1     -13.937  36.471  97.296  1.00  0.00     0.225 C 
HETATM    4  O1  UNL     1     -15.076  36.629  96.788  1.00  0.00    -0.273 OA
ENDROOT
BRANCH   3   5
HETATM    5  C5  UNL     1     -13.577  35.139  97.810  1.00  0.00     0.129 C 
HETATM    6  C6  UNL     1     -12.612  34.352  96.920  1.00  0.00     0.248 C 
HETATM    7  N2  UNL     1     -13.780  34.052  96.078  1.00  0.00    -0.073 N 
HETATM    8  C7  UNL     1     -14.554  34.058  97.329  1.00  0.00     0.248 C 
ATOM      9  H22 UNL     1     -14.036  34.641  95.285  1.00  0.00     0.277 HD
ATOM     10  H21 UNL     1     -13.793  33.255  95.442  1.00  0.00     0.277 HD
ENDBRANCH   3   5
BRANCH   1  11
HETATM   11  C2  UNL     1     -13.372  38.865  96.863  1.00  0.00     0.076 C 
HETATM   12  C1  UNL     1     -13.649  39.863  97.964  1.00  0.00     0.032 C 
HETATM   13  C3  UNL     1     -12.191  39.421  96.060  1.00  0.00     0.032 C 
ENDBRANCH   1  11
TORSDOF 2
ENDMDL
