MODEL 1
REMARK VINA RESULT: -5.149464435      0.000      0.000
REMARK  1 active torsions:
REMARK  status: ('A' for Active; 'I' for Inactive)
REMARK       I    between atoms: C1_2  and  N2_4 
REMARK    1  A    between atoms: C2_6  and  C3_8 
ROOT
HETATM    1  N1  UNL     1     -12.647  37.447  99.248  1.00  0.00    -0.040 NA
HETATM    2  C1  UNL     1     -12.635  36.884  97.935  1.00  0.00     0.333 C 
HETATM    3  O1  UNL     1     -11.809  37.333  97.093  1.00  0.00    -0.251 OA
HETATM    4  N2  UNL     1     -13.544  35.857  97.646  1.00  0.00    -0.302 N 
ATOM      5  H2  UNL     1     -13.368  34.927  98.028  1.00  0.00     0.171 HD
HETATM    6  C2  UNL     1     -14.590  36.034  96.921  1.00  0.00     0.100 C 
HETATM    7  N3  UNL     1     -14.815  37.320  96.404  1.00  0.00    -0.087 NA
ENDROOT
BRANCH   6   8
HETATM    8  C3  UNL     1     -15.469  34.889  96.685  1.00  0.00     0.051 C 
HETATM    9  C4  UNL     1     -16.315  35.141  95.431  1.00  0.00     0.012 C 
HETATM   10  C5  UNL     1     -16.132  33.683  95.099  1.00  0.00     0.002 C 
HETATM   11  C6  UNL     1     -14.860  33.720  95.955  1.00  0.00     0.012 C 
ENDBRANCH   6   8
TORSDOF 1
ENDMDL
MODEL 2
REMARK VINA RESULT: -4.941552799      2.736      4.544
REMARK  1 active torsions:
REMARK  status: ('A' for Active; 'I' for Inactive)
REMARK       I    between atoms: C1_2  and  N2_4 
REMARK    1  A    between atoms: C2_6  and  C3_8 
ROOT
HETATM    1  N1  UNL     1     -15.808  33.758  94.452  1.00  0.00    -0.040 NA
HETATM    2  C1  UNL     1     -16.247  34.530  95.570  1.00  0.00     0.333 C 
HETATM    3  O1  UNL     1     -17.478  34.789  95.679  1.00  0.00    -0.251 OA
HETATM    4  N2  UNL     1     -15.287  34.962  96.496  1.00  0.00    -0.302 N 
ATOM      5  H2  UNL     1     -14.892  34.280  97.143  1.00  0.00     0.171 HD
HETATM    6  C2  UNL     1     -14.884  36.181  96.565  1.00  0.00     0.100 C 
HETATM    7  N3  UNL     1     -15.440  37.104  95.665  1.00  0.00    -0.087 NA
ENDROOT
BRANCH   6   8
HETATM    8  C3  UNL     1     -13.877  36.519  97.571  1.00  0.00     0.051 C 
HETATM    9  C4  UNL     1     -12.567  36.906  96.877  1.00  0.00     0.012 C 
HETATM   10  C5  UNL     1     -12.402  37.969  97.932  1.00  0.00     0.002 C 
HETATM   11  C6  UNL     1     -13.924  37.923  98.115  1.00  0.00     0.012 C 
ENDBRANCH   6   8
TORSDOF 1
ENDMDL
MODEL 3
REMARK VINA RESULT: -4.909293643      1.880      2.510
REMARK  1 active torsions:
REMARK  status: ('A' for Active; 'I' for Inactive)
REMARK       I    between atoms: C1_2  and  N2_4 
REMARK    1  A    between atoms: C2_6  and  C3_8 
ROOT
HETATM    1  N1  UNL     1      -9.898  37.878  96.562  1.00  0.00    -0.040 NA
HETATM    2  C1  UNL     1     -11.302  38.131  96.641  1.00  0.00     0.333 C 
HETATM    3  O1  UNL     1     -11.701  39.329  96.618  1.00  0.00    -0.251 OA
HETATM    4  N2  UNL     1     -12.169  37.034  96.738  1.00  0.00    -0.302 N 
ATOM      5  H2  UNL     1     -12.335  36.468  95.906  1.00  0.00     0.171 HD
HETATM    6  C2  UNL     1     -12.765  36.711  97.830  1.00  0.00     0.100 C 
HETATM    7  N3  UNL     1     -12.524  37.503  98.964  1.00  0.00    -0.087 NA
ENDROOT
BRANCH   6   8
HETATM    8  C3  UNL     1     -13.649  35.545  97.815  1.00  0.00     0.051 C 
HETATM    9  C4  UNL     1     -14.774  35.767  96.798  1.00  0.00     0.012 C 
HETATM   10  C5  UNL     1     -14.641  34.309  96.438  1.00  0.00     0.002 C 
HETATM   11  C6  UNL     1     -13.203  34.382  96.967  1.00  0.00     0.012 C 
ENDBRANCH   6   8
TORSDOF 1
ENDMDL
MODEL 4
REMARK VINA RESULT: -4.880227580      2.687      4.471
REMARK  1 active torsions:
REMARK  status: ('A' for Active; 'I' for Inactive)
REMARK       I    between atoms: C1_2  and  N2_4 
REMARK    1  A    between atoms: C2_6  and  C3_8 
ROOT
HETATM    1  N1  UNL     1     -17.639  34.920  95.613  1.00  0.00    -0.040 NA
HETATM    2  C1  UNL     1     -16.242  34.761  95.362  1.00  0.00     0.333 C 
HETATM    3  O1  UNL     1     -15.873  33.878  94.540  1.00  0.00    -0.251 OA
HETATM    4  N2  UNL     1     -15.347  35.598  96.044  1.00  0.00    -0.302 N 
ATOM      5  H2  UNL     1     -15.273  36.573  95.752  1.00  0.00     0.171 HD
HETATM    6  C2  UNL     1     -14.617  35.192  97.020  1.00  0.00     0.100 C 
HETATM    7  N3  UNL     1     -14.735  33.847  97.406  1.00  0.00    -0.087 NA
ENDROOT
BRANCH   6   8
HETATM    8  C3  UNL     1     -13.718  36.153  97.657  1.00  0.00     0.051 C 
HETATM    9  C4  UNL     1     -12.311  36.012  97.065  1.00  0.00     0.012 C 
HETATM   10  C5  UNL     1     -12.205  37.513  97.139  1.00  0.00     0.002 C 
HETATM   11  C6  UNL     1     -13.737  37.553  97.101  1.00  0.00     0.012 C 
ENDBRANCH   6   8
TORSDOF 1
ENDMDL
MODEL 5
REMARK VINA RESULT: -4.801320554      1.510      1.909
REMARK  1 active torsions:
REMARK  status: ('A' for Active; 'I' for Inactive)
REMARK       I    between atoms: C1_2  and  N2_4 
REMARK    1  A    between atoms: C2_6  and  C3_8 
ROOT
HETATM    1  N1  UNL     1     -13.072  39.032  97.771  1.00  0.00    -0.040 NA
HETATM    2  C1  UNL     1     -12.968  37.858  98.579  1.00  0.00     0.333 C 
HETATM    3  O1  UNL     1     -12.198  37.879  99.579  1.00  0.00    -0.251 OA
HETATM    4  N2  UNL     1     -13.729  36.737  98.219  1.00  0.00    -0.302 N 
ATOM      5  H2  UNL     1     -14.733  36.750  98.398  1.00  0.00     0.171 HD
HETATM    6  C2  UNL     1     -13.216  35.692  97.673  1.00  0.00     0.100 C 
HETATM    7  N3  UNL     1     -11.833  35.693  97.435  1.00  0.00    -0.087 NA
ENDROOT
BRANCH   6   8
HETATM    8  C3  UNL     1     -14.107  34.580  97.340  1.00  0.00     0.051 C 
HETATM    9  C4  UNL     1     -15.450  35.128  96.845  1.00  0.00     0.012 C 
HETATM   10  C5  UNL     1     -15.456  34.008  95.837  1.00  0.00     0.002 C 
HETATM   11  C6  UNL     1     -13.929  33.971  95.973  1.00  0.00     0.012 C 
ENDBRANCH   6   8
TORSDOF 1
ENDMDL
