MODEL 1
REMARK VINA RESULT: -4.164967343      0.000      0.000
REMARK  2 active torsions:
REMARK  status: ('A' for Active; 'I' for Inactive)
REMARK    1  A    between atoms: C2_2  and  C4_4 
REMARK    2  A    between atoms: C2_2  and  C5_7 
ROOT
HETATM    1  C5  UNL     1     -21.569  40.568  96.644  1.00  0.00     0.204 A 
HETATM    2  C6  UNL     1     -20.771  39.869  95.593  1.00  0.00     0.062 A 
HETATM    3  C7  UNL     1     -21.971  39.969  94.676  1.00  0.00     0.235 A 
HETATM    4  N2  UNL     1     -22.679  40.692  95.718  1.00  0.00    -0.070 N 
ATOM      5  H21 UNL     1     -23.049  41.620  95.511  1.00  0.00     0.277 HD
ATOM      6  H22 UNL     1     -23.601  40.365  96.006  1.00  0.00     0.277 HD
ENDROOT
BRANCH   1   7
HETATM    7  C2  UNL     1     -21.089  41.928  97.064  1.00  0.00     0.059 C 
HETATM    8  C1  UNL     1     -19.594  42.091  96.862  1.00  0.00     0.027 C 
HETATM    9  C3  UNL     1     -21.309  41.978  98.586  1.00  0.00     0.027 C 
BRANCH   7  10
HETATM   10  C4  UNL     1     -21.765  43.038  96.391  1.00  0.00     0.241 C 
HETATM   11  N1  UNL     1     -22.744  43.828  97.040  1.00  0.00    -0.061 NA
HETATM   12  O1  UNL     1     -21.510  43.355  95.182  1.00  0.00    -0.276 OA
ENDBRANCH   7  10
ENDBRANCH   1   7
TORSDOF 2
ENDMDL
MODEL 2
REMARK VINA RESULT: -4.019696422      1.335      1.672
REMARK  2 active torsions:
REMARK  status: ('A' for Active; 'I' for Inactive)
REMARK    1  A    between atoms: C2_2  and  C4_4 
REMARK    2  A    between atoms: C2_2  and  C5_7 
ROOT
HETATM    1  C5  UNL     1     -22.283  40.147  95.182  1.00  0.00     0.204 A 
HETATM    2  C6  UNL     1     -21.962  39.546  93.853  1.00  0.00     0.062 A 
HETATM    3  C7  UNL     1     -22.935  40.520  93.224  1.00  0.00     0.235 A 
HETATM    4  N2  UNL     1     -23.167  41.100  94.535  1.00  0.00    -0.070 N 
ATOM      5  H21 UNL     1     -23.002  42.097  94.669  1.00  0.00     0.277 HD
ATOM      6  H22 UNL     1     -24.126  41.191  94.872  1.00  0.00     0.277 HD
ENDROOT
BRANCH   1   7
HETATM    7  C2  UNL     1     -21.169  40.868  95.885  1.00  0.00     0.059 C 
HETATM    8  C1  UNL     1     -19.806  40.327  95.494  1.00  0.00     0.027 C 
HETATM    9  C3  UNL     1     -21.342  40.519  97.373  1.00  0.00     0.027 C 
BRANCH   7  10
HETATM   10  C4  UNL     1     -21.163  42.316  95.674  1.00  0.00     0.241 C 
HETATM   11  N1  UNL     1     -21.743  43.214  96.603  1.00  0.00    -0.061 NA
HETATM   12  O1  UNL     1     -20.637  42.851  94.642  1.00  0.00    -0.276 OA
ENDBRANCH   7  10
ENDBRANCH   1   7
TORSDOF 2
ENDMDL
MODEL 3
REMARK VINA RESULT: -3.889595179      2.043      2.749
REMARK  2 active torsions:
REMARK  status: ('A' for Active; 'I' for Inactive)
REMARK    1  A    between atoms: C2_2  and  C4_4 
REMARK    2  A    between atoms: C2_2  and  C5_7 
ROOT
HETATM    1  C5  UNL     1     -22.242  40.640  94.728  1.00  0.00     0.204 A 
HETATM    2  C6  UNL     1     -22.543  41.615  93.637  1.00  0.00     0.062 A 
HETATM    3  C7  UNL     1     -23.743  42.075  94.437  1.00  0.00     0.235 A 
HETATM    4  N2  UNL     1     -23.370  41.146  95.489  1.00  0.00    -0.070 N 
ATOM      5  H21 UNL     1     -23.211  41.504  96.430  1.00  0.00     0.277 HD
ATOM      6  H22 UNL     1     -24.068  40.486  95.835  1.00  0.00     0.277 HD
ENDROOT
BRANCH   1   7
HETATM    7  C2  UNL     1     -20.966  40.852  95.491  1.00  0.00     0.059 C 
HETATM    8  C1  UNL     1     -20.150  42.001  94.927  1.00  0.00     0.027 C 
HETATM    9  C3  UNL     1     -20.130  39.586  95.233  1.00  0.00     0.027 C 
BRANCH   7  10
HETATM   10  C4  UNL     1     -21.153  41.084  96.923  1.00  0.00     0.241 C 
HETATM   11  N1  UNL     1     -20.861  42.331  97.528  1.00  0.00    -0.061 NA
HETATM   12  O1  UNL     1     -21.587  40.177  97.708  1.00  0.00    -0.276 OA
ENDBRANCH   7  10
ENDBRANCH   1   7
TORSDOF 2
ENDMDL
MODEL 4
REMARK VINA RESULT: -3.879886541      9.493     10.334
REMARK  2 active torsions:
REMARK  status: ('A' for Active; 'I' for Inactive)
REMARK    1  A    between atoms: C2_2  and  C4_4 
REMARK    2  A    between atoms: C2_2  and  C5_7 
ROOT
HETATM    1  C5  UNL     1     -12.302  37.409  96.247  1.00  0.00     0.204 A 
HETATM    2  C6  UNL     1     -11.073  36.577  96.084  1.00  0.00     0.062 A 
HETATM    3  C7  UNL     1     -10.250  37.803  96.416  1.00  0.00     0.235 A 
HETATM    4  N2  UNL     1     -11.481  38.549  96.613  1.00  0.00    -0.070 N 
ATOM      5  H21 UNL     1     -11.642  39.006  97.509  1.00  0.00     0.277 HD
ATOM      6  H22 UNL     1     -11.609  39.430  96.115  1.00  0.00     0.277 HD
ENDROOT
BRANCH   1   7
HETATM    7  C2  UNL     1     -13.220  37.046  97.379  1.00  0.00     0.059 C 
HETATM    8  C1  UNL     1     -13.038  35.605  97.818  1.00  0.00     0.027 C 
HETATM    9  C3  UNL     1     -14.637  37.123  96.786  1.00  0.00     0.027 C 
BRANCH   7  10
HETATM   10  C4  UNL     1     -13.088  37.903  98.558  1.00  0.00     0.241 C 
HETATM   11  N1  UNL     1     -13.772  39.138  98.671  1.00  0.00    -0.061 NA
HETATM   12  O1  UNL     1     -12.348  37.587  99.548  1.00  0.00    -0.276 OA
ENDBRANCH   7  10
ENDBRANCH   1   7
TORSDOF 2
ENDMDL
MODEL 5
REMARK VINA RESULT: -3.878731734      2.363      3.852
REMARK  2 active torsions:
REMARK  status: ('A' for Active; 'I' for Inactive)
REMARK    1  A    between atoms: C2_2  and  C4_4 
REMARK    2  A    between atoms: C2_2  and  C5_7 
ROOT
HETATM    1  C5  UNL     1     -20.081  39.924  95.525  1.00  0.00     0.204 A 
HETATM    2  C6  UNL     1     -21.023  40.308  96.619  1.00  0.00     0.062 A 
HETATM    3  C7  UNL     1     -20.221  41.579  96.805  1.00  0.00     0.235 A 
HETATM    4  N2  UNL     1     -19.371  41.178  95.698  1.00  0.00    -0.070 N 
ATOM      5  H21 UNL     1     -19.273  41.804  94.899  1.00  0.00     0.277 HD
ATOM      6  H22 UNL     1     -18.360  41.159  95.834  1.00  0.00     0.277 HD
ENDROOT
BRANCH   1   7
HETATM    7  C2  UNL     1     -20.653  39.838  94.140  1.00  0.00     0.059 C 
HETATM    8  C1  UNL     1     -22.138  39.521  94.156  1.00  0.00     0.027 C 
HETATM    9  C3  UNL     1     -19.976  38.614  93.501  1.00  0.00     0.027 C 
BRANCH   7  10
HETATM   10  C4  UNL     1     -20.453  41.041  93.331  1.00  0.00     0.241 C 
HETATM   11  N1  UNL     1     -21.371  42.119  93.344  1.00  0.00    -0.061 NA
HETATM   12  O1  UNL     1     -19.441  41.186  92.567  1.00  0.00    -0.276 OA
ENDBRANCH   7  10
ENDBRANCH   1   7
TORSDOF 2
ENDMDL
