MODEL 1
REMARK VINA RESULT: -4.983834037      0.000      0.000
REMARK  2 active torsions:
REMARK  status: ('A' for Active; 'I' for Inactive)
REMARK    1  A    between atoms: C2_3  and  C4_5 
REMARK    2  A    between atoms: C6_7  and  C7_8 
ROOT
HETATM    1  C1  UNL     1     -13.915  38.020  96.932  1.00  0.00     0.221 C 
HETATM    2  N1  UNL     1     -13.461  36.960  97.035  1.00  0.00    -0.466 NA
HETATM    3  C2  UNL     1     -12.890  35.679  97.173  1.00  0.00     0.162 C 
HETATM    4  C3  UNL     1     -11.578  35.691  96.421  1.00  0.00     0.048 C 
ENDROOT
BRANCH   3   5
HETATM    5  C4  UNL     1     -13.837  34.633  96.647  1.00  0.00     0.033 A 
HETATM    6  C5  UNL     1     -14.623  33.763  97.515  1.00  0.00     0.020 A 
HETATM    7  C6  UNL     1     -15.309  34.852  96.689  1.00  0.00     0.057 A 
BRANCH   7   8
HETATM    8  C7  UNL     1     -16.153  34.388  95.548  1.00  0.00     0.091 C 
HETATM    9  N2  UNL     1     -15.706  33.666  94.598  1.00  0.00    -0.391 N 
ATOM     10  H22 UNL     1     -14.727  33.383  94.603  1.00  0.00     0.157 HD
ATOM     11  H21 UNL     1     -16.282  33.349  93.818  1.00  0.00     0.157 HD
HETATM   12  N3  UNL     1     -17.513  34.781  95.541  1.00  0.00    -0.088 NA
ENDBRANCH   7   8
ENDBRANCH   3   5
TORSDOF 2
ENDMDL
MODEL 2
REMARK VINA RESULT: -4.815484154      7.131      8.579
REMARK  2 active torsions:
REMARK  status: ('A' for Active; 'I' for Inactive)
REMARK    1  A    between atoms: C2_3  and  C4_5 
REMARK    2  A    between atoms: C6_7  and  C7_8 
ROOT
HETATM    1  C1  UNL     1     -17.470  39.369  94.408  1.00  0.00     0.221 C 
HETATM    2  N1  UNL     1     -18.608  39.246  94.584  1.00  0.00    -0.466 NA
HETATM    3  C2  UNL     1     -19.990  39.073  94.793  1.00  0.00     0.162 C 
HETATM    4  C3  UNL     1     -20.601  38.705  93.458  1.00  0.00     0.048 C 
ENDROOT
BRANCH   3   5
HETATM    5  C4  UNL     1     -20.588  40.332  95.363  1.00  0.00     0.033 A 
HETATM    6  C5  UNL     1     -22.020  40.501  95.586  1.00  0.00     0.020 A 
HETATM    7  C6  UNL     1     -21.065  40.373  96.773  1.00  0.00     0.057 A 
BRANCH   7   8
HETATM    8  C7  UNL     1     -20.845  41.607  97.585  1.00  0.00     0.091 C 
HETATM    9  N2  UNL     1     -21.581  41.934  98.572  1.00  0.00    -0.391 N 
ATOM     10  H22 UNL     1     -22.363  41.334  98.833  1.00  0.00     0.157 HD
ATOM     11  H21 UNL     1     -21.430  42.777  99.127  1.00  0.00     0.157 HD
HETATM   12  N3  UNL     1     -19.758  42.440  97.223  1.00  0.00    -0.088 NA
ENDBRANCH   7   8
ENDBRANCH   3   5
TORSDOF 2
ENDMDL
MODEL 3
REMARK VINA RESULT: -4.688615323      0.956      1.561
REMARK  2 active torsions:
REMARK  status: ('A' for Active; 'I' for Inactive)
REMARK    1  A    between atoms: C2_3  and  C4_5 
REMARK    2  A    between atoms: C6_7  and  C7_8 
ROOT
HETATM    1  C1  UNL     1     -10.840  36.737  96.277  1.00  0.00     0.221 C 
HETATM    2  N1  UNL     1     -11.939  36.651  96.630  1.00  0.00    -0.466 NA
HETATM    3  C2  UNL     1     -13.275  36.567  97.068  1.00  0.00     0.162 C 
HETATM    4  C3  UNL     1     -13.257  36.653  98.578  1.00  0.00     0.048 C 
ENDROOT
BRANCH   3   5
HETATM    5  C4  UNL     1     -13.899  35.286  96.581  1.00  0.00     0.033 A 
HETATM    6  C5  UNL     1     -14.372  34.239  97.481  1.00  0.00     0.020 A 
HETATM    7  C6  UNL     1     -15.371  35.074  96.678  1.00  0.00     0.057 A 
BRANCH   7   8
HETATM    8  C7  UNL     1     -16.085  34.373  95.571  1.00  0.00     0.091 C 
HETATM    9  N2  UNL     1     -15.493  33.648  94.706  1.00  0.00    -0.391 N 
ATOM     10  H22 UNL     1     -14.482  33.532  94.760  1.00  0.00     0.157 HD
ATOM     11  H21 UNL     1     -15.982  33.169  93.949  1.00  0.00     0.157 HD
HETATM   12  N3  UNL     1     -17.490  34.535  95.497  1.00  0.00    -0.088 NA
ENDBRANCH   7   8
ENDBRANCH   3   5
TORSDOF 2
ENDMDL
MODEL 4
REMARK VINA RESULT: -4.455780990      1.701      2.138
REMARK  2 active torsions:
REMARK  status: ('A' for Active; 'I' for Inactive)
REMARK    1  A    between atoms: C2_3  and  C4_5 
REMARK    2  A    between atoms: C6_7  and  C7_8 
ROOT
HETATM    1  C1  UNL     1     -13.664  39.043  95.312  1.00  0.00     0.221 C 
HETATM    2  N1  UNL     1     -12.946  38.439  95.990  1.00  0.00    -0.466 NA
HETATM    3  C2  UNL     1     -12.059  37.722  96.817  1.00  0.00     0.162 C 
HETATM    4  C3  UNL     1     -10.749  37.604  96.071  1.00  0.00     0.048 C 
ENDROOT
BRANCH   3   5
HETATM    5  C4  UNL     1     -12.642  36.376  97.156  1.00  0.00     0.033 A 
HETATM    6  C5  UNL     1     -13.243  36.073  98.451  1.00  0.00     0.020 A 
HETATM    7  C6  UNL     1     -14.118  36.178  97.201  1.00  0.00     0.057 A 
BRANCH   7   8
HETATM    8  C7  UNL     1     -14.703  34.903  96.689  1.00  0.00     0.091 C 
HETATM    9  N2  UNL     1     -13.996  33.930  96.268  1.00  0.00    -0.391 N 
ATOM     10  H22 UNL     1     -12.979  34.011  96.275  1.00  0.00     0.157 HD
ATOM     11  H21 UNL     1     -14.395  33.059  95.919  1.00  0.00     0.157 HD
HETATM   12  N3  UNL     1     -16.114  34.791  96.680  1.00  0.00    -0.088 NA
ENDBRANCH   7   8
ENDBRANCH   3   5
TORSDOF 2
ENDMDL
MODEL 5
REMARK VINA RESULT: -4.410667884      7.228      8.469
REMARK  2 active torsions:
REMARK  status: ('A' for Active; 'I' for Inactive)
REMARK    1  A    between atoms: C2_3  and  C4_5 
REMARK    2  A    between atoms: C6_7  and  C7_8 
ROOT
HETATM    1  C1  UNL     1     -18.534  39.745  91.911  1.00  0.00     0.221 C 
HETATM    2  N1  UNL     1     -19.234  39.342  92.740  1.00  0.00    -0.466 NA
HETATM    3  C2  UNL     1     -20.094  38.836  93.734  1.00  0.00     0.162 C 
HETATM    4  C3  UNL     1     -21.511  39.111  93.281  1.00  0.00     0.048 C 
ENDROOT
BRANCH   3   5
HETATM    5  C4  UNL     1     -19.788  39.481  95.060  1.00  0.00     0.033 A 
HETATM    6  C5  UNL     1     -18.850  40.589  95.208  1.00  0.00     0.020 A 
HETATM    7  C6  UNL     1     -20.350  40.817  95.401  1.00  0.00     0.057 A 
BRANCH   7   8
HETATM    8  C7  UNL     1     -20.807  41.085  96.798  1.00  0.00     0.091 C 
HETATM    9  N2  UNL     1     -21.638  40.344  97.415  1.00  0.00    -0.391 N 
ATOM     10  H22 UNL     1     -22.020  39.522  96.946  1.00  0.00     0.157 HD
ATOM     11  H21 UNL     1     -21.950  40.526  98.369  1.00  0.00     0.157 HD
HETATM   12  N3  UNL     1     -20.276  42.226  97.449  1.00  0.00    -0.088 NA
ENDBRANCH   7   8
ENDBRANCH   3   5
TORSDOF 2
ENDMDL
