MODEL 1
REMARK VINA RESULT: -7.587923569      0.000      0.000
REMARK  2 active torsions:
REMARK  status: ('A' for Active; 'I' for Inactive)
REMARK    1  A    between atoms: C2_2  and  C4_4 
REMARK    2  A    between atoms: C8_8  and  N1_9 
REMARK       I    between atoms: N1_9  and  C9_11 
ROOT
HETATM    1  C4  UNL     1      -8.220  34.524 -10.264  1.00  0.00     0.012 C 
HETATM    2  C5  UNL     1      -6.849  34.986 -10.710  1.00  0.00     0.007 C 
HETATM    3  C6  UNL     1      -7.078  36.486 -10.699  1.00  0.00     0.002 C 
HETATM    4  C7  UNL     1      -8.441  36.609 -11.318  1.00  0.00     0.025 C 
HETATM    5  C8  UNL     1      -9.107  35.257 -11.215  1.00  0.00     0.088 C 
ENDROOT
BRANCH   5   6
HETATM    6  N1  UNL     1     -10.474  35.319 -10.807  1.00  0.00    -0.360 N 
HETATM    7  C9  UNL     1     -11.494  35.049 -11.762  1.00  0.00     0.182 C 
HETATM    8  N2  UNL     1     -12.717  35.465 -11.579  1.00  0.00    -0.374 N 
HETATM    9  N3  UNL     1     -11.243  34.318 -12.956  1.00  0.00    -0.064 NA
ATOM     10  H22 UNL     1     -12.897  35.989 -10.722  1.00  0.00     0.158 HD
ATOM     11  H21 UNL     1     -13.449  35.271 -12.263  1.00  0.00     0.158 HD
ATOM     12  H1  UNL     1     -10.716  35.555  -9.845  1.00  0.00     0.162 HD
ENDBRANCH   5   6
BRANCH   1  13
HETATM   13  C2  UNL     1      -8.375  33.048 -10.261  1.00  0.00    -0.017 C 
HETATM   14  C1  UNL     1      -8.563  32.429 -11.603  1.00  0.00     0.010 C 
HETATM   15  C3  UNL     1      -7.151  32.454  -9.574  1.00  0.00     0.010 C 
ENDBRANCH   1  13
TORSDOF 2
ENDMDL
MODEL 2
REMARK VINA RESULT: -7.389170407      1.100      2.980
REMARK  2 active torsions:
REMARK  status: ('A' for Active; 'I' for Inactive)
REMARK    1  A    between atoms: C2_2  and  C4_4 
REMARK    2  A    between atoms: C8_8  and  N1_9 
REMARK       I    between atoms: N1_9  and  C9_11 
ROOT
HETATM    1  C4  UNL     1      -8.430  34.542 -10.804  1.00  0.00     0.012 C 
HETATM    2  C5  UNL     1      -7.679  33.435 -10.097  1.00  0.00     0.007 C 
HETATM    3  C6  UNL     1      -7.881  32.317 -11.103  1.00  0.00     0.002 C 
HETATM    4  C7  UNL     1      -9.324  32.482 -11.483  1.00  0.00     0.025 C 
HETATM    5  C8  UNL     1      -9.737  33.881 -11.091  1.00  0.00     0.088 C 
ENDROOT
BRANCH   5   6
HETATM    6  N1  UNL     1     -10.522  34.547 -12.081  1.00  0.00    -0.360 N 
HETATM    7  C9  UNL     1     -11.836  34.980 -11.747  1.00  0.00     0.182 C 
HETATM    8  N2  UNL     1     -12.723  35.219 -12.673  1.00  0.00    -0.374 N 
HETATM    9  N3  UNL     1     -12.252  35.176 -10.401  1.00  0.00    -0.064 NA
ATOM     10  H22 UNL     1     -12.424  35.078 -13.638  1.00  0.00     0.158 HD
ATOM     11  H21 UNL     1     -13.665  35.530 -12.433  1.00  0.00     0.158 HD
ATOM     12  H1  UNL     1     -10.146  34.708 -13.016  1.00  0.00     0.162 HD
ENDBRANCH   5   6
BRANCH   1  13
HETATM   13  C2  UNL     1      -8.513  35.798 -10.017  1.00  0.00    -0.017 C 
HETATM   14  C1  UNL     1      -7.433  35.983  -9.008  1.00  0.00     0.010 C 
HETATM   15  C3  UNL     1      -8.522  36.963 -10.999  1.00  0.00     0.010 C 
ENDBRANCH   1  13
TORSDOF 2
ENDMDL
MODEL 3
REMARK VINA RESULT: -7.203617004      2.125      3.828
REMARK  2 active torsions:
REMARK  status: ('A' for Active; 'I' for Inactive)
REMARK    1  A    between atoms: C2_2  and  C4_4 
REMARK    2  A    between atoms: C8_8  and  N1_9 
REMARK       I    between atoms: N1_9  and  C9_11 
ROOT
HETATM    1  C4  UNL     1      -9.579  33.271 -11.119  1.00  0.00     0.012 C 
HETATM    2  C5  UNL     1      -9.085  31.962 -11.697  1.00  0.00     0.007 C 
HETATM    3  C6  UNL     1      -8.166  31.527 -10.570  1.00  0.00     0.002 C 
HETATM    4  C7  UNL     1      -7.466  32.806 -10.212  1.00  0.00     0.025 C 
HETATM    5  C8  UNL     1      -8.296  33.943 -10.760  1.00  0.00     0.088 C 
ENDROOT
BRANCH   5   6
HETATM    6  N1  UNL     1      -8.444  35.035  -9.851  1.00  0.00    -0.360 N 
HETATM    7  C9  UNL     1      -8.201  36.358 -10.314  1.00  0.00     0.182 C 
HETATM    8  N2  UNL     1      -7.931  37.326  -9.482  1.00  0.00    -0.374 N 
HETATM    9  N3  UNL     1      -8.239  36.700 -11.695  1.00  0.00    -0.064 NA
ATOM     10  H22 UNL     1      -7.904  37.081  -8.492  1.00  0.00     0.158 HD
ATOM     11  H21 UNL     1      -7.757  38.275  -9.814  1.00  0.00     0.158 HD
ATOM     12  H1  UNL     1      -8.720  34.868  -8.883  1.00  0.00     0.162 HD
ENDBRANCH   5   6
BRANCH   1  13
HETATM   13  C2  UNL     1     -10.457  34.032 -12.044  1.00  0.00    -0.017 C 
HETATM   14  C1  UNL     1     -11.103  33.220 -13.113  1.00  0.00     0.010 C 
HETATM   15  C3  UNL     1     -11.516  34.738 -11.206  1.00  0.00     0.010 C 
ENDBRANCH   1  13
TORSDOF 2
ENDMDL
MODEL 4
REMARK VINA RESULT: -7.111617286      1.227      2.742
REMARK  2 active torsions:
REMARK  status: ('A' for Active; 'I' for Inactive)
REMARK    1  A    between atoms: C2_2  and  C4_4 
REMARK    2  A    between atoms: C8_8  and  N1_9 
REMARK       I    between atoms: N1_9  and  C9_11 
ROOT
HETATM    1  C4  UNL     1      -7.766  34.660 -10.656  1.00  0.00     0.012 C 
HETATM    2  C5  UNL     1      -7.311  33.413  -9.927  1.00  0.00     0.007 C 
HETATM    3  C6  UNL     1      -7.954  32.362 -10.813  1.00  0.00     0.002 C 
HETATM    4  C7  UNL     1      -9.312  32.946 -11.074  1.00  0.00     0.025 C 
HETATM    5  C8  UNL     1      -9.235  34.424 -10.767  1.00  0.00     0.088 C 
ENDROOT
BRANCH   5   6
HETATM    6  N1  UNL     1      -9.886  35.246 -11.736  1.00  0.00    -0.360 N 
HETATM    7  C9  UNL     1     -11.306  35.339 -11.723  1.00  0.00     0.182 C 
HETATM    8  N2  UNL     1     -11.967  35.727 -12.779  1.00  0.00    -0.374 N 
HETATM    9  N3  UNL     1     -12.078  35.018 -10.572  1.00  0.00    -0.064 NA
ATOM     10  H22 UNL     1     -11.413  35.957 -13.604  1.00  0.00     0.158 HD
ATOM     11  H21 UNL     1     -12.985  35.794 -12.769  1.00  0.00     0.158 HD
ATOM     12  H1  UNL     1      -9.341  35.759 -12.429  1.00  0.00     0.162 HD
ENDBRANCH   5   6
BRANCH   1  13
HETATM   13  C2  UNL     1      -7.375  35.920  -9.974  1.00  0.00    -0.017 C 
HETATM   14  C1  UNL     1      -8.487  36.642  -9.295  1.00  0.00     0.010 C 
HETATM   15  C3  UNL     1      -6.276  35.584  -8.973  1.00  0.00     0.010 C 
ENDBRANCH   1  13
TORSDOF 2
ENDMDL
MODEL 5
REMARK VINA RESULT: -6.950099603      2.285      4.322
REMARK  2 active torsions:
REMARK  status: ('A' for Active; 'I' for Inactive)
REMARK    1  A    between atoms: C2_2  and  C4_4 
REMARK    2  A    between atoms: C8_8  and  N1_9 
REMARK       I    between atoms: N1_9  and  C9_11 
ROOT
HETATM    1  C4  UNL     1      -9.874  33.696 -11.138  1.00  0.00     0.012 C 
HETATM    2  C5  UNL     1      -9.656  32.588 -12.147  1.00  0.00     0.007 C 
HETATM    3  C6  UNL     1      -8.605  31.783 -11.406  1.00  0.00     0.002 C 
HETATM    4  C7  UNL     1      -7.702  32.853 -10.864  1.00  0.00     0.025 C 
HETATM    5  C8  UNL     1      -8.476  34.151 -10.887  1.00  0.00     0.088 C 
ENDROOT
BRANCH   5   6
HETATM    6  N1  UNL     1      -8.321  34.932  -9.701  1.00  0.00    -0.360 N 
HETATM    7  C9  UNL     1      -7.291  35.913  -9.648  1.00  0.00     0.182 C 
HETATM    8  N2  UNL     1      -6.846  36.363  -8.507  1.00  0.00    -0.374 N 
HETATM    9  N3  UNL     1      -6.694  36.453 -10.821  1.00  0.00    -0.064 NA
ATOM     10  H22 UNL     1      -7.274  35.975  -7.666  1.00  0.00     0.158 HD
ATOM     11  H21 UNL     1      -6.107  37.066  -8.469  1.00  0.00     0.158 HD
ATOM     12  H1  UNL     1      -8.940  34.789  -8.903  1.00  0.00     0.162 HD
ENDBRANCH   5   6
BRANCH   1  13
HETATM   13  C2  UNL     1     -10.810  34.749 -11.609  1.00  0.00    -0.017 C 
HETATM   14  C1  UNL     1     -10.161  35.985 -12.125  1.00  0.00     0.010 C 
HETATM   15  C3  UNL     1     -11.701  34.133 -12.681  1.00  0.00     0.010 C 
ENDBRANCH   1  13
TORSDOF 2
ENDMDL
