MODEL 1
REMARK VINA RESULT: -5.885040574      0.000      0.000
REMARK  4 active torsions:
REMARK  status: ('A' for Active; 'I' for Inactive)
REMARK    1  A    between atoms: N1_2  and  C2_4 
REMARK    2  A    between atoms: C2_4  and  N2_6 
REMARK    3  A    between atoms: N2_6  and  C3_8 
REMARK    4  A    between atoms: C5_10  and  C6_11 
ROOT
HETATM    1  N2  UNL     1      -7.844  35.489 -11.094  1.00  0.00    -0.362 N 
ATOM      2  H2  UNL     1      -6.979  35.550 -11.632  1.00  0.00     0.162 HD
ENDROOT
BRANCH   1   3
HETATM    3  C2  UNL     1      -8.703  36.617 -11.067  1.00  0.00     0.167 C 
HETATM    4  S1  UNL     1      -9.981  36.726 -12.094  1.00  0.00    -0.041 SA
BRANCH   3   5
HETATM    5  N1  UNL     1      -8.491  37.689 -10.158  1.00  0.00    -0.372 N 
HETATM    6  C1  UNL     1      -7.228  37.884  -9.479  1.00  0.00     0.148 C 
ATOM      7  H1  UNL     1      -9.254  38.342  -9.978  1.00  0.00     0.161 HD
ENDBRANCH   3   5
ENDBRANCH   1   3
BRANCH   1   8
HETATM    8  C3  UNL     1      -8.132  34.263 -10.397  1.00  0.00     0.088 A 
HETATM    9  C4  UNL     1      -7.076  33.382  -9.876  1.00  0.00     0.032 A 
HETATM   10  C5  UNL     1      -7.707  33.008 -11.147  1.00  0.00     0.013 A 
BRANCH  10  11
HETATM   11  C6  UNL     1      -8.786  31.973 -11.249  1.00  0.00    -0.017 C 
HETATM   12  C7  UNL     1      -8.408  30.650 -10.636  1.00  0.00     0.010 C 
HETATM   13  C8  UNL     1      -9.294  31.765 -12.638  1.00  0.00     0.010 C 
ENDBRANCH  10  11
ENDBRANCH   1   8
TORSDOF 4
ENDMDL
MODEL 2
REMARK VINA RESULT: -5.799021156      1.354      1.824
REMARK  4 active torsions:
REMARK  status: ('A' for Active; 'I' for Inactive)
REMARK    1  A    between atoms: N1_2  and  C2_4 
REMARK    2  A    between atoms: C2_4  and  N2_6 
REMARK    3  A    between atoms: N2_6  and  C3_8 
REMARK    4  A    between atoms: C5_10  and  C6_11 
ROOT
HETATM    1  N2  UNL     1      -8.017  35.580 -11.232  1.00  0.00    -0.362 N 
ATOM      2  H2  UNL     1      -7.405  35.563 -12.048  1.00  0.00     0.162 HD
ENDROOT
BRANCH   1   3
HETATM    3  C2  UNL     1      -8.636  36.806 -10.880  1.00  0.00     0.167 C 
HETATM    4  S1  UNL     1      -8.046  37.725  -9.652  1.00  0.00    -0.041 SA
BRANCH   3   5
HETATM    5  N1  UNL     1      -9.783  37.283 -11.571  1.00  0.00    -0.372 N 
HETATM    6  C1  UNL     1     -10.345  36.581 -12.705  1.00  0.00     0.148 C 
ATOM      7  H1  UNL     1     -10.224  38.148 -11.258  1.00  0.00     0.161 HD
ENDBRANCH   3   5
ENDBRANCH   1   3
BRANCH   1   8
HETATM    8  C3  UNL     1      -8.211  34.360 -10.494  1.00  0.00     0.088 A 
HETATM    9  C4  UNL     1      -7.088  33.543 -10.009  1.00  0.00     0.032 A 
HETATM   10  C5  UNL     1      -7.765  33.107 -11.236  1.00  0.00     0.013 A 
BRANCH  10  11
HETATM   11  C6  UNL     1      -8.797  32.021 -11.258  1.00  0.00    -0.017 C 
HETATM   12  C7  UNL     1      -8.350  30.754 -10.577  1.00  0.00     0.010 C 
HETATM   13  C8  UNL     1      -9.317  31.709 -12.624  1.00  0.00     0.010 C 
ENDBRANCH  10  11
ENDBRANCH   1   8
TORSDOF 4
ENDMDL
MODEL 3
REMARK VINA RESULT: -5.722670665      2.234      4.926
REMARK  4 active torsions:
REMARK  status: ('A' for Active; 'I' for Inactive)
REMARK    1  A    between atoms: N1_2  and  C2_4 
REMARK    2  A    between atoms: C2_4  and  N2_6 
REMARK    3  A    between atoms: N2_6  and  C3_8 
REMARK    4  A    between atoms: C5_10  and  C6_11 
ROOT
HETATM    1  N2  UNL     1      -9.601  34.215 -11.248  1.00  0.00    -0.362 N 
ATOM      2  H2  UNL     1      -9.000  33.465 -10.905  1.00  0.00     0.162 HD
ENDROOT
BRANCH   1   3
HETATM    3  C2  UNL     1     -10.680  33.877 -12.104  1.00  0.00     0.167 C 
HETATM    4  S1  UNL     1     -11.917  34.929 -12.353  1.00  0.00    -0.041 SA
BRANCH   3   5
HETATM    5  N1  UNL     1     -10.731  32.625 -12.773  1.00  0.00    -0.372 N 
HETATM    6  C1  UNL     1      -9.631  31.684 -12.731  1.00  0.00     0.148 C 
ATOM      7  H1  UNL     1     -11.569  32.380 -13.300  1.00  0.00     0.161 HD
ENDBRANCH   3   5
ENDBRANCH   1   3
BRANCH   1   8
HETATM    8  C3  UNL     1      -9.311  35.565 -10.839  1.00  0.00     0.088 A 
HETATM    9  C4  UNL     1      -8.636  36.530 -11.721  1.00  0.00     0.032 A 
HETATM   10  C5  UNL     1      -7.826  35.865 -10.693  1.00  0.00     0.013 A 
BRANCH  10  11
HETATM   11  C6  UNL     1      -7.469  36.513  -9.390  1.00  0.00    -0.017 C 
HETATM   12  C7  UNL     1      -7.116  37.971  -9.521  1.00  0.00     0.010 C 
HETATM   13  C8  UNL     1      -6.399  35.796  -8.632  1.00  0.00     0.010 C 
ENDBRANCH  10  11
ENDBRANCH   1   8
TORSDOF 4
ENDMDL
MODEL 4
REMARK VINA RESULT: -5.604546549      2.651      4.042
REMARK  4 active torsions:
REMARK  status: ('A' for Active; 'I' for Inactive)
REMARK    1  A    between atoms: N1_2  and  C2_4 
REMARK    2  A    between atoms: C2_4  and  N2_6 
REMARK    3  A    between atoms: N2_6  and  C3_8 
REMARK    4  A    between atoms: C5_10  and  C6_11 
ROOT
HETATM    1  N2  UNL     1     -10.052  32.953 -11.426  1.00  0.00    -0.362 N 
ATOM      2  H2  UNL     1     -10.532  32.537 -10.628  1.00  0.00     0.162 HD
ENDROOT
BRANCH   1   3
HETATM    3  C2  UNL     1     -10.824  33.347 -12.548  1.00  0.00     0.167 C 
HETATM    4  S1  UNL     1     -10.764  32.496 -13.952  1.00  0.00    -0.041 SA
BRANCH   3   5
HETATM    5  N1  UNL     1     -11.674  34.485 -12.501  1.00  0.00    -0.372 N 
HETATM    6  C1  UNL     1     -11.841  35.271 -11.296  1.00  0.00     0.148 C 
ATOM      7  H1  UNL     1     -12.182  34.758 -13.342  1.00  0.00     0.161 HD
ENDBRANCH   3   5
ENDBRANCH   1   3
BRANCH   1   8
HETATM    8  C3  UNL     1      -8.623  33.112 -11.359  1.00  0.00     0.088 A 
HETATM    9  C4  UNL     1      -7.807  32.490 -10.305  1.00  0.00     0.032 A 
HETATM   10  C5  UNL     1      -8.142  33.911 -10.155  1.00  0.00     0.013 A 
BRANCH  10  11
HETATM   11  C6  UNL     1      -7.193  35.016 -10.506  1.00  0.00    -0.017 C 
HETATM   12  C7  UNL     1      -6.259  35.384  -9.383  1.00  0.00     0.010 C 
HETATM   13  C8  UNL     1      -7.862  36.243 -11.035  1.00  0.00     0.010 C 
ENDBRANCH  10  11
ENDBRANCH   1   8
TORSDOF 4
ENDMDL
MODEL 5
REMARK VINA RESULT: -5.581032247      2.328      4.308
REMARK  4 active torsions:
REMARK  status: ('A' for Active; 'I' for Inactive)
REMARK    1  A    between atoms: N1_2  and  C2_4 
REMARK    2  A    between atoms: C2_4  and  N2_6 
REMARK    3  A    between atoms: N2_6  and  C3_8 
REMARK    4  A    between atoms: C5_10  and  C6_11 
ROOT
HETATM    1  N2  UNL     1     -10.051  33.385 -11.199  1.00  0.00    -0.362 N 
ATOM      2  H2  UNL     1     -10.501  32.885 -10.432  1.00  0.00     0.162 HD
ENDROOT
BRANCH   1   3
HETATM    3  C2  UNL     1     -10.872  33.999 -12.179  1.00  0.00     0.167 C 
HETATM    4  S1  UNL     1     -11.075  35.629 -12.206  1.00  0.00    -0.041 SA
BRANCH   3   5
HETATM    5  N1  UNL     1     -11.546  33.231 -13.167  1.00  0.00    -0.372 N 
HETATM    6  C1  UNL     1     -10.831  32.482 -14.179  1.00  0.00     0.148 C 
ATOM      7  H1  UNL     1     -12.565  33.207 -13.163  1.00  0.00     0.161 HD
ENDBRANCH   3   5
ENDBRANCH   1   3
BRANCH   1   8
HETATM    8  C3  UNL     1      -8.612  33.434 -11.233  1.00  0.00     0.088 A 
HETATM    9  C4  UNL     1      -7.772  32.631 -10.332  1.00  0.00     0.032 A 
HETATM   10  C5  UNL     1      -7.981  34.042  -9.988  1.00  0.00     0.013 A 
BRANCH  10  11
HETATM   11  C6  UNL     1      -6.975  35.112 -10.285  1.00  0.00    -0.017 C 
HETATM   12  C7  UNL     1      -6.236  35.597  -9.066  1.00  0.00     0.010 C 
HETATM   13  C8  UNL     1      -7.535  36.277 -11.037  1.00  0.00     0.010 C 
ENDBRANCH  10  11
ENDBRANCH   1   8
TORSDOF 4
ENDMDL
