MODEL 1
REMARK VINA RESULT: -7.352081231      0.000      0.000
REMARK  1 active torsions:
REMARK  status: ('A' for Active; 'I' for Inactive)
REMARK       I    between atoms: C1_2  and  N2_4 
REMARK       I    between atoms: C2_6  and  N4_8 
REMARK    1  A    between atoms: N4_8  and  C3_10 
ROOT
HETATM    1  N1  UNL     1      -7.651  38.545  -9.411  1.00  0.00    -0.040 NA
HETATM    2  C1  UNL     1      -7.530  37.133  -9.397  1.00  0.00     0.335 C 
HETATM    3  O1  UNL     1      -6.383  36.617  -9.233  1.00  0.00    -0.251 OA
HETATM    4  N2  UNL     1      -8.616  36.240  -9.557  1.00  0.00    -0.285 N 
ATOM      5  H2  UNL     1      -9.082  35.856  -8.735  1.00  0.00     0.172 HD
HETATM    6  C2  UNL     1      -9.015  35.914 -10.720  1.00  0.00     0.192 C 
HETATM    7  N3  UNL     1      -8.351  36.464 -11.862  1.00  0.00    -0.063 NA
HETATM    8  N4  UNL     1     -10.104  35.018 -10.913  1.00  0.00    -0.360 N 
ATOM      9  H4  UNL     1     -11.045  35.409 -10.935  1.00  0.00     0.162 HD
ENDROOT
BRANCH   8  10
HETATM   10  C3  UNL     1      -9.958  33.591 -11.077  1.00  0.00     0.084 C 
HETATM   11  C4  UNL     1     -10.046  33.220 -12.526  1.00  0.00     0.025 C 
HETATM   12  C5  UNL     1      -9.981  31.715 -12.600  1.00  0.00     0.002 C 
HETATM   13  C6  UNL     1      -8.712  31.172 -12.056  1.00  0.00     0.000 C 
HETATM   14  C7  UNL     1      -8.212  31.799 -10.814  1.00  0.00     0.002 C 
HETATM   15  C8  UNL     1      -8.612  33.197 -10.560  1.00  0.00     0.025 C 
ENDBRANCH   8  10
TORSDOF 1
ENDMDL
MODEL 2
REMARK VINA RESULT: -7.081763000      1.282      1.594
REMARK  1 active torsions:
REMARK  status: ('A' for Active; 'I' for Inactive)
REMARK       I    between atoms: C1_2  and  N2_4 
REMARK       I    between atoms: C2_6  and  N4_8 
REMARK    1  A    between atoms: N4_8  and  C3_10 
ROOT
HETATM    1  N1  UNL     1      -6.425  36.934  -8.757  1.00  0.00    -0.040 NA
HETATM    2  C1  UNL     1      -6.821  35.694  -9.317  1.00  0.00     0.335 C 
HETATM    3  O1  UNL     1      -5.927  34.885  -9.710  1.00  0.00    -0.251 OA
HETATM    4  N2  UNL     1      -8.167  35.286  -9.474  1.00  0.00    -0.285 N 
ATOM      5  H2  UNL     1      -8.606  34.703  -8.762  1.00  0.00     0.172 HD
HETATM    6  C2  UNL     1      -8.832  35.642 -10.499  1.00  0.00     0.192 C 
HETATM    7  N3  UNL     1      -8.201  36.461 -11.488  1.00  0.00    -0.063 NA
HETATM    8  N4  UNL     1     -10.187  35.247 -10.684  1.00  0.00    -0.360 N 
ATOM      9  H4  UNL     1     -10.915  35.831 -10.276  1.00  0.00     0.162 HD
ENDROOT
BRANCH   8  10
HETATM   10  C3  UNL     1     -10.593  34.069 -11.414  1.00  0.00     0.084 C 
HETATM   11  C4  UNL     1     -11.046  34.438 -12.793  1.00  0.00     0.025 C 
HETATM   12  C5  UNL     1     -11.540  33.172 -13.448  1.00  0.00     0.002 C 
HETATM   13  C6  UNL     1     -10.479  32.141 -13.567  1.00  0.00     0.000 C 
HETATM   14  C7  UNL     1      -9.590  31.981 -12.397  1.00  0.00     0.002 C 
HETATM   15  C8  UNL     1      -9.413  33.157 -11.522  1.00  0.00     0.025 C 
ENDBRANCH   8  10
TORSDOF 1
ENDMDL
MODEL 3
REMARK VINA RESULT: -7.040501451      0.670      1.521
REMARK  1 active torsions:
REMARK  status: ('A' for Active; 'I' for Inactive)
REMARK       I    between atoms: C1_2  and  N2_4 
REMARK       I    between atoms: C2_6  and  N4_8 
REMARK    1  A    between atoms: N4_8  and  C3_10 
ROOT
HETATM    1  N1  UNL     1      -8.267  38.808  -9.362  1.00  0.00    -0.040 NA
HETATM    2  C1  UNL     1      -7.641  37.561  -9.609  1.00  0.00     0.335 C 
HETATM    3  O1  UNL     1      -6.388  37.532  -9.806  1.00  0.00    -0.251 OA
HETATM    4  N2  UNL     1      -8.325  36.323  -9.653  1.00  0.00    -0.285 N 
ATOM      5  H2  UNL     1      -8.368  35.737  -8.820  1.00  0.00     0.172 HD
HETATM    6  C2  UNL     1      -8.886  35.936 -10.728  1.00  0.00     0.192 C 
HETATM    7  N3  UNL     1      -8.817  36.771 -11.888  1.00  0.00    -0.063 NA
HETATM    8  N4  UNL     1      -9.580  34.696 -10.804  1.00  0.00    -0.360 N 
ATOM      9  H4  UNL     1     -10.565  34.683 -10.540  1.00  0.00     0.162 HD
ENDROOT
BRANCH   8  10
HETATM   10  C3  UNL     1      -8.976  33.455 -11.230  1.00  0.00     0.084 C 
HETATM   11  C4  UNL     1      -8.749  32.553 -10.056  1.00  0.00     0.025 C 
HETATM   12  C5  UNL     1      -8.033  31.330 -10.572  1.00  0.00     0.002 C 
HETATM   13  C6  UNL     1      -8.828  30.589 -11.583  1.00  0.00     0.000 C 
HETATM   14  C7  UNL     1      -9.546  31.410 -12.581  1.00  0.00     0.002 C 
HETATM   15  C8  UNL     1      -9.913  32.783 -12.181  1.00  0.00     0.025 C 
ENDBRANCH   8  10
TORSDOF 1
ENDMDL
MODEL 4
REMARK VINA RESULT: -7.007822050      1.719      2.338
REMARK  1 active torsions:
REMARK  status: ('A' for Active; 'I' for Inactive)
REMARK       I    between atoms: C1_2  and  N2_4 
REMARK       I    between atoms: C2_6  and  N4_8 
REMARK    1  A    between atoms: N4_8  and  C3_10 
ROOT
HETATM    1  N1  UNL     1      -5.796  38.822  -9.013  1.00  0.00    -0.040 NA
HETATM    2  C1  UNL     1      -6.934  38.150  -9.525  1.00  0.00     0.335 C 
HETATM    3  O1  UNL     1      -8.066  38.716  -9.452  1.00  0.00    -0.251 OA
HETATM    4  N2  UNL     1      -6.897  36.868 -10.124  1.00  0.00    -0.285 N 
ATOM      5  H2  UNL     1      -6.828  36.783 -11.138  1.00  0.00     0.172 HD
HETATM    6  C2  UNL     1      -6.950  35.820  -9.403  1.00  0.00     0.192 C 
HETATM    7  N3  UNL     1      -7.046  35.957  -7.982  1.00  0.00    -0.063 NA
HETATM    8  N4  UNL     1      -6.916  34.518  -9.976  1.00  0.00    -0.360 N 
ATOM      9  H4  UNL     1      -6.005  34.094 -10.145  1.00  0.00     0.162 HD
ENDROOT
BRANCH   8  10
HETATM   10  C3  UNL     1      -8.092  33.760 -10.334  1.00  0.00     0.084 C 
HETATM   11  C4  UNL     1      -9.021  34.595 -11.163  1.00  0.00     0.025 C 
HETATM   12  C5  UNL     1     -10.256  33.766 -11.409  1.00  0.00     0.002 C 
HETATM   13  C6  UNL     1      -9.965  32.514 -12.152  1.00  0.00     0.000 C 
HETATM   14  C7  UNL     1      -8.744  31.785 -11.750  1.00  0.00     0.002 C 
HETATM   15  C8  UNL     1      -7.659  32.577 -11.138  1.00  0.00     0.025 C 
ENDBRANCH   8  10
TORSDOF 1
ENDMDL
MODEL 5
REMARK VINA RESULT: -6.679188825      2.039      2.797
REMARK  1 active torsions:
REMARK  status: ('A' for Active; 'I' for Inactive)
REMARK       I    between atoms: C1_2  and  N2_4 
REMARK       I    between atoms: C2_6  and  N4_8 
REMARK    1  A    between atoms: N4_8  and  C3_10 
ROOT
HETATM    1  N1  UNL     1      -5.934  39.003  -8.766  1.00  0.00    -0.040 NA
HETATM    2  C1  UNL     1      -6.813  38.187  -9.522  1.00  0.00     0.335 C 
HETATM    3  O1  UNL     1      -8.020  38.549  -9.659  1.00  0.00    -0.251 OA
HETATM    4  N2  UNL     1      -6.433  36.975 -10.144  1.00  0.00    -0.285 N 
ATOM      5  H2  UNL     1      -6.155  36.974 -11.125  1.00  0.00     0.172 HD
HETATM    6  C2  UNL     1      -6.437  35.885  -9.487  1.00  0.00     0.192 C 
HETATM    7  N3  UNL     1      -6.828  35.904  -8.111  1.00  0.00    -0.063 NA
HETATM    8  N4  UNL     1      -6.061  34.650 -10.086  1.00  0.00    -0.360 N 
ATOM      9  H4  UNL     1      -5.073  34.398 -10.081  1.00  0.00     0.162 HD
ENDROOT
BRANCH   8  10
HETATM   10  C3  UNL     1      -6.992  33.733 -10.701  1.00  0.00     0.084 C 
HETATM   11  C4  UNL     1      -7.260  32.572  -9.792  1.00  0.00     0.025 C 
HETATM   12  C5  UNL     1      -8.159  31.622 -10.544  1.00  0.00     0.002 C 
HETATM   13  C6  UNL     1      -9.459  32.238 -10.911  1.00  0.00     0.000 C 
HETATM   14  C7  UNL     1      -9.407  33.632 -11.399  1.00  0.00     0.002 C 
HETATM   15  C8  UNL     1      -8.274  34.462 -10.943  1.00  0.00     0.025 C 
ENDBRANCH   8  10
TORSDOF 1
ENDMDL
