MODEL 1
REMARK VINA RESULT: -4.622072626      0.000      0.000
REMARK  1 active torsions:
REMARK  status: ('A' for Active; 'I' for Inactive)
REMARK    1  A    between atoms: C4_5  and  C5_6 
ROOT
HETATM    1  C1  UNL     1      14.961  25.913  11.498  1.00  0.00     0.310 C 
HETATM    2  N1  UNL     1      14.085  25.252  10.598  1.00  0.00     0.095 N 
HETATM    3  C2  UNL     1      13.296  24.282  11.398  1.00  0.00     0.275 C 
HETATM    4  C3  UNL     1      14.518  23.367  11.194  1.00  0.00     0.073 C 
HETATM    5  C4  UNL     1      14.492  24.120   9.856  1.00  0.00     0.287 C 
ENDROOT
BRANCH   5   6
HETATM    6  C5  UNL     1      15.663  24.078   9.034  1.00  0.00     0.120 C 
HETATM    7  N2  UNL     1      15.706  24.320   7.776  1.00  0.00    -0.389 N 
ATOM      8  H22 UNL     1      14.819  24.568   7.337  1.00  0.00     0.157 HD
ATOM      9  H21 UNL     1      16.540  24.290   7.190  1.00  0.00     0.157 HD
HETATM   10  N3  UNL     1      16.909  23.728   9.651  1.00  0.00    -0.086 NA
ENDBRANCH   5   6
TORSDOF 1
ENDMDL
MODEL 2
REMARK VINA RESULT: -4.482665947      1.355      1.693
REMARK  1 active torsions:
REMARK  status: ('A' for Active; 'I' for Inactive)
REMARK    1  A    between atoms: C4_5  and  C5_6 
ROOT
HETATM    1  C1  UNL     1      15.629  24.730  11.481  1.00  0.00     0.310 C 
HETATM    2  N1  UNL     1      15.118  24.716  10.157  1.00  0.00     0.095 N 
HETATM    3  C2  UNL     1      13.919  23.842  10.168  1.00  0.00     0.275 C 
HETATM    4  C3  UNL     1      14.945  22.706   9.995  1.00  0.00     0.073 C 
HETATM    5  C4  UNL     1      15.608  23.824   9.176  1.00  0.00     0.287 C 
ENDROOT
BRANCH   5   6
HETATM    6  C5  UNL     1      16.991  23.685   8.838  1.00  0.00     0.120 C 
HETATM    7  N2  UNL     1      17.678  22.606   8.919  1.00  0.00    -0.389 N 
ATOM      8  H22 UNL     1      17.179  21.780   9.249  1.00  0.00     0.157 HD
ATOM      9  H21 UNL     1      18.665  22.506   8.678  1.00  0.00     0.157 HD
HETATM   10  N3  UNL     1      17.694  24.846   8.374  1.00  0.00    -0.086 NA
ENDBRANCH   5   6
TORSDOF 1
ENDMDL
MODEL 3
REMARK VINA RESULT: -4.475565646      0.205      1.169
REMARK  1 active torsions:
REMARK  status: ('A' for Active; 'I' for Inactive)
REMARK    1  A    between atoms: C4_5  and  C5_6 
ROOT
HETATM    1  C1  UNL     1      14.890  25.985  11.697  1.00  0.00     0.310 C 
HETATM    2  N1  UNL     1      14.053  25.374  10.728  1.00  0.00     0.095 N 
HETATM    3  C2  UNL     1      13.177  24.421  11.454  1.00  0.00     0.275 C 
HETATM    4  C3  UNL     1      14.376  23.464  11.312  1.00  0.00     0.073 C 
HETATM    5  C4  UNL     1      14.466  24.242   9.990  1.00  0.00     0.287 C 
ENDROOT
BRANCH   5   6
HETATM    6  C5  UNL     1      15.687  24.171   9.247  1.00  0.00     0.120 C 
HETATM    7  N2  UNL     1      16.823  23.792   9.703  1.00  0.00    -0.389 N 
ATOM      8  H22 UNL     1      16.841  23.514  10.684  1.00  0.00     0.157 HD
ATOM      9  H21 UNL     1      17.693  23.742   9.173  1.00  0.00     0.157 HD
HETATM   10  N3  UNL     1      15.661  24.563   7.867  1.00  0.00    -0.086 NA
ENDBRANCH   5   6
TORSDOF 1
ENDMDL
MODEL 4
REMARK VINA RESULT: -4.459121324      1.151      1.778
REMARK  1 active torsions:
REMARK  status: ('A' for Active; 'I' for Inactive)
REMARK    1  A    between atoms: C4_5  and  C5_6 
ROOT
HETATM    1  C1  UNL     1      14.066  23.440  11.699  1.00  0.00     0.310 C 
HETATM    2  N1  UNL     1      15.211  24.278  11.645  1.00  0.00     0.095 N 
HETATM    3  C2  UNL     1      14.739  25.667  11.869  1.00  0.00     0.275 C 
HETATM    4  C3  UNL     1      14.444  25.638  10.357  1.00  0.00     0.073 C 
HETATM    5  C4  UNL     1      15.715  24.776  10.423  1.00  0.00     0.287 C 
ENDROOT
BRANCH   5   6
HETATM    6  C5  UNL     1      16.035  23.958   9.293  1.00  0.00     0.120 C 
HETATM    7  N2  UNL     1      15.191  23.367   8.531  1.00  0.00    -0.389 N 
ATOM      8  H22 UNL     1      14.207  23.507   8.760  1.00  0.00     0.157 HD
ATOM      9  H21 UNL     1      15.419  22.784   7.726  1.00  0.00     0.157 HD
HETATM   10  N3  UNL     1      17.419  23.761   8.972  1.00  0.00    -0.086 NA
ENDBRANCH   5   6
TORSDOF 1
ENDMDL
MODEL 5
REMARK VINA RESULT: -4.366450497      1.803      2.613
REMARK  1 active torsions:
REMARK  status: ('A' for Active; 'I' for Inactive)
REMARK    1  A    between atoms: C4_5  and  C5_6 
ROOT
HETATM    1  C1  UNL     1      14.571  22.648   9.581  1.00  0.00     0.310 C 
HETATM    2  N1  UNL     1      15.348  23.678  10.171  1.00  0.00     0.095 N 
HETATM    3  C2  UNL     1      14.644  24.956   9.902  1.00  0.00     0.275 C 
HETATM    4  C3  UNL     1      15.388  24.895   8.555  1.00  0.00     0.073 C 
HETATM    5  C4  UNL     1      16.434  24.276   9.495  1.00  0.00     0.287 C 
ENDROOT
BRANCH   5   6
HETATM    6  C5  UNL     1      17.517  23.544   8.912  1.00  0.00     0.120 C 
HETATM    7  N2  UNL     1      17.588  22.269   8.801  1.00  0.00    -0.389 N 
ATOM      8  H22 UNL     1      16.791  21.743   9.160  1.00  0.00     0.157 HD
ATOM      9  H21 UNL     1      18.359  21.747   8.385  1.00  0.00     0.157 HD
HETATM   10  N3  UNL     1      18.638  24.282   8.407  1.00  0.00    -0.086 NA
ENDBRANCH   5   6
TORSDOF 1
ENDMDL
