MODEL 1
REMARK VINA RESULT: -4.956347815      0.000      0.000
REMARK  3 active torsions:
REMARK  status: ('A' for Active; 'I' for Inactive)
REMARK    1  A    between atoms: C3_3  and  C5_5 
REMARK    2  A    between atoms: C5_5  and  N1_6 
REMARK    3  A    between atoms: C5_5  and  C6_10 
ROOT
HETATM    1  C1  UNL     1      14.330  22.921  12.074  1.00  0.00     0.097 C 
HETATM    2  C2  UNL     1      14.815  23.740  11.300  1.00  0.00    -0.181 C 
HETATM    3  C3  UNL     1      15.403  24.729  10.400  1.00  0.00     0.087 C 
HETATM    4  C4  UNL     1      14.432  25.884  10.292  1.00  0.00     0.025 C 
ENDROOT
BRANCH   3   5
HETATM    5  C5  UNL     1      15.671  24.085   9.072  1.00  0.00     0.286 C 
BRANCH   5   6
HETATM    6  N1  UNL     1      14.755  22.973   8.869  1.00  0.00    -0.066 N 
ATOM      7  H13 UNL     1      14.320  22.670   9.740  1.00  0.00     0.275 HD
ATOM      8  H12 UNL     1      13.911  23.257   8.373  1.00  0.00     0.275 HD
ATOM      9  H11 UNL     1      15.238  22.208   8.396  1.00  0.00     0.275 HD
ENDBRANCH   5   6
BRANCH   5  10
HETATM   10  C6  UNL     1      17.080  23.653   8.904  1.00  0.00     0.263 C 
HETATM   11  N2  UNL     1      18.023  24.610   8.447  1.00  0.00    -0.060 NA
HETATM   12  O1  UNL     1      17.481  22.489   9.143  1.00  0.00    -0.275 OA
ENDBRANCH   5  10
ENDBRANCH   3   5
TORSDOF 3
ENDMDL
MODEL 2
REMARK VINA RESULT: -4.938330193      2.948      4.110
REMARK  3 active torsions:
REMARK  status: ('A' for Active; 'I' for Inactive)
REMARK    1  A    between atoms: C3_3  and  C5_5 
REMARK    2  A    between atoms: C5_5  and  N1_6 
REMARK    3  A    between atoms: C5_5  and  C6_10 
ROOT
HETATM    1  C1  UNL     1      17.061  24.349   8.202  1.00  0.00     0.097 C 
HETATM    2  C2  UNL     1      16.215  24.040   9.035  1.00  0.00    -0.181 C 
HETATM    3  C3  UNL     1      15.225  23.653  10.036  1.00  0.00     0.087 C 
HETATM    4  C4  UNL     1      14.345  22.587   9.420  1.00  0.00     0.025 C 
ENDROOT
BRANCH   3   5
HETATM    5  C5  UNL     1      14.443  24.865  10.448  1.00  0.00     0.286 C 
BRANCH   5   6
HETATM    6  N1  UNL     1      15.340  25.999  10.614  1.00  0.00    -0.066 N 
ATOM      7  H13 UNL     1      15.640  26.384   9.718  1.00  0.00     0.275 HD
ATOM      8  H12 UNL     1      14.856  26.821  10.974  1.00  0.00     0.275 HD
ATOM      9  H11 UNL     1      16.131  25.732  11.200  1.00  0.00     0.275 HD
ENDBRANCH   5   6
BRANCH   5  10
HETATM   10  C6  UNL     1      13.626  24.649  11.667  1.00  0.00     0.263 C 
HETATM   11  N2  UNL     1      14.293  24.603  12.919  1.00  0.00    -0.060 NA
HETATM   12  O1  UNL     1      12.380  24.506  11.650  1.00  0.00    -0.275 OA
ENDBRANCH   5  10
ENDBRANCH   3   5
TORSDOF 3
ENDMDL
MODEL 3
REMARK VINA RESULT: -4.822605627      4.329      5.196
REMARK  3 active torsions:
REMARK  status: ('A' for Active; 'I' for Inactive)
REMARK    1  A    between atoms: C3_3  and  C5_5 
REMARK    2  A    between atoms: C5_5  and  N1_6 
REMARK    3  A    between atoms: C5_5  and  C6_10 
ROOT
HETATM    1  C1  UNL     1      14.200  23.303  10.074  1.00  0.00     0.097 C 
HETATM    2  C2  UNL     1      14.016  24.386  10.620  1.00  0.00    -0.181 C 
HETATM    3  C3  UNL     1      13.800  25.688  11.246  1.00  0.00     0.087 C 
HETATM    4  C4  UNL     1      15.150  26.214  11.683  1.00  0.00     0.025 C 
ENDROOT
BRANCH   3   5
HETATM    5  C5  UNL     1      12.854  25.527  12.398  1.00  0.00     0.286 C 
BRANCH   5   6
HETATM    6  N1  UNL     1      11.661  24.817  11.963  1.00  0.00    -0.066 N 
ATOM      7  H13 UNL     1      11.573  24.803  10.946  1.00  0.00     0.275 HD
ATOM      8  H12 UNL     1      11.735  23.812  12.118  1.00  0.00     0.275 HD
ATOM      9  H11 UNL     1      10.837  25.214  12.414  1.00  0.00     0.275 HD
ENDBRANCH   5   6
BRANCH   5  10
HETATM   10  C6  UNL     1      12.500  26.813  13.049  1.00  0.00     0.263 C 
HETATM   11  N2  UNL     1      12.608  26.899  14.461  1.00  0.00    -0.060 NA
HETATM   12  O1  UNL     1      12.112  27.825  12.418  1.00  0.00    -0.275 OA
ENDBRANCH   5  10
ENDBRANCH   3   5
TORSDOF 3
ENDMDL
MODEL 4
REMARK VINA RESULT: -4.814072257      3.180      3.678
REMARK  3 active torsions:
REMARK  status: ('A' for Active; 'I' for Inactive)
REMARK    1  A    between atoms: C3_3  and  C5_5 
REMARK    2  A    between atoms: C5_5  and  N1_6 
REMARK    3  A    between atoms: C5_5  and  C6_10 
ROOT
HETATM    1  C1  UNL     1      14.303  25.853  14.826  1.00  0.00     0.097 C 
HETATM    2  C2  UNL     1      14.097  26.190  13.664  1.00  0.00    -0.181 C 
HETATM    3  C3  UNL     1      13.871  26.611  12.284  1.00  0.00     0.087 C 
HETATM    4  C4  UNL     1      12.805  27.685  12.302  1.00  0.00     0.025 C 
ENDROOT
BRANCH   3   5
HETATM    5  C5  UNL     1      13.464  25.420  11.469  1.00  0.00     0.286 C 
BRANCH   5   6
HETATM    6  N1  UNL     1      12.207  24.884  11.969  1.00  0.00    -0.066 N 
ATOM      7  H13 UNL     1      11.543  24.699  11.218  1.00  0.00     0.275 HD
ATOM      8  H12 UNL     1      12.308  23.931  12.316  1.00  0.00     0.275 HD
ATOM      9  H11 UNL     1      11.821  25.510  12.676  1.00  0.00     0.275 HD
ENDBRANCH   5   6
BRANCH   5  10
HETATM   10  C6  UNL     1      14.506  24.366  11.409  1.00  0.00     0.263 C 
HETATM   11  N2  UNL     1      15.790  24.722  10.920  1.00  0.00    -0.060 NA
HETATM   12  O1  UNL     1      14.312  23.179  11.767  1.00  0.00    -0.275 OA
ENDBRANCH   5  10
ENDBRANCH   3   5
TORSDOF 3
ENDMDL
MODEL 5
REMARK VINA RESULT: -4.768250106      3.917      4.446
REMARK  3 active torsions:
REMARK  status: ('A' for Active; 'I' for Inactive)
REMARK    1  A    between atoms: C3_3  and  C5_5 
REMARK    2  A    between atoms: C5_5  and  N1_6 
REMARK    3  A    between atoms: C5_5  and  C6_10 
ROOT
HETATM    1  C1  UNL     1      14.525  22.708   9.509  1.00  0.00     0.097 C 
HETATM    2  C2  UNL     1      14.290  23.788  10.041  1.00  0.00    -0.181 C 
HETATM    3  C3  UNL     1      14.007  25.085  10.650  1.00  0.00     0.087 C 
HETATM    4  C4  UNL     1      15.315  25.841  10.744  1.00  0.00     0.025 C 
ENDROOT
BRANCH   3   5
HETATM    5  C5  UNL     1      13.378  24.870  11.993  1.00  0.00     0.286 C 
BRANCH   5   6
HETATM    6  N1  UNL     1      11.944  24.676  11.842  1.00  0.00    -0.066 N 
ATOM      7  H13 UNL     1      11.687  23.689  11.845  1.00  0.00     0.275 HD
ATOM      8  H12 UNL     1      11.428  24.965  12.673  1.00  0.00     0.275 HD
ATOM      9  H11 UNL     1      11.616  25.154  11.003  1.00  0.00     0.275 HD
ENDBRANCH   5   6
BRANCH   5  10
HETATM   10  C6  UNL     1      13.670  25.958  12.959  1.00  0.00     0.263 C 
HETATM   11  N2  UNL     1      14.429  25.641  14.115  1.00  0.00    -0.060 NA
HETATM   12  O1  UNL     1      13.281  27.141  12.807  1.00  0.00    -0.275 OA
ENDBRANCH   5  10
ENDBRANCH   3   5
TORSDOF 3
ENDMDL
