MODEL 1
REMARK VINA RESULT: -4.834852332      0.000      0.000
REMARK  2 active torsions:
REMARK  status: ('A' for Active; 'I' for Inactive)
REMARK    1  A    between atoms: N1_2  and  C2_4 
REMARK       I    between atoms: N2_5  and  C3_7 
REMARK    2  A    between atoms: N4_9  and  C4_11 
ROOT
HETATM    1  C2  UNL     1      14.385  23.607   9.982  1.00  0.00     0.178 C 
HETATM    2  N2  UNL     1      14.376  24.809  10.416  1.00  0.00    -0.327 N 
ATOM      3  H2  UNL     1      14.876  25.517   9.879  1.00  0.00     0.169 HD
HETATM    4  C3  UNL     1      13.710  25.217  11.606  1.00  0.00     0.195 C 
HETATM    5  N3  UNL     1      12.386  24.783  11.798  1.00  0.00    -0.063 NA
HETATM    6  N4  UNL     1      14.366  25.956  12.424  1.00  0.00    -0.308 N 
ATOM      7  H4  UNL     1      15.322  26.202  12.167  1.00  0.00     0.170 HD
ENDROOT
BRANCH   1   8
HETATM    8  N1  UNL     1      15.090  23.338   8.779  1.00  0.00    -0.390 N 
HETATM    9  C1  UNL     1      15.800  24.366   8.053  1.00  0.00     0.147 C 
ATOM     10  H1  UNL     1      15.095  22.386   8.413  1.00  0.00     0.159 HD
ENDBRANCH   1   8
BRANCH   6  11
HETATM   11  C4  UNL     1      13.882  26.455  13.640  1.00  0.00     0.355 C 
HETATM   12  O1  UNL     1      13.942  25.846  14.745  1.00  0.00    -0.283 OA
ENDBRANCH   6  11
TORSDOF 2
ENDMDL
MODEL 2
REMARK VINA RESULT: -4.809239629      1.732      1.858
REMARK  2 active torsions:
REMARK  status: ('A' for Active; 'I' for Inactive)
REMARK    1  A    between atoms: N1_2  and  C2_4 
REMARK       I    between atoms: N2_5  and  C3_7 
REMARK    2  A    between atoms: N4_9  and  C4_11 
ROOT
HETATM    1  C2  UNL     1      16.312  22.983   9.602  1.00  0.00     0.178 C 
HETATM    2  N2  UNL     1      16.166  24.164  10.067  1.00  0.00    -0.327 N 
ATOM      3  H2  UNL     1      16.869  24.864   9.829  1.00  0.00     0.169 HD
HETATM    4  C3  UNL     1      15.081  24.562  10.897  1.00  0.00     0.195 C 
HETATM    5  N3  UNL     1      13.782  24.197  10.498  1.00  0.00    -0.063 NA
HETATM    6  N4  UNL     1      15.363  25.227  11.957  1.00  0.00    -0.308 N 
ATOM      7  H4  UNL     1      16.347  25.428  12.133  1.00  0.00     0.170 HD
ENDROOT
BRANCH   1   8
HETATM    8  N1  UNL     1      17.444  22.723   8.784  1.00  0.00    -0.390 N 
HETATM    9  C1  UNL     1      18.252  23.781   8.225  1.00  0.00     0.147 C 
ATOM     10  H1  UNL     1      17.694  21.755   8.584  1.00  0.00     0.159 HD
ENDBRANCH   1   8
BRANCH   6  11
HETATM   11  C4  UNL     1      14.435  25.703  12.892  1.00  0.00     0.355 C 
HETATM   12  O1  UNL     1      14.425  25.399  14.118  1.00  0.00    -0.283 OA
ENDBRANCH   6  11
TORSDOF 2
ENDMDL
MODEL 3
REMARK VINA RESULT: -4.553455218      2.858      4.875
REMARK  2 active torsions:
REMARK  status: ('A' for Active; 'I' for Inactive)
REMARK    1  A    between atoms: N1_2  and  C2_4 
REMARK       I    between atoms: N2_5  and  C3_7 
REMARK    2  A    between atoms: N4_9  and  C4_11 
ROOT
HETATM    1  C2  UNL     1      13.959  25.594  12.703  1.00  0.00     0.178 C 
HETATM    2  N2  UNL     1      14.904  24.869  12.242  1.00  0.00    -0.327 N 
ATOM      3  H2  UNL     1      15.659  24.604  12.876  1.00  0.00     0.169 HD
HETATM    4  C3  UNL     1      14.968  24.408  10.897  1.00  0.00     0.195 C 
HETATM    5  N3  UNL     1      13.808  23.834  10.345  1.00  0.00    -0.063 NA
HETATM    6  N4  UNL     1      16.083  24.549  10.278  1.00  0.00    -0.308 N 
ATOM      7  H4  UNL     1      16.850  24.981  10.792  1.00  0.00     0.170 HD
ENDROOT
BRANCH   1   8
HETATM    8  N1  UNL     1      14.021  25.983  14.067  1.00  0.00    -0.390 N 
HETATM    9  C1  UNL     1      13.236  27.074  14.596  1.00  0.00     0.147 C 
ATOM     10  H1  UNL     1      14.641  25.473  14.697  1.00  0.00     0.159 HD
ENDBRANCH   1   8
BRANCH   6  11
HETATM   11  C4  UNL     1      16.337  24.158   8.957  1.00  0.00     0.355 C 
HETATM   12  O1  UNL     1      17.419  24.365   8.338  1.00  0.00    -0.283 OA
ENDBRANCH   6  11
TORSDOF 2
ENDMDL
MODEL 4
REMARK VINA RESULT: -4.534571738      2.930      4.796
REMARK  2 active torsions:
REMARK  status: ('A' for Active; 'I' for Inactive)
REMARK    1  A    between atoms: N1_2  and  C2_4 
REMARK       I    between atoms: N2_5  and  C3_7 
REMARK    2  A    between atoms: N4_9  and  C4_11 
ROOT
HETATM    1  C2  UNL     1      13.540  24.700  11.121  1.00  0.00     0.178 C 
HETATM    2  N2  UNL     1      14.737  24.255  11.116  1.00  0.00    -0.327 N 
ATOM      3  H2  UNL     1      15.261  24.278  11.992  1.00  0.00     0.169 HD
HETATM    4  C3  UNL     1      15.385  23.731   9.963  1.00  0.00     0.195 C 
HETATM    5  N3  UNL     1      14.680  22.797   9.182  1.00  0.00    -0.063 NA
HETATM    6  N4  UNL     1      16.573  24.149   9.713  1.00  0.00    -0.308 N 
ATOM      7  H4  UNL     1      16.973  24.828  10.359  1.00  0.00     0.170 HD
ENDROOT
BRANCH   1   8
HETATM    8  N1  UNL     1      13.016  25.195  12.344  1.00  0.00    -0.390 N 
HETATM    9  C1  UNL     1      12.830  26.606  12.592  1.00  0.00     0.147 C 
ATOM     10  H1  UNL     1      12.762  24.530  13.075  1.00  0.00     0.159 HD
ENDBRANCH   1   8
BRANCH   6  11
HETATM   11  C4  UNL     1      17.366  23.750   8.629  1.00  0.00     0.355 C 
HETATM   12  O1  UNL     1      18.543  24.152   8.410  1.00  0.00    -0.283 OA
ENDBRANCH   6  11
TORSDOF 2
ENDMDL
MODEL 5
REMARK VINA RESULT: -4.500188054      2.777      4.698
REMARK  2 active torsions:
REMARK  status: ('A' for Active; 'I' for Inactive)
REMARK    1  A    between atoms: N1_2  and  C2_4 
REMARK       I    between atoms: N2_5  and  C3_7 
REMARK    2  A    between atoms: N4_9  and  C4_11 
ROOT
HETATM    1  C2  UNL     1      13.121  24.788  11.784  1.00  0.00     0.178 C 
HETATM    2  N2  UNL     1      13.785  25.288  10.813  1.00  0.00    -0.327 N 
ATOM      3  H2  UNL     1      13.389  26.092  10.326  1.00  0.00     0.169 HD
HETATM    4  C3  UNL     1      15.043  24.791  10.372  1.00  0.00     0.195 C 
HETATM    5  N3  UNL     1      16.024  24.531  11.346  1.00  0.00    -0.063 NA
HETATM    6  N4  UNL     1      15.197  24.614   9.110  1.00  0.00    -0.308 N 
ATOM      7  H4  UNL     1      14.406  24.842   8.508  1.00  0.00     0.170 HD
ENDROOT
BRANCH   1   8
HETATM    8  N1  UNL     1      11.878  25.384  12.120  1.00  0.00    -0.390 N 
HETATM    9  C1  UNL     1      11.787  26.692  12.726  1.00  0.00     0.147 C 
ATOM     10  H1  UNL     1      11.018  24.872  11.926  1.00  0.00     0.159 HD
ENDBRANCH   1   8
BRANCH   6  11
HETATM   11  C4  UNL     1      16.358  24.135   8.490  1.00  0.00     0.355 C 
HETATM   12  O1  UNL     1      17.425  24.796   8.347  1.00  0.00    -0.283 OA
ENDBRANCH   6  11
TORSDOF 2
ENDMDL
