MODEL 1
REMARK VINA RESULT: -5.240066234      0.000      0.000
REMARK  1 active torsions:
REMARK  status: ('A' for Active; 'I' for Inactive)
REMARK    1  A    between atoms: C4_4  and  N1_5 
REMARK       I    between atoms: N1_5  and  C5_7 
ROOT
HETATM    1  N1  UNL     1      16.025  23.786   9.882  1.00  0.00    -0.340 N 
ATOM      2  H1  UNL     1      16.678  23.541  10.627  1.00  0.00     0.164 HD
HETATM    3  C5  UNL     1      16.525  24.247   8.635  1.00  0.00     0.329 C 
HETATM    4  N2  UNL     1      17.910  24.381   8.382  1.00  0.00    -0.040 NA
HETATM    5  O1  UNL     1      15.693  24.552   7.710  1.00  0.00    -0.251 OA
ENDROOT
BRANCH   1   6
HETATM    6  C4  UNL     1      14.618  23.661  10.104  1.00  0.00     0.089 A 
HETATM    7  C2  UNL     1      13.856  24.675  10.874  1.00  0.00     0.006 A 
HETATM    8  C1  UNL     1      14.548  25.976  11.157  1.00  0.00     0.012 C 
HETATM    9  C3  UNL     1      14.234  23.431  11.574  1.00  0.00     0.032 A 
ENDBRANCH   1   6
TORSDOF 1
ENDMDL
MODEL 2
REMARK VINA RESULT: -4.766660395      2.544      3.847
REMARK  1 active torsions:
REMARK  status: ('A' for Active; 'I' for Inactive)
REMARK    1  A    between atoms: C4_4  and  N1_5 
REMARK       I    between atoms: N1_5  and  C5_7 
ROOT
HETATM    1  N1  UNL     1      15.209  25.002  11.074  1.00  0.00    -0.340 N 
ATOM      2  H1  UNL     1      16.195  25.132  11.303  1.00  0.00     0.164 HD
HETATM    3  C5  UNL     1      14.245  24.970  12.116  1.00  0.00     0.329 C 
HETATM    4  N2  UNL     1      14.602  25.113  13.478  1.00  0.00    -0.040 NA
HETATM    5  O1  UNL     1      13.012  24.804  11.813  1.00  0.00    -0.251 OA
ENDROOT
BRANCH   1   6
HETATM    6  C4  UNL     1      14.813  24.855   9.707  1.00  0.00     0.089 A 
HETATM    7  C2  UNL     1      14.954  23.566   8.989  1.00  0.00     0.006 A 
HETATM    8  C1  UNL     1      15.246  22.352   9.820  1.00  0.00     0.012 C 
HETATM    9  C3  UNL     1      15.981  24.598   8.741  1.00  0.00     0.032 A 
ENDBRANCH   1   6
TORSDOF 1
ENDMDL
MODEL 3
REMARK VINA RESULT: -4.760231313      2.785      3.881
REMARK  1 active torsions:
REMARK  status: ('A' for Active; 'I' for Inactive)
REMARK    1  A    between atoms: C4_4  and  N1_5 
REMARK       I    between atoms: N1_5  and  C5_7 
ROOT
HETATM    1  N1  UNL     1      14.474  25.343  10.620  1.00  0.00    -0.340 N 
ATOM      2  H1  UNL     1      14.337  25.919   9.788  1.00  0.00     0.164 HD
HETATM    3  C5  UNL     1      13.967  25.784  11.870  1.00  0.00     0.329 C 
HETATM    4  N2  UNL     1      13.269  27.007  12.012  1.00  0.00    -0.040 NA
HETATM    5  O1  UNL     1      14.149  25.051  12.904  1.00  0.00    -0.251 OA
ENDROOT
BRANCH   1   6
HETATM    6  C4  UNL     1      15.175  24.101  10.512  1.00  0.00     0.089 A 
HETATM    7  C2  UNL     1      15.714  23.619   9.218  1.00  0.00     0.006 A 
HETATM    8  C1  UNL     1      15.761  24.606   8.089  1.00  0.00     0.012 C 
HETATM    9  C3  UNL     1      14.438  23.037   9.682  1.00  0.00     0.032 A 
ENDBRANCH   1   6
TORSDOF 1
ENDMDL
MODEL 4
REMARK VINA RESULT: -4.732942393      1.160      1.160
REMARK  1 active torsions:
REMARK  status: ('A' for Active; 'I' for Inactive)
REMARK    1  A    between atoms: C4_4  and  N1_5 
REMARK       I    between atoms: N1_5  and  C5_7 
ROOT
HETATM    1  N1  UNL     1      15.940  24.431   9.703  1.00  0.00    -0.340 N 
ATOM      2  H1  UNL     1      16.090  25.441   9.699  1.00  0.00     0.164 HD
HETATM    3  C5  UNL     1      16.946  23.571   9.188  1.00  0.00     0.329 C 
HETATM    4  N2  UNL     1      18.164  24.064   8.664  1.00  0.00    -0.040 NA
HETATM    5  O1  UNL     1      16.743  22.307   9.199  1.00  0.00    -0.251 OA
ENDROOT
BRANCH   1   6
HETATM    6  C4  UNL     1      14.720  23.898  10.227  1.00  0.00     0.089 A 
HETATM    7  C2  UNL     1      13.811  24.713  11.068  1.00  0.00     0.006 A 
HETATM    8  C1  UNL     1      14.061  26.192  11.106  1.00  0.00     0.012 C 
HETATM    9  C3  UNL     1      14.704  23.761  11.758  1.00  0.00     0.032 A 
ENDBRANCH   1   6
TORSDOF 1
ENDMDL
MODEL 5
REMARK VINA RESULT: -4.573914466      3.335      4.182
REMARK  1 active torsions:
REMARK  status: ('A' for Active; 'I' for Inactive)
REMARK    1  A    between atoms: C4_4  and  N1_5 
REMARK       I    between atoms: N1_5  and  C5_7 
ROOT
HETATM    1  N1  UNL     1      14.778  25.757  11.758  1.00  0.00    -0.340 N 
ATOM      2  H1  UNL     1      14.884  26.372  10.950  1.00  0.00     0.164 HD
HETATM    3  C5  UNL     1      14.453  26.310  13.024  1.00  0.00     0.329 C 
HETATM    4  N2  UNL     1      14.267  27.700  13.214  1.00  0.00    -0.040 NA
HETATM    5  O1  UNL     1      14.326  25.525  14.028  1.00  0.00    -0.251 OA
ENDROOT
BRANCH   1   6
HETATM    6  C4  UNL     1      14.958  24.346  11.601  1.00  0.00     0.089 A 
HETATM    7  C2  UNL     1      15.062  23.717  10.262  1.00  0.00     0.006 A 
HETATM    8  C1  UNL     1      15.268  24.634   9.093  1.00  0.00     0.012 C 
HETATM    9  C3  UNL     1      13.761  23.630  10.956  1.00  0.00     0.032 A 
ENDBRANCH   1   6
TORSDOF 1
ENDMDL
