MODEL 1
REMARK VINA RESULT: -4.443470932      0.000      0.000
REMARK  2 active torsions:
REMARK  status: ('A' for Active; 'I' for Inactive)
REMARK    1  A    between atoms: C1_2  and  N1_3 
REMARK    2  A    between atoms: C3_5  and  C4_6 
ROOT
HETATM    1  N1  UNL     1      16.187  23.575   9.136  1.00  0.00    -0.340 N 
HETATM    2  C2  UNL     1      14.809  23.056   9.322  1.00  0.00     0.162 A 
HETATM    3  C3  UNL     1      15.117  24.539   9.300  1.00  0.00     0.205 A 
ENDROOT
BRANCH   3   4
HETATM    4  C4  UNL     1      14.944  25.196  10.612  1.00  0.00     0.198 C 
HETATM    5  O2  UNL     1      14.047  26.028  10.861  1.00  0.00    -0.646 OA
HETATM    6  O3  UNL     1      15.822  24.886  11.640  1.00  0.00    -0.646 OA
ENDBRANCH   3   4
BRANCH   1   7
HETATM    7  C1  UNL     1      17.556  23.245   8.939  1.00  0.00     0.351 C 
HETATM    8  O1  UNL     1      18.393  24.099   8.575  1.00  0.00    -0.284 OA
ENDBRANCH   1   7
TORSDOF 2
ENDMDL
MODEL 2
REMARK VINA RESULT: -4.153916187      2.674      4.108
REMARK  2 active torsions:
REMARK  status: ('A' for Active; 'I' for Inactive)
REMARK    1  A    between atoms: C1_2  and  N1_3 
REMARK    2  A    between atoms: C3_5  and  C4_6 
ROOT
HETATM    1  N1  UNL     1      14.178  24.775  12.346  1.00  0.00    -0.340 N 
HETATM    2  C2  UNL     1      12.990  24.516  11.495  1.00  0.00     0.162 A 
HETATM    3  C3  UNL     1      14.234  23.655  11.428  1.00  0.00     0.205 A 
ENDROOT
BRANCH   3   4
HETATM    4  C4  UNL     1      14.987  23.805  10.164  1.00  0.00     0.198 C 
HETATM    5  O2  UNL     1      14.756  23.140   9.134  1.00  0.00    -0.646 OA
HETATM    6  O3  UNL     1      16.015  24.734  10.101  1.00  0.00    -0.646 OA
ENDBRANCH   3   4
BRANCH   1   7
HETATM    7  C1  UNL     1      14.754  25.601  13.350  1.00  0.00     0.351 C 
HETATM    8  O1  UNL     1      14.387  25.538  14.544  1.00  0.00    -0.284 OA
ENDBRANCH   1   7
TORSDOF 2
ENDMDL
MODEL 3
REMARK VINA RESULT: -4.138098653      1.064      1.091
REMARK  2 active torsions:
REMARK  status: ('A' for Active; 'I' for Inactive)
REMARK    1  A    between atoms: C1_2  and  N1_3 
REMARK    2  A    between atoms: C3_5  and  C4_6 
ROOT
HETATM    1  N1  UNL     1      16.055  23.696   8.937  1.00  0.00    -0.340 N 
HETATM    2  C2  UNL     1      15.526  22.509   9.654  1.00  0.00     0.162 A 
HETATM    3  C3  UNL     1      14.656  23.703   9.319  1.00  0.00     0.205 A 
ENDROOT
BRANCH   3   4
HETATM    4  C4  UNL     1      14.246  24.484  10.506  1.00  0.00     0.198 C 
HETATM    5  O2  UNL     1      13.158  24.330  11.097  1.00  0.00    -0.646 OA
HETATM    6  O3  UNL     1      15.106  25.451  11.004  1.00  0.00    -0.646 OA
ENDBRANCH   3   4
BRANCH   1   7
HETATM    7  C1  UNL     1      17.191  24.301   8.332  1.00  0.00     0.351 C 
HETATM    8  O1  UNL     1      18.355  24.017   8.687  1.00  0.00    -0.284 OA
ENDBRANCH   1   7
TORSDOF 2
ENDMDL
MODEL 4
REMARK VINA RESULT: -4.052288137      2.355      4.211
REMARK  2 active torsions:
REMARK  status: ('A' for Active; 'I' for Inactive)
REMARK    1  A    between atoms: C1_2  and  N1_3 
REMARK    2  A    between atoms: C3_5  and  C4_6 
ROOT
HETATM    1  N1  UNL     1      13.882  24.889  11.176  1.00  0.00    -0.340 N 
HETATM    2  C2  UNL     1      15.339  24.944  11.455  1.00  0.00     0.162 A 
HETATM    3  C3  UNL     1      14.769  25.212  10.077  1.00  0.00     0.205 A 
ENDROOT
BRANCH   3   4
HETATM    4  C4  UNL     1      15.095  24.159   9.091  1.00  0.00     0.198 C 
HETATM    5  O2  UNL     1      14.643  22.997   9.140  1.00  0.00    -0.646 OA
HETATM    6  O3  UNL     1      15.953  24.461   8.044  1.00  0.00    -0.646 OA
ENDBRANCH   3   4
BRANCH   1   7
HETATM    7  C1  UNL     1      12.585  24.662  11.714  1.00  0.00     0.351 C 
HETATM    8  O1  UNL     1      11.993  25.528  12.393  1.00  0.00    -0.284 OA
ENDBRANCH   1   7
TORSDOF 2
ENDMDL
MODEL 5
REMARK VINA RESULT: -4.046814610      2.045      2.509
REMARK  2 active torsions:
REMARK  status: ('A' for Active; 'I' for Inactive)
REMARK    1  A    between atoms: C1_2  and  N1_3 
REMARK    2  A    between atoms: C3_5  and  C4_6 
ROOT
HETATM    1  N1  UNL     1      14.386  23.635  10.356  1.00  0.00    -0.340 N 
HETATM    2  C2  UNL     1      14.464  23.250  11.788  1.00  0.00     0.162 A 
HETATM    3  C3  UNL     1      13.351  24.122  11.245  1.00  0.00     0.205 A 
ENDROOT
BRANCH   3   4
HETATM    4  C4  UNL     1      13.416  25.522  11.716  1.00  0.00     0.198 C 
HETATM    5  O2  UNL     1      14.133  26.399  11.193  1.00  0.00    -0.646 OA
HETATM    6  O3  UNL     1      12.644  25.901  12.805  1.00  0.00    -0.646 OA
ENDBRANCH   3   4
BRANCH   1   7
HETATM    7  C1  UNL     1      14.987  23.530   9.071  1.00  0.00     0.351 C 
HETATM    8  O1  UNL     1      15.390  24.537   8.449  1.00  0.00    -0.284 OA
ENDBRANCH   1   7
TORSDOF 2
ENDMDL
