MODEL 1
REMARK VINA RESULT: -4.746700101      0.000      0.000
REMARK  1 active torsions:
REMARK  status: ('A' for Active; 'I' for Inactive)
REMARK       I    between atoms: C1_2  and  N2_4 
REMARK    1  A    between atoms: N2_4  and  C2_6 
ROOT
HETATM    1  C2  UNL     1     -14.729  35.774  96.499  1.00  0.00     0.085 C 
HETATM    2  C3  UNL     1     -13.413  35.482  97.161  1.00  0.00     0.025 C 
HETATM    3  C4  UNL     1     -13.023  36.587  98.097  1.00  0.00     0.002 C 
HETATM    4  C5  UNL     1     -12.778  37.785  97.179  1.00  0.00     0.000 C 
HETATM    5  C6  UNL     1     -14.049  38.214  96.500  1.00  0.00     0.002 C 
HETATM    6  C7  UNL     1     -14.893  37.138  95.970  1.00  0.00     0.025 C 
ENDROOT
BRANCH   1   7
HETATM    7  N2  UNL     1     -14.856  34.794  95.413  1.00  0.00    -0.341 N 
HETATM    8  C1  UNL     1     -16.105  34.447  94.854  1.00  0.00     0.329 C 
HETATM    9  N1  UNL     1     -16.124  33.490  93.807  1.00  0.00    -0.040 NA
HETATM   10  O1  UNL     1     -17.156  34.957  95.255  1.00  0.00    -0.251 OA
ATOM     11  H2  UNL     1     -14.013  34.349  95.050  1.00  0.00     0.164 HD
ENDBRANCH   1   7
TORSDOF 1
ENDMDL
MODEL 2
REMARK VINA RESULT: -4.714947595      3.108      4.722
REMARK  1 active torsions:
REMARK  status: ('A' for Active; 'I' for Inactive)
REMARK       I    between atoms: C1_2  and  N2_4 
REMARK    1  A    between atoms: N2_4  and  C2_6 
ROOT
HETATM    1  C2  UNL     1     -13.891  36.374  96.727  1.00  0.00     0.085 C 
HETATM    2  C3  UNL     1     -14.906  36.586  95.640  1.00  0.00     0.025 C 
HETATM    3  C4  UNL     1     -16.058  35.638  95.785  1.00  0.00     0.002 C 
HETATM    4  C5  UNL     1     -15.444  34.261  95.528  1.00  0.00     0.000 C 
HETATM    5  C6  UNL     1     -14.447  33.906  96.596  1.00  0.00     0.002 C 
HETATM    6  C7  UNL     1     -13.527  34.974  97.002  1.00  0.00     0.025 C 
ENDROOT
BRANCH   1   7
HETATM    7  N2  UNL     1     -12.703  37.132  96.318  1.00  0.00    -0.341 N 
HETATM    8  C1  UNL     1     -11.817  37.707  97.255  1.00  0.00     0.329 C 
HETATM    9  N1  UNL     1     -10.695  38.422  96.760  1.00  0.00    -0.040 NA
HETATM   10  O1  UNL     1     -12.002  37.597  98.470  1.00  0.00    -0.251 OA
ATOM     11  H2  UNL     1     -12.510  37.248  95.323  1.00  0.00     0.164 HD
ENDBRANCH   1   7
TORSDOF 1
ENDMDL
MODEL 3
REMARK VINA RESULT: -4.714895807      3.571      4.826
REMARK  1 active torsions:
REMARK  status: ('A' for Active; 'I' for Inactive)
REMARK       I    between atoms: C1_2  and  N2_4 
REMARK    1  A    between atoms: N2_4  and  C2_6 
ROOT
HETATM    1  C2  UNL     1     -12.938  36.675  96.197  1.00  0.00     0.085 C 
HETATM    2  C3  UNL     1     -12.419  35.317  96.577  1.00  0.00     0.025 C 
HETATM    3  C4  UNL     1     -13.222  34.230  95.926  1.00  0.00     0.002 C 
HETATM    4  C5  UNL     1     -14.604  34.351  96.568  1.00  0.00     0.000 C 
HETATM    5  C6  UNL     1     -15.257  35.656  96.207  1.00  0.00     0.002 C 
HETATM    6  C7  UNL     1     -14.399  36.844  96.259  1.00  0.00     0.025 C 
ENDROOT
BRANCH   1   7
HETATM    7  N2  UNL     1     -12.281  37.622  97.106  1.00  0.00    -0.341 N 
HETATM    8  C1  UNL     1     -11.155  38.379  96.719  1.00  0.00     0.329 C 
HETATM    9  N1  UNL     1     -10.591  39.269  97.669  1.00  0.00    -0.040 NA
HETATM   10  O1  UNL     1     -10.667  38.279  95.589  1.00  0.00    -0.251 OA
ATOM     11  H2  UNL     1     -12.652  37.737  98.049  1.00  0.00     0.164 HD
ENDBRANCH   1   7
TORSDOF 1
ENDMDL
MODEL 4
REMARK VINA RESULT: -4.673335143      2.978      4.478
REMARK  1 active torsions:
REMARK  status: ('A' for Active; 'I' for Inactive)
REMARK       I    between atoms: C1_2  and  N2_4 
REMARK    1  A    between atoms: N2_4  and  C2_6 
ROOT
HETATM    1  C2  UNL     1     -14.006  36.073  96.218  1.00  0.00     0.085 C 
HETATM    2  C3  UNL     1     -14.121  34.613  96.556  1.00  0.00     0.025 C 
HETATM    3  C4  UNL     1     -14.718  33.841  95.418  1.00  0.00     0.002 C 
HETATM    4  C5  UNL     1     -16.150  34.368  95.319  1.00  0.00     0.000 C 
HETATM    5  C6  UNL     1     -16.168  35.818  94.923  1.00  0.00     0.002 C 
HETATM    6  C7  UNL     1     -15.191  36.682  95.593  1.00  0.00     0.025 C 
ENDROOT
BRANCH   1   7
HETATM    7  N2  UNL     1     -13.697  36.752  97.482  1.00  0.00    -0.341 N 
HETATM    8  C1  UNL     1     -12.379  37.105  97.844  1.00  0.00     0.329 C 
HETATM    9  N1  UNL     1     -12.182  37.761  99.087  1.00  0.00    -0.040 NA
HETATM   10  O1  UNL     1     -11.419  36.857  97.109  1.00  0.00    -0.251 OA
ATOM     11  H2  UNL     1     -14.460  36.978  98.120  1.00  0.00     0.164 HD
ENDBRANCH   1   7
TORSDOF 1
ENDMDL
MODEL 5
REMARK VINA RESULT: -4.646075974      6.006      7.288
REMARK  1 active torsions:
REMARK  status: ('A' for Active; 'I' for Inactive)
REMARK       I    between atoms: C1_2  and  N2_4 
REMARK    1  A    between atoms: N2_4  and  C2_6 
ROOT
HETATM    1  C2  UNL     1     -19.467  39.308  93.673  1.00  0.00     0.085 C 
HETATM    2  C3  UNL     1     -20.273  38.573  92.640  1.00  0.00     0.025 C 
HETATM    3  C4  UNL     1     -21.544  39.305  92.326  1.00  0.00     0.002 C 
HETATM    4  C5  UNL     1     -22.349  39.230  93.625  1.00  0.00     0.000 C 
HETATM    5  C6  UNL     1     -21.667  39.989  94.729  1.00  0.00     0.002 C 
HETATM    6  C7  UNL     1     -20.216  39.804  94.839  1.00  0.00     0.025 C 
ENDROOT
BRANCH   1   7
HETATM    7  N2  UNL     1     -18.423  38.372  94.105  1.00  0.00    -0.341 N 
HETATM    8  C1  UNL     1     -17.049  38.638  93.919  1.00  0.00     0.329 C 
HETATM    9  N1  UNL     1     -16.115  37.671  94.372  1.00  0.00    -0.040 NA
HETATM   10  O1  UNL     1     -16.660  39.679  93.382  1.00  0.00    -0.251 OA
ATOM     11  H2  UNL     1     -18.699  37.499  94.555  1.00  0.00     0.164 HD
ENDBRANCH   1   7
TORSDOF 1
ENDMDL
