MODEL 1
REMARK VINA RESULT: -4.265546621      0.000      0.000
REMARK  2 active torsions:
REMARK  status: ('A' for Active; 'I' for Inactive)
REMARK    1  A    between atoms: C1_2  and  N1_3 
REMARK    2  A    between atoms: N1_3  and  C2_5 
ROOT
HETATM    1  C2  UNL     1     -12.385  35.683  95.608  1.00  0.00     0.088 C 
HETATM    2  C3  UNL     1     -13.301  36.886  95.662  1.00  0.00     0.030 C 
HETATM    3  C4  UNL     1     -14.334  36.536  96.708  1.00  0.00    -0.012 C 
HETATM    4  C5  UNL     1     -15.192  35.372  96.283  1.00  0.00     0.005 C 
HETATM    5  C6  UNL     1     -14.195  34.208  96.198  1.00  0.00     0.007 C 
HETATM    6  C7  UNL     1     -12.913  34.766  96.707  1.00  0.00     0.009 C 
HETATM    7  C8  UNL     1     -13.409  35.815  97.708  1.00  0.00     0.011 C 
ENDROOT
BRANCH   1   8
HETATM    8  N1  UNL     1     -11.013  35.988  95.748  1.00  0.00    -0.363 N 
ATOM      9  H1  UNL     1     -10.347  35.246  95.963  1.00  0.00     0.162 HD
BRANCH   8  10
HETATM   10  C1  UNL     1     -10.560  37.325  95.590  1.00  0.00     0.348 C 
HETATM   11  O1  UNL     1      -9.889  37.917  96.483  1.00  0.00    -0.284 OA
ENDBRANCH   8  10
ENDBRANCH   1   8
TORSDOF 2
ENDMDL
MODEL 2
REMARK VINA RESULT: -4.250824528      2.893      3.824
REMARK  2 active torsions:
REMARK  status: ('A' for Active; 'I' for Inactive)
REMARK    1  A    between atoms: C1_2  and  N1_3 
REMARK    2  A    between atoms: N1_3  and  C2_5 
ROOT
HETATM    1  C2  UNL     1     -14.328  35.107  96.744  1.00  0.00     0.088 C 
HETATM    2  C3  UNL     1     -15.011  36.315  96.144  1.00  0.00     0.030 C 
HETATM    3  C4  UNL     1     -13.971  37.412  96.200  1.00  0.00    -0.012 C 
HETATM    4  C5  UNL     1     -13.624  37.784  97.619  1.00  0.00     0.005 C 
HETATM    5  C6  UNL     1     -12.989  36.503  98.178  1.00  0.00     0.007 C 
HETATM    6  C7  UNL     1     -12.904  35.580  97.014  1.00  0.00     0.009 C 
HETATM    7  C8  UNL     1     -12.730  36.566  95.852  1.00  0.00     0.011 C 
ENDROOT
BRANCH   1   8
HETATM    8  N1  UNL     1     -14.386  33.946  95.942  1.00  0.00    -0.363 N 
ATOM      9  H1  UNL     1     -13.621  33.271  95.967  1.00  0.00     0.162 HD
BRANCH   8  10
HETATM   10  C1  UNL     1     -15.508  33.715  95.102  1.00  0.00     0.348 C 
HETATM   11  O1  UNL     1     -15.383  33.456  93.871  1.00  0.00    -0.284 OA
ENDBRANCH   8  10
ENDBRANCH   1   8
TORSDOF 2
ENDMDL
MODEL 3
REMARK VINA RESULT: -4.246977003      9.142     10.046
REMARK  2 active torsions:
REMARK  status: ('A' for Active; 'I' for Inactive)
REMARK    1  A    between atoms: C1_2  and  N1_3 
REMARK    2  A    between atoms: N1_3  and  C2_5 
ROOT
HETATM    1  C2  UNL     1     -21.659  39.743  95.076  1.00  0.00     0.088 C 
HETATM    2  C3  UNL     1     -20.162  39.657  94.881  1.00  0.00     0.030 C 
HETATM    3  C4  UNL     1     -19.966  39.717  93.383  1.00  0.00    -0.012 C 
HETATM    4  C5  UNL     1     -20.552  38.512  92.691  1.00  0.00     0.005 C 
HETATM    5  C6  UNL     1     -22.056  38.636  92.975  1.00  0.00     0.007 C 
HETATM    6  C7  UNL     1     -22.207  39.945  93.667  1.00  0.00     0.009 C 
HETATM    7  C8  UNL     1     -21.058  40.753  93.052  1.00  0.00     0.011 C 
ENDROOT
BRANCH   1   8
HETATM    8  N1  UNL     1     -22.073  40.745  95.982  1.00  0.00    -0.363 N 
ATOM      9  H1  UNL     1     -23.023  41.113  95.935  1.00  0.00     0.162 HD
BRANCH   8  10
HETATM   10  C1  UNL     1     -21.168  41.240  96.959  1.00  0.00     0.348 C 
HETATM   11  O1  UNL     1     -21.564  41.712  98.063  1.00  0.00    -0.284 OA
ENDBRANCH   8  10
ENDBRANCH   1   8
TORSDOF 2
ENDMDL
MODEL 4
REMARK VINA RESULT: -4.240124292      3.233      4.322
REMARK  2 active torsions:
REMARK  status: ('A' for Active; 'I' for Inactive)
REMARK    1  A    between atoms: C1_2  and  N1_3 
REMARK    2  A    between atoms: N1_3  and  C2_5 
ROOT
HETATM    1  C2  UNL     1     -14.226  36.197  96.160  1.00  0.00     0.088 C 
HETATM    2  C3  UNL     1     -13.317  35.862  97.322  1.00  0.00     0.030 C 
HETATM    3  C4  UNL     1     -12.761  37.194  97.772  1.00  0.00    -0.012 C 
HETATM    4  C5  UNL     1     -11.885  37.822  96.718  1.00  0.00     0.005 C 
HETATM    5  C6  UNL     1     -12.857  38.084  95.558  1.00  0.00     0.007 C 
HETATM    6  C7  UNL     1     -14.196  37.721  96.093  1.00  0.00     0.009 C 
HETATM    7  C8  UNL     1     -14.032  38.046  97.583  1.00  0.00     0.011 C 
ENDROOT
BRANCH   1   8
HETATM    8  N1  UNL     1     -15.532  35.670  96.270  1.00  0.00    -0.363 N 
ATOM      9  H1  UNL     1     -16.025  35.716  97.162  1.00  0.00     0.162 HD
BRANCH   8  10
HETATM   10  C1  UNL     1     -16.159  35.078  95.142  1.00  0.00     0.348 C 
HETATM   11  O1  UNL     1     -17.417  35.030  95.020  1.00  0.00    -0.284 OA
ENDBRANCH   8  10
ENDBRANCH   1   8
TORSDOF 2
ENDMDL
MODEL 5
REMARK VINA RESULT: -4.232877495      8.553      9.477
REMARK  2 active torsions:
REMARK  status: ('A' for Active; 'I' for Inactive)
REMARK    1  A    between atoms: C1_2  and  N1_3 
REMARK    2  A    between atoms: N1_3  and  C2_5 
ROOT
HETATM    1  C2  UNL     1     -20.270  40.580  92.063  1.00  0.00     0.088 C 
HETATM    2  C3  UNL     1     -19.761  40.140  93.418  1.00  0.00     0.030 C 
HETATM    3  C4  UNL     1     -20.813  39.185  93.933  1.00  0.00    -0.012 C 
HETATM    4  C5  UNL     1     -22.129  39.879  94.181  1.00  0.00     0.005 C 
HETATM    5  C6  UNL     1     -22.557  40.342  92.781  1.00  0.00     0.007 C 
HETATM    6  C7  UNL     1     -21.541  39.761  91.861  1.00  0.00     0.009 C 
HETATM    7  C8  UNL     1     -21.149  38.479  92.604  1.00  0.00     0.011 C 
ENDROOT
BRANCH   1   8
HETATM    8  N1  UNL     1     -19.339  40.429  91.013  1.00  0.00    -0.363 N 
ATOM      9  H1  UNL     1     -19.556  40.790  90.084  1.00  0.00     0.162 HD
BRANCH   8  10
HETATM   10  C1  UNL     1     -18.099  39.776  91.247  1.00  0.00     0.348 C 
HETATM   11  O1  UNL     1     -17.000  40.401  91.250  1.00  0.00    -0.284 OA
ENDBRANCH   8  10
ENDBRANCH   1   8
TORSDOF 2
ENDMDL
