MODEL 1
REMARK VINA RESULT: -5.375155188      0.000      0.000
REMARK  2 active torsions:
REMARK  status: ('A' for Active; 'I' for Inactive)
REMARK    1  A    between atoms: C2_2  and  C3_3 
REMARK    2  A    between atoms: C5_5  and  C6_6 
REMARK       I    between atoms: C6_6  and  N1_8 
REMARK       I    between atoms: N1_8  and  C7_10 
ROOT
HETATM    1  C6  UNL     1     -13.341  36.360  97.205  1.00  0.00     0.228 C 
HETATM    2  O1  UNL     1     -12.127  36.075  97.474  1.00  0.00    -0.273 OA
HETATM    3  N1  UNL     1     -13.963  37.444  97.881  1.00  0.00    -0.301 N 
ATOM      4  H1  UNL     1     -14.933  37.674  97.666  1.00  0.00     0.171 HD
HETATM    5  C7  UNL     1     -13.264  38.215  98.847  1.00  0.00     0.188 C 
HETATM    6  N2  UNL     1     -13.847  39.184  99.441  1.00  0.00    -0.373 N 
ATOM      7  H21 UNL     1     -13.346  39.738 100.135  1.00  0.00     0.158 HD
ATOM      8  H22 UNL     1     -14.817  39.400  99.215  1.00  0.00     0.158 HD
HETATM    9  N3  UNL     1     -11.911  37.914  99.162  1.00  0.00    -0.064 NA
ENDROOT
BRANCH   1  10
HETATM   10  C5  UNL     1     -14.010  35.531  96.199  1.00  0.00     0.086 A 
HETATM   11  C3  UNL     1     -15.440  35.214  96.233  1.00  0.00     0.021 A 
HETATM   12  C4  UNL     1     -14.476  34.176  96.731  1.00  0.00     0.024 A 
BRANCH  11  13
HETATM   13  C2  UNL     1     -16.110  34.881  94.943  1.00  0.00    -0.031 C 
HETATM   14  C1  UNL     1     -16.219  33.655  94.483  1.00  0.00     0.007 C 
ENDBRANCH  11  13
ENDBRANCH   1  10
TORSDOF 2
ENDMDL
MODEL 2
REMARK VINA RESULT: -5.083884096      1.529      1.879
REMARK  2 active torsions:
REMARK  status: ('A' for Active; 'I' for Inactive)
REMARK    1  A    between atoms: C2_2  and  C3_3 
REMARK    2  A    between atoms: C5_5  and  C6_6 
REMARK       I    between atoms: C6_6  and  N1_8 
REMARK       I    between atoms: N1_8  and  C7_10 
ROOT
HETATM    1  C6  UNL     1     -12.804  36.782  97.319  1.00  0.00     0.228 C 
HETATM    2  O1  UNL     1     -12.794  36.544  98.572  1.00  0.00    -0.273 OA
HETATM    3  N1  UNL     1     -12.158  37.950  96.832  1.00  0.00    -0.301 N 
ATOM      4  H1  UNL     1     -12.164  38.142  95.830  1.00  0.00     0.171 HD
HETATM    5  C7  UNL     1     -11.504  38.857  97.708  1.00  0.00     0.188 C 
HETATM    6  N2  UNL     1     -10.931  39.900  97.244  1.00  0.00    -0.373 N 
ATOM      7  H21 UNL     1     -10.461  40.551  97.873  1.00  0.00     0.158 HD
ATOM      8  H22 UNL     1     -10.948  40.077  96.240  1.00  0.00     0.158 HD
HETATM    9  N3  UNL     1     -11.481  38.610  99.108  1.00  0.00    -0.064 NA
ENDROOT
BRANCH   1  10
HETATM   10  C5  UNL     1     -13.494  35.812  96.465  1.00  0.00     0.086 A 
HETATM   11  C3  UNL     1     -13.955  34.504  96.936  1.00  0.00     0.021 A 
HETATM   12  C4  UNL     1     -12.668  34.562  96.163  1.00  0.00     0.024 A 
BRANCH  11  13
HETATM   13  C2  UNL     1     -15.093  33.865  96.212  1.00  0.00    -0.031 C 
HETATM   14  C1  UNL     1     -15.794  34.480  95.286  1.00  0.00     0.007 C 
ENDBRANCH  11  13
ENDBRANCH   1  10
TORSDOF 2
ENDMDL
MODEL 3
REMARK VINA RESULT: -5.040815007      2.228      2.355
REMARK  2 active torsions:
REMARK  status: ('A' for Active; 'I' for Inactive)
REMARK    1  A    between atoms: C2_2  and  C3_3 
REMARK    2  A    between atoms: C5_5  and  C6_6 
REMARK       I    between atoms: C6_6  and  N1_8 
REMARK       I    between atoms: N1_8  and  C7_10 
ROOT
HETATM    1  C6  UNL     1     -12.302  36.160  96.202  1.00  0.00     0.228 C 
HETATM    2  O1  UNL     1     -11.341  36.080  97.037  1.00  0.00    -0.273 OA
HETATM    3  N1  UNL     1     -12.489  37.368  95.478  1.00  0.00    -0.301 N 
ATOM      4  H1  UNL     1     -13.256  37.434  94.809  1.00  0.00     0.171 HD
HETATM    5  C7  UNL     1     -11.631  38.485  95.663  1.00  0.00     0.188 C 
HETATM    6  N2  UNL     1     -11.821  39.560  95.000  1.00  0.00    -0.373 N 
ATOM      7  H21 UNL     1     -11.206  40.361  95.133  1.00  0.00     0.158 HD
ATOM      8  H22 UNL     1     -12.593  39.609  94.336  1.00  0.00     0.158 HD
HETATM    9  N3  UNL     1     -10.555  38.416  96.589  1.00  0.00    -0.064 NA
ENDROOT
BRANCH   1  10
HETATM   10  C5  UNL     1     -13.152  34.977  96.052  1.00  0.00     0.086 A 
HETATM   11  C3  UNL     1     -14.616  35.031  96.027  1.00  0.00     0.021 A 
HETATM   12  C4  UNL     1     -13.948  34.628  97.310  1.00  0.00     0.024 A 
BRANCH  11  13
HETATM   13  C2  UNL     1     -15.341  33.932  95.326  1.00  0.00    -0.031 C 
HETATM   14  C1  UNL     1     -16.413  34.129  94.590  1.00  0.00     0.007 C 
ENDBRANCH  11  13
ENDBRANCH   1  10
TORSDOF 2
ENDMDL
MODEL 4
REMARK VINA RESULT: -4.963825817      7.469      8.290
REMARK  2 active torsions:
REMARK  status: ('A' for Active; 'I' for Inactive)
REMARK    1  A    between atoms: C2_2  and  C3_3 
REMARK    2  A    between atoms: C5_5  and  C6_6 
REMARK       I    between atoms: C6_6  and  N1_8 
REMARK       I    between atoms: N1_8  and  C7_10 
ROOT
HETATM    1  C6  UNL     1     -18.211  40.511  92.148  1.00  0.00     0.228 C 
HETATM    2  O1  UNL     1     -18.390  41.769  92.262  1.00  0.00    -0.273 OA
HETATM    3  N1  UNL     1     -16.925  40.024  91.793  1.00  0.00    -0.301 N 
ATOM      4  H1  UNL     1     -16.780  39.018  91.703  1.00  0.00     0.171 HD
HETATM    5  C7  UNL     1     -15.835  40.906  91.563  1.00  0.00     0.188 C 
HETATM    6  N2  UNL     1     -14.689  40.443  91.245  1.00  0.00    -0.373 N 
ATOM      7  H21 UNL     1     -13.906  41.075  91.079  1.00  0.00     0.158 HD
ATOM      8  H22 UNL     1     -14.561  39.435  91.158  1.00  0.00     0.158 HD
HETATM    9  N3  UNL     1     -16.013  42.311  91.684  1.00  0.00    -0.064 NA
ENDROOT
BRANCH   1  10
HETATM   10  C5  UNL     1     -19.371  39.650  92.398  1.00  0.00     0.086 A 
HETATM   11  C3  UNL     1     -20.362  39.912  93.445  1.00  0.00     0.021 A 
HETATM   12  C4  UNL     1     -19.298  38.888  93.720  1.00  0.00     0.024 A 
BRANCH  11  13
HETATM   13  C2  UNL     1     -21.733  39.357  93.259  1.00  0.00    -0.031 C 
HETATM   14  C1  UNL     1     -22.745  40.068  92.814  1.00  0.00     0.007 C 
ENDBRANCH  11  13
ENDBRANCH   1  10
TORSDOF 2
ENDMDL
MODEL 5
REMARK VINA RESULT: -4.876824819      8.284      8.715
REMARK  2 active torsions:
REMARK  status: ('A' for Active; 'I' for Inactive)
REMARK    1  A    between atoms: C2_2  and  C3_3 
REMARK    2  A    between atoms: C5_5  and  C6_6 
REMARK       I    between atoms: C6_6  and  N1_8 
REMARK       I    between atoms: N1_8  and  C7_10 
ROOT
HETATM    1  C6  UNL     1     -18.507  41.345  92.261  1.00  0.00     0.228 C 
HETATM    2  O1  UNL     1     -18.395  42.588  92.523  1.00  0.00    -0.273 OA
HETATM    3  N1  UNL     1     -17.385  40.644  91.741  1.00  0.00    -0.301 N 
ATOM      4  H1  UNL     1     -17.473  39.650  91.532  1.00  0.00     0.171 HD
HETATM    5  C7  UNL     1     -16.146  41.296  91.507  1.00  0.00     0.188 C 
HETATM    6  N2  UNL     1     -15.153  40.644  91.039  1.00  0.00    -0.373 N 
ATOM      7  H21 UNL     1     -14.263  41.112  90.871  1.00  0.00     0.158 HD
ATOM      8  H22 UNL     1     -15.258  39.650  90.834  1.00  0.00     0.158 HD
HETATM    9  N3  UNL     1     -16.000  42.682  91.793  1.00  0.00    -0.064 NA
ENDROOT
BRANCH   1  10
HETATM   10  C5  UNL     1     -19.809  40.726  92.523  1.00  0.00     0.086 A 
HETATM   11  C3  UNL     1     -20.190  39.402  92.024  1.00  0.00     0.021 A 
HETATM   12  C4  UNL     1     -20.694  40.608  91.283  1.00  0.00     0.024 A 
BRANCH  11  13
HETATM   13  C2  UNL     1     -21.233  38.648  92.778  1.00  0.00    -0.031 C 
HETATM   14  C1  UNL     1     -22.140  39.230  93.532  1.00  0.00     0.007 C 
ENDBRANCH  11  13
ENDBRANCH   1  10
TORSDOF 2
ENDMDL
