MODEL 1
REMARK VINA RESULT: -4.864966708      0.000      0.000
REMARK  1 active torsions:
REMARK  status: ('A' for Active; 'I' for Inactive)
REMARK       I    between atoms: C1_2  and  N2_4 
REMARK    1  A    between atoms: N2_4  and  C2_6 
ROOT
HETATM    1  C2  UNL     1     -14.571  35.973  96.681  1.00  0.00     0.090 C 
HETATM    2  C3  UNL     1     -13.289  35.765  97.488  1.00  0.00     0.030 C 
HETATM    3  C4  UNL     1     -12.795  37.137  97.805  1.00  0.00    -0.012 C 
HETATM    4  C5  UNL     1     -12.013  37.628  96.590  1.00  0.00     0.005 C 
HETATM    5  C6  UNL     1     -13.093  37.577  95.521  1.00  0.00     0.007 C 
HETATM    6  C7  UNL     1     -14.407  37.391  96.246  1.00  0.00     0.009 C 
HETATM    7  C8  UNL     1     -14.044  38.015  97.611  1.00  0.00     0.011 C 
ENDROOT
BRANCH   1   8
HETATM    8  N2  UNL     1     -14.677  35.020  95.631  1.00  0.00    -0.340 N 
HETATM    9  C1  UNL     1     -15.904  34.634  95.065  1.00  0.00     0.329 C 
HETATM   10  N1  UNL     1     -15.994  33.680  94.015  1.00  0.00    -0.040 NA
HETATM   11  O1  UNL     1     -16.984  35.137  95.485  1.00  0.00    -0.251 OA
ATOM     12  H2  UNL     1     -13.821  34.596  95.272  1.00  0.00     0.164 HD
ENDBRANCH   1   8
TORSDOF 1
ENDMDL
MODEL 2
REMARK VINA RESULT: -4.659165890      7.537      8.690
REMARK  1 active torsions:
REMARK  status: ('A' for Active; 'I' for Inactive)
REMARK       I    between atoms: C1_2  and  N2_4 
REMARK    1  A    between atoms: N2_4  and  C2_6 
ROOT
HETATM    1  C2  UNL     1     -20.417  40.455  94.211  1.00  0.00     0.090 C 
HETATM    2  C3  UNL     1     -19.663  39.127  94.152  1.00  0.00     0.030 C 
HETATM    3  C4  UNL     1     -19.789  38.664  92.739  1.00  0.00    -0.012 C 
HETATM    4  C5  UNL     1     -21.139  37.963  92.613  1.00  0.00     0.005 C 
HETATM    5  C6  UNL     1     -22.080  39.094  92.993  1.00  0.00     0.007 C 
HETATM    6  C7  UNL     1     -21.256  40.362  92.980  1.00  0.00     0.009 C 
HETATM    7  C8  UNL     1     -20.156  39.949  91.978  1.00  0.00     0.011 C 
ENDROOT
BRANCH   1   8
HETATM    8  N2  UNL     1     -21.136  40.584  95.432  1.00  0.00    -0.340 N 
HETATM    9  C1  UNL     1     -20.691  41.375  96.505  1.00  0.00     0.329 C 
HETATM   10  N1  UNL     1     -21.421  41.493  97.719  1.00  0.00    -0.040 NA
HETATM   11  O1  UNL     1     -19.606  42.015  96.417  1.00  0.00    -0.251 OA
ATOM     12  H2  UNL     1     -22.016  40.078  95.532  1.00  0.00     0.164 HD
ENDBRANCH   1   8
TORSDOF 1
ENDMDL
MODEL 3
REMARK VINA RESULT: -4.618487154      2.869      4.434
REMARK  1 active torsions:
REMARK  status: ('A' for Active; 'I' for Inactive)
REMARK       I    between atoms: C1_2  and  N2_4 
REMARK    1  A    between atoms: N2_4  and  C2_6 
ROOT
HETATM    1  C2  UNL     1     -13.660  35.955  96.739  1.00  0.00     0.090 C 
HETATM    2  C3  UNL     1     -15.050  36.002  96.105  1.00  0.00     0.030 C 
HETATM    3  C4  UNL     1     -15.555  34.599  96.155  1.00  0.00    -0.012 C 
HETATM    4  C5  UNL     1     -14.972  33.866  94.948  1.00  0.00     0.005 C 
HETATM    5  C6  UNL     1     -13.484  34.013  95.222  1.00  0.00     0.007 C 
HETATM    6  C7  UNL     1     -13.355  34.497  96.649  1.00  0.00     0.009 C 
HETATM    7  C8  UNL     1     -14.673  33.945  97.233  1.00  0.00     0.011 C 
ENDROOT
BRANCH   1   8
HETATM    8  N2  UNL     1     -12.755  36.812  96.054  1.00  0.00    -0.340 N 
HETATM    9  C1  UNL     1     -11.784  37.587  96.713  1.00  0.00     0.329 C 
HETATM   10  N1  UNL     1     -10.885  38.439  96.014  1.00  0.00    -0.040 NA
HETATM   11  O1  UNL     1     -11.683  37.545  97.971  1.00  0.00    -0.251 OA
ATOM     12  H2  UNL     1     -12.813  36.867  95.037  1.00  0.00     0.164 HD
ENDBRANCH   1   8
TORSDOF 1
ENDMDL
MODEL 4
REMARK VINA RESULT: -4.599960868      1.273      1.449
REMARK  1 active torsions:
REMARK  status: ('A' for Active; 'I' for Inactive)
REMARK       I    between atoms: C1_2  and  N2_4 
REMARK    1  A    between atoms: N2_4  and  C2_6 
ROOT
HETATM    1  C2  UNL     1     -14.117  36.638  96.880  1.00  0.00     0.090 C 
HETATM    2  C3  UNL     1     -12.823  36.058  96.309  1.00  0.00     0.030 C 
HETATM    3  C4  UNL     1     -11.762  37.051  96.647  1.00  0.00    -0.012 C 
HETATM    4  C5  UNL     1     -11.807  38.140  95.578  1.00  0.00     0.005 C 
HETATM    5  C6  UNL     1     -13.228  38.649  95.754  1.00  0.00     0.007 C 
HETATM    6  C7  UNL     1     -13.735  38.069  97.056  1.00  0.00     0.009 C 
HETATM    7  C8  UNL     1     -12.392  37.865  97.791  1.00  0.00     0.011 C 
ENDROOT
BRANCH   1   8
HETATM    8  N2  UNL     1     -15.214  36.401  96.006  1.00  0.00    -0.340 N 
HETATM    9  C1  UNL     1     -15.880  35.166  95.926  1.00  0.00     0.329 C 
HETATM   10  N1  UNL     1     -16.976  34.945  95.048  1.00  0.00    -0.040 NA
HETATM   11  O1  UNL     1     -15.513  34.197  96.650  1.00  0.00    -0.251 OA
ATOM     12  H2  UNL     1     -15.533  37.165  95.410  1.00  0.00     0.164 HD
ENDBRANCH   1   8
TORSDOF 1
ENDMDL
MODEL 5
REMARK VINA RESULT: -4.570603139      6.427      7.555
REMARK  1 active torsions:
REMARK  status: ('A' for Active; 'I' for Inactive)
REMARK       I    between atoms: C1_2  and  N2_4 
REMARK    1  A    between atoms: N2_4  and  C2_6 
ROOT
HETATM    1  C2  UNL     1     -19.493  39.419  93.335  1.00  0.00     0.090 C 
HETATM    2  C3  UNL     1     -20.846  38.757  93.074  1.00  0.00     0.030 C 
HETATM    3  C4  UNL     1     -21.864  39.806  93.376  1.00  0.00    -0.012 C 
HETATM    4  C5  UNL     1     -22.090  39.795  94.886  1.00  0.00     0.005 C 
HETATM    5  C6  UNL     1     -20.689  40.113  95.382  1.00  0.00     0.007 C 
HETATM    6  C7  UNL     1     -19.902  40.581  94.178  1.00  0.00     0.009 C 
HETATM    7  C8  UNL     1     -21.056  41.113  93.301  1.00  0.00     0.011 C 
ENDROOT
BRANCH   1   8
HETATM    8  N2  UNL     1     -18.586  38.510  93.945  1.00  0.00    -0.340 N 
HETATM    9  C1  UNL     1     -17.191  38.602  93.796  1.00  0.00     0.329 C 
HETATM   10  N1  UNL     1     -16.296  37.685  94.413  1.00  0.00    -0.040 NA
HETATM   11  O1  UNL     1     -16.685  39.522  93.094  1.00  0.00    -0.251 OA
ATOM     12  H2  UNL     1     -18.965  37.757  94.518  1.00  0.00     0.164 HD
ENDBRANCH   1   8
TORSDOF 1
ENDMDL
