MODEL 1
REMARK VINA RESULT: -6.402079136      0.000      0.000
REMARK  3 active torsions:
REMARK  status: ('A' for Active; 'I' for Inactive)
REMARK    1  A    between atoms: N2_4  and  N3_6 
REMARK    2  A    between atoms: C1_8  and  N4_9 
REMARK    3  A    between atoms: N4_9  and  C2_11 
ROOT
HETATM    1  N4  UNL     1     -18.259  40.868  91.081  1.00  0.00    -0.380 N 
ATOM      2  H4  UNL     1     -18.600  40.253  90.343  1.00  0.00     0.160 HD
ENDROOT
BRANCH   1   3
HETATM    3  C1  UNL     1     -16.986  41.455  90.948  1.00  0.00     0.194 C 
HETATM    4  N3  UNL     1     -16.032  40.769  90.451  1.00  0.00    -0.283 N 
ATOM      5  H3  UNL     1     -16.209  39.808  90.159  1.00  0.00     0.189 HD
BRANCH   4   6
HETATM    6  N2  UNL     1     -14.762  41.299  90.298  1.00  0.00    -0.248 N 
HETATM    7  N1  UNL     1     -13.710  40.759  90.752  1.00  0.00    -0.331 N 
ATOM      8  H12 UNL     1     -13.823  39.881  91.259  1.00  0.00     0.178 HD
ATOM      9  H11 UNL     1     -12.774  41.150  90.640  1.00  0.00     0.178 HD
ATOM     10  H2  UNL     1     -14.669  42.178  89.789  1.00  0.00     0.207 HD
ENDBRANCH   4   6
ENDBRANCH   1   3
BRANCH   1  11
HETATM   11  C2  UNL     1     -19.081  41.109  92.210  1.00  0.00     0.090 C 
HETATM   12  C3  UNL     1     -18.492  40.586  93.528  1.00  0.00     0.026 C 
HETATM   13  C4  UNL     1     -19.218  41.328  94.619  1.00  0.00     0.002 C 
HETATM   14  C5  UNL     1     -20.692  41.238  94.566  1.00  0.00     0.001 C 
HETATM   15  C6  UNL     1     -21.306  41.275  93.203  1.00  0.00     0.011 C 
HETATM   16  C7  UNL     1     -20.478  40.584  92.148  1.00  0.00    -0.020 A 
HETATM   17  C8  UNL     1     -20.842  39.223  91.741  1.00  0.00     0.012 A 
HETATM   18  C9  UNL     1     -21.127  40.384  90.838  1.00  0.00     0.012 A 
ENDBRANCH   1  11
TORSDOF 3
ENDMDL
MODEL 2
REMARK VINA RESULT: -5.998224610      1.370      2.385
REMARK  3 active torsions:
REMARK  status: ('A' for Active; 'I' for Inactive)
REMARK    1  A    between atoms: N2_4  and  N3_6 
REMARK    2  A    between atoms: C1_8  and  N4_9 
REMARK    3  A    between atoms: N4_9  and  C2_11 
ROOT
HETATM    1  N4  UNL     1     -18.200  40.526  91.140  1.00  0.00    -0.380 N 
ATOM      2  H4  UNL     1     -18.220  39.562  91.474  1.00  0.00     0.160 HD
ENDROOT
BRANCH   1   3
HETATM    3  C1  UNL     1     -16.971  41.209  91.095  1.00  0.00     0.194 C 
HETATM    4  N3  UNL     1     -16.022  40.742  90.381  1.00  0.00    -0.283 N 
ATOM      5  H3  UNL     1     -16.172  39.880  89.856  1.00  0.00     0.189 HD
BRANCH   4   6
HETATM    6  N2  UNL     1     -14.794  41.376  90.303  1.00  0.00    -0.248 N 
HETATM    7  N1  UNL     1     -13.708  40.871  90.717  1.00  0.00    -0.331 N 
ATOM      8  H12 UNL     1     -13.760  39.940  91.131  1.00  0.00     0.178 HD
ATOM      9  H11 UNL     1     -12.804  41.339  90.660  1.00  0.00     0.178 HD
ATOM     10  H2  UNL     1     -14.762  42.307  89.887  1.00  0.00     0.207 HD
ENDBRANCH   4   6
ENDBRANCH   1   3
BRANCH   1  11
HETATM   11  C2  UNL     1     -19.413  41.137  90.733  1.00  0.00     0.090 C 
HETATM   12  C3  UNL     1     -19.486  42.638  91.044  1.00  0.00     0.026 C 
HETATM   13  C4  UNL     1     -20.564  43.186  90.147  1.00  0.00     0.002 C 
HETATM   14  C5  UNL     1     -21.872  42.508  90.251  1.00  0.00     0.001 C 
HETATM   15  C6  UNL     1     -21.833  41.024  90.426  1.00  0.00     0.011 C 
HETATM   16  C7  UNL     1     -20.676  40.545  91.267  1.00  0.00    -0.020 A 
HETATM   17  C8  UNL     1     -20.913  40.214  92.677  1.00  0.00     0.012 A 
HETATM   18  C9  UNL     1     -20.706  39.126  91.669  1.00  0.00     0.012 A 
ENDBRANCH   1  11
TORSDOF 3
ENDMDL
MODEL 3
REMARK VINA RESULT: -5.959360141      1.250      2.493
REMARK  3 active torsions:
REMARK  status: ('A' for Active; 'I' for Inactive)
REMARK    1  A    between atoms: N2_4  and  N3_6 
REMARK    2  A    between atoms: C1_8  and  N4_9 
REMARK    3  A    between atoms: N4_9  and  C2_11 
ROOT
HETATM    1  N4  UNL     1     -17.487  39.649  92.821  1.00  0.00    -0.380 N 
ATOM      2  H4  UNL     1     -16.996  39.269  93.630  1.00  0.00     0.160 HD
ENDROOT
BRANCH   1   3
HETATM    3  C1  UNL     1     -16.743  40.062  91.700  1.00  0.00     0.194 C 
HETATM    4  N3  UNL     1     -15.541  40.459  91.861  1.00  0.00    -0.283 N 
ATOM      5  H3  UNL     1     -15.142  40.471  92.799  1.00  0.00     0.189 HD
BRANCH   4   6
HETATM    6  N2  UNL     1     -14.766  40.874  90.791  1.00  0.00    -0.248 N 
HETATM    7  N1  UNL     1     -13.500  40.821  90.771  1.00  0.00    -0.331 N 
ATOM      8  H12 UNL     1     -13.040  40.448  91.602  1.00  0.00     0.178 HD
ATOM      9  H11 UNL     1     -12.929  41.127  89.983  1.00  0.00     0.178 HD
ATOM     10  H2  UNL     1     -15.244  41.244  89.970  1.00  0.00     0.207 HD
ENDBRANCH   4   6
ENDBRANCH   1   3
BRANCH   1  11
HETATM   11  C2  UNL     1     -18.901  39.747  92.859  1.00  0.00     0.090 C 
HETATM   12  C3  UNL     1     -19.566  39.669  91.478  1.00  0.00     0.026 C 
HETATM   13  C4  UNL     1     -21.003  39.305  91.740  1.00  0.00     0.002 C 
HETATM   14  C5  UNL     1     -21.716  40.199  92.676  1.00  0.00     0.001 C 
HETATM   15  C6  UNL     1     -20.925  40.697  93.843  1.00  0.00     0.011 C 
HETATM   16  C7  UNL     1     -19.473  40.957  93.522  1.00  0.00    -0.020 A 
HETATM   17  C8  UNL     1     -19.040  42.334  93.264  1.00  0.00     0.012 A 
HETATM   18  C9  UNL     1     -18.693  41.662  94.556  1.00  0.00     0.012 A 
ENDBRANCH   1  11
TORSDOF 3
ENDMDL
MODEL 4
REMARK VINA RESULT: -5.907743860      1.705      2.345
REMARK  3 active torsions:
REMARK  status: ('A' for Active; 'I' for Inactive)
REMARK    1  A    between atoms: N2_4  and  N3_6 
REMARK    2  A    between atoms: C1_8  and  N4_9 
REMARK    3  A    between atoms: N4_9  and  C2_11 
ROOT
HETATM    1  N4  UNL     1     -18.883  40.829  89.896  1.00  0.00    -0.380 N 
ATOM      2  H4  UNL     1     -18.941  41.044  88.901  1.00  0.00     0.160 HD
ENDROOT
BRANCH   1   3
HETATM    3  C1  UNL     1     -17.668  40.351  90.422  1.00  0.00     0.194 C 
HETATM    4  N3  UNL     1     -16.660  41.131  90.474  1.00  0.00    -0.283 N 
ATOM      5  H3  UNL     1     -16.752  42.088  90.131  1.00  0.00     0.189 HD
BRANCH   4   6
HETATM    6  N2  UNL     1     -15.444  40.710  90.982  1.00  0.00    -0.248 N 
HETATM    7  N1  UNL     1     -14.320  41.075  90.525  1.00  0.00    -0.331 N 
ATOM      8  H12 UNL     1     -14.330  41.719  89.733  1.00  0.00     0.178 HD
ATOM      9  H11 UNL     1     -13.423  40.764  90.900  1.00  0.00     0.178 HD
ATOM     10  H2  UNL     1     -15.453  40.067  91.774  1.00  0.00     0.207 HD
ENDBRANCH   4   6
ENDBRANCH   1   3
BRANCH   1  11
HETATM   11  C2  UNL     1     -20.028  41.022  90.709  1.00  0.00     0.090 C 
HETATM   12  C3  UNL     1     -20.521  39.742  91.400  1.00  0.00     0.026 C 
HETATM   13  C4  UNL     1     -21.383  40.207  92.544  1.00  0.00     0.002 C 
HETATM   14  C5  UNL     1     -22.480  41.123  92.172  1.00  0.00     0.001 C 
HETATM   15  C6  UNL     1     -22.165  42.133  91.115  1.00  0.00     0.011 C 
HETATM   16  C7  UNL     1     -21.227  41.620  90.050  1.00  0.00    -0.020 A 
HETATM   17  C8  UNL     1     -21.786  41.174  88.769  1.00  0.00     0.012 A 
HETATM   18  C9  UNL     1     -21.057  42.479  88.863  1.00  0.00     0.012 A 
ENDBRANCH   1  11
TORSDOF 3
ENDMDL
MODEL 5
REMARK VINA RESULT: -5.863009658      1.031      2.443
REMARK  3 active torsions:
REMARK  status: ('A' for Active; 'I' for Inactive)
REMARK    1  A    between atoms: N2_4  and  N3_6 
REMARK    2  A    between atoms: C1_8  and  N4_9 
REMARK    3  A    between atoms: N4_9  and  C2_11 
ROOT
HETATM    1  N4  UNL     1     -17.947  41.888  91.484  1.00  0.00    -0.380 N 
ATOM      2  H4  UNL     1     -17.789  42.771  91.968  1.00  0.00     0.160 HD
ENDROOT
BRANCH   1   3
HETATM    3  C1  UNL     1     -16.848  41.208  90.926  1.00  0.00     0.194 C 
HETATM    4  N3  UNL     1     -15.784  41.858  90.655  1.00  0.00    -0.283 N 
ATOM      5  H3  UNL     1     -15.750  42.860  90.846  1.00  0.00     0.189 HD
BRANCH   4   6
HETATM    6  N2  UNL     1     -14.675  41.236  90.106  1.00  0.00    -0.248 N 
HETATM    7  N1  UNL     1     -13.694  40.810  90.786  1.00  0.00    -0.331 N 
ATOM      8  H12 UNL     1     -13.740  40.941  91.797  1.00  0.00     0.178 HD
ATOM      9  H11 UNL     1     -12.877  40.352  90.382  1.00  0.00     0.178 HD
ATOM     10  H2  UNL     1     -14.647  41.113  89.095  1.00  0.00     0.207 HD
ENDBRANCH   4   6
ENDBRANCH   1   3
BRANCH   1  11
HETATM   11  C2  UNL     1     -19.267  41.381  91.391  1.00  0.00     0.090 C 
HETATM   12  C3  UNL     1     -20.310  42.435  90.993  1.00  0.00     0.026 C 
HETATM   13  C4  UNL     1     -21.497  41.659  90.485  1.00  0.00     0.002 C 
HETATM   14  C5  UNL     1     -22.027  40.642  91.416  1.00  0.00     0.001 C 
HETATM   15  C6  UNL     1     -21.012  39.878  92.205  1.00  0.00     0.011 C 
HETATM   16  C7  UNL     1     -19.813  40.702  92.605  1.00  0.00    -0.020 A 
HETATM   17  C8  UNL     1     -19.747  41.244  93.966  1.00  0.00     0.012 A 
HETATM   18  C9  UNL     1     -18.889  40.081  93.573  1.00  0.00     0.012 A 
ENDBRANCH   1  11
TORSDOF 3
ENDMDL
