MODEL 1
REMARK VINA RESULT: -4.793071625      0.000      0.000
REMARK  3 active torsions:
REMARK  status: ('A' for Active; 'I' for Inactive)
REMARK       I    between atoms: C1_2  and  N1_3 
REMARK    1  A    between atoms: C1_2  and  C7_13 
REMARK    2  A    between atoms: N1_3  and  C2_5 
REMARK    3  A    between atoms: C2_5  and  C3_6 
ROOT
HETATM    1  C2  UNL     1     -24.102  43.350  93.107  1.00  0.00     0.155 C 
ENDROOT
BRANCH   1   2
HETATM    2  N1  UNL     1     -23.440  42.303  93.846  1.00  0.00    -0.359 N 
HETATM    3  C1  UNL     1     -22.059  42.105  93.660  1.00  0.00     0.221 C 
HETATM    4  O1  UNL     1     -21.426  42.828  92.867  1.00  0.00    -0.273 OA
ATOM      5  H1  UNL     1     -23.964  41.714  94.493  1.00  0.00     0.162 HD
BRANCH   3   6
HETATM    6  C7  UNL     1     -21.345  41.044  94.397  1.00  0.00     0.078 A 
HETATM    7  C8  UNL     1     -19.898  41.152  94.696  1.00  0.00     0.015 A 
HETATM    8  C9  UNL     1     -20.822  41.503  95.782  1.00  0.00     0.015 A 
ENDBRANCH   3   6
ENDBRANCH   1   2
BRANCH   1   9
HETATM    9  C3  UNL     1     -25.423  43.740  93.720  1.00  0.00     0.203 C 
HETATM   10  C4  UNL     1     -25.267  44.705  94.866  1.00  0.00     0.036 C 
HETATM   11  C5  UNL     1     -26.539  44.538  95.631  1.00  0.00     0.029 C 
HETATM   12  C6  UNL     1     -27.097  43.224  95.168  1.00  0.00     0.233 C 
HETATM   13  N2  UNL     1     -26.125  42.635  94.282  1.00  0.00    -0.069 N 
ATOM     14  H22 UNL     1     -26.527  42.004  93.588  1.00  0.00     0.277 HD
ATOM     15  H21 UNL     1     -25.522  41.946  94.730  1.00  0.00     0.277 HD
ENDBRANCH   1   9
TORSDOF 3
ENDMDL
MODEL 2
REMARK VINA RESULT: -4.740914097     12.300     13.255
REMARK  3 active torsions:
REMARK  status: ('A' for Active; 'I' for Inactive)
REMARK       I    between atoms: C1_2  and  N1_3 
REMARK    1  A    between atoms: C1_2  and  C7_13 
REMARK    2  A    between atoms: N1_3  and  C2_5 
REMARK    3  A    between atoms: C2_5  and  C3_6 
ROOT
HETATM    1  C2  UNL     1     -11.004  37.010  95.817  1.00  0.00     0.155 C 
ENDROOT
BRANCH   1   2
HETATM    2  N1  UNL     1     -12.295  36.402  96.028  1.00  0.00    -0.359 N 
HETATM    3  C1  UNL     1     -12.513  35.087  95.577  1.00  0.00     0.221 C 
HETATM    4  O1  UNL     1     -11.599  34.465  95.003  1.00  0.00    -0.273 OA
ATOM      5  H1  UNL     1     -13.039  36.918  96.498  1.00  0.00     0.162 HD
BRANCH   3   6
HETATM    6  C7  UNL     1     -13.820  34.431  95.774  1.00  0.00     0.078 A 
HETATM    7  C8  UNL     1     -15.089  35.186  95.654  1.00  0.00     0.015 A 
HETATM    8  C9  UNL     1     -14.685  34.388  94.490  1.00  0.00     0.015 A 
ENDBRANCH   3   6
ENDBRANCH   1   2
BRANCH   1   9
HETATM    9  C3  UNL     1     -11.066  38.516  95.838  1.00  0.00     0.203 C 
HETATM   10  C4  UNL     1     -12.438  39.034  96.182  1.00  0.00     0.036 C 
HETATM   11  C5  UNL     1     -12.425  40.425  95.640  1.00  0.00     0.029 C 
HETATM   12  C6  UNL     1     -11.288  40.448  94.662  1.00  0.00     0.233 C 
HETATM   13  N2  UNL     1     -10.773  39.105  94.574  1.00  0.00    -0.069 N 
ATOM     14  H22 UNL     1      -9.787  39.056  94.314  1.00  0.00     0.277 HD
ATOM     15  H21 UNL     1     -11.129  38.576  93.779  1.00  0.00     0.277 HD
ENDBRANCH   1   9
TORSDOF 3
ENDMDL
MODEL 3
REMARK VINA RESULT: -4.574620973      8.631     10.827
REMARK  3 active torsions:
REMARK  status: ('A' for Active; 'I' for Inactive)
REMARK       I    between atoms: C1_2  and  N1_3 
REMARK    1  A    between atoms: C1_2  and  C7_13 
REMARK    2  A    between atoms: N1_3  and  C2_5 
REMARK    3  A    between atoms: C2_5  and  C3_6 
ROOT
HETATM    1  C2  UNL     1     -13.379  40.783  91.811  1.00  0.00     0.155 C 
ENDROOT
BRANCH   1   2
HETATM    2  N1  UNL     1     -12.607  41.988  91.629  1.00  0.00    -0.359 N 
HETATM    3  C1  UNL     1     -11.580  42.286  92.544  1.00  0.00     0.221 C 
HETATM    4  O1  UNL     1     -11.348  41.515  93.495  1.00  0.00    -0.273 OA
ATOM      5  H1  UNL     1     -12.803  42.615  90.848  1.00  0.00     0.162 HD
BRANCH   3   6
HETATM    6  C7  UNL     1     -10.768  43.509  92.391  1.00  0.00     0.078 A 
HETATM    7  C8  UNL     1     -11.318  44.724  91.746  1.00  0.00     0.015 A 
HETATM    8  C9  UNL     1     -11.304  44.708  93.214  1.00  0.00     0.015 A 
ENDBRANCH   3   6
ENDBRANCH   1   2
BRANCH   1   9
HETATM    9  C3  UNL     1     -14.862  41.050  91.847  1.00  0.00     0.203 C 
HETATM   10  C4  UNL     1     -15.602  40.086  92.737  1.00  0.00     0.036 C 
HETATM   11  C5  UNL     1     -17.005  40.161  92.231  1.00  0.00     0.029 C 
HETATM   12  C6  UNL     1     -16.891  40.766  90.863  1.00  0.00     0.233 C 
HETATM   13  N2  UNL     1     -15.486  40.907  90.574  1.00  0.00    -0.069 N 
ATOM     14  H22 UNL     1     -15.272  41.661  89.922  1.00  0.00     0.277 HD
ATOM     15  H21 UNL     1     -15.103  40.151  90.008  1.00  0.00     0.277 HD
ENDBRANCH   1   9
TORSDOF 3
ENDMDL
MODEL 4
REMARK VINA RESULT: -4.544407481      5.624      8.836
REMARK  3 active torsions:
REMARK  status: ('A' for Active; 'I' for Inactive)
REMARK       I    between atoms: C1_2  and  N1_3 
REMARK    1  A    between atoms: C1_2  and  C7_13 
REMARK    2  A    between atoms: N1_3  and  C2_5 
REMARK    3  A    between atoms: C2_5  and  C3_6 
ROOT
HETATM    1  C2  UNL     1     -16.925  41.660  90.916  1.00  0.00     0.155 C 
ENDROOT
BRANCH   1   2
HETATM    2  N1  UNL     1     -18.051  40.792  90.673  1.00  0.00    -0.359 N 
HETATM    3  C1  UNL     1     -19.002  40.606  91.693  1.00  0.00     0.221 C 
HETATM    4  O1  UNL     1     -18.865  41.185  92.787  1.00  0.00    -0.273 OA
ATOM      5  H1  UNL     1     -18.156  40.320  89.775  1.00  0.00     0.162 HD
BRANCH   3   6
HETATM    6  C7  UNL     1     -20.168  39.725  91.483  1.00  0.00     0.078 A 
HETATM    7  C8  UNL     1     -21.403  39.875  92.288  1.00  0.00     0.015 A 
HETATM    8  C9  UNL     1     -21.415  40.475  90.948  1.00  0.00     0.015 A 
ENDBRANCH   3   6
ENDBRANCH   1   2
BRANCH   1   9
HETATM    9  C3  UNL     1     -15.692  40.900  91.334  1.00  0.00     0.203 C 
HETATM   10  C4  UNL     1     -15.287  41.190  92.755  1.00  0.00     0.036 C 
HETATM   11  C5  UNL     1     -13.844  40.807  92.786  1.00  0.00     0.029 C 
HETATM   12  C6  UNL     1     -13.423  40.774  91.346  1.00  0.00     0.233 C 
HETATM   13  N2  UNL     1     -14.542  41.235  90.563  1.00  0.00    -0.069 N 
ATOM     14  H22 UNL     1     -14.560  40.867  89.611  1.00  0.00     0.277 HD
ATOM     15  H21 UNL     1     -14.489  42.220  90.306  1.00  0.00     0.277 HD
ENDBRANCH   1   9
TORSDOF 3
ENDMDL
MODEL 5
REMARK VINA RESULT: -4.537181076      9.350     11.085
REMARK  3 active torsions:
REMARK  status: ('A' for Active; 'I' for Inactive)
REMARK       I    between atoms: C1_2  and  N1_3 
REMARK    1  A    between atoms: C1_2  and  C7_13 
REMARK    2  A    between atoms: N1_3  and  C2_5 
REMARK    3  A    between atoms: C2_5  and  C3_6 
ROOT
HETATM    1  C2  UNL     1     -14.337  44.221  92.351  1.00  0.00     0.155 C 
ENDROOT
BRANCH   1   2
HETATM    2  N1  UNL     1     -12.986  44.005  91.897  1.00  0.00    -0.359 N 
HETATM    3  C1  UNL     1     -11.935  44.701  92.523  1.00  0.00     0.221 C 
HETATM    4  O1  UNL     1     -12.178  45.490  93.456  1.00  0.00    -0.273 OA
ATOM      5  H1  UNL     1     -12.794  43.357  91.132  1.00  0.00     0.162 HD
BRANCH   3   6
HETATM    6  C7  UNL     1     -10.538  44.507  92.087  1.00  0.00     0.078 A 
HETATM    7  C8  UNL     1      -9.402  45.019  92.888  1.00  0.00     0.015 A 
HETATM    8  C9  UNL     1      -9.721  43.593  93.035  1.00  0.00     0.015 A 
ENDBRANCH   3   6
ENDBRANCH   1   2
BRANCH   1   9
HETATM    9  C3  UNL     1     -15.246  43.062  92.028  1.00  0.00     0.203 C 
HETATM   10  C4  UNL     1     -15.005  41.872  92.919  1.00  0.00     0.036 C 
HETATM   11  C5  UNL     1     -15.567  40.734  92.131  1.00  0.00     0.029 C 
HETATM   12  C6  UNL     1     -15.656  41.247  90.724  1.00  0.00     0.233 C 
HETATM   13  N2  UNL     1     -15.061  42.559  90.708  1.00  0.00    -0.069 N 
ATOM     14  H22 UNL     1     -15.426  43.170  89.977  1.00  0.00     0.277 HD
ATOM     15  H21 UNL     1     -14.091  42.569  90.394  1.00  0.00     0.277 HD
ENDBRANCH   1   9
TORSDOF 3
ENDMDL
