MODEL 1
REMARK VINA RESULT: -4.979841689      0.000      0.000
REMARK  4 active torsions:
REMARK  status: ('A' for Active; 'I' for Inactive)
REMARK    1  A    between atoms: C2_2  and  C3_3 
REMARK    2  A    between atoms: C3_3  and  N1_4 
REMARK    3  A    between atoms: C3_3  and  C4_8 
REMARK       I    between atoms: C4_8  and  N2_10 
REMARK    4  A    between atoms: N2_10  and  C5_12 
ROOT
HETATM    1  C4  UNL     1     -11.876  36.524  96.122  1.00  0.00     0.252 C 
HETATM    2  O1  UNL     1     -10.653  36.616  96.400  1.00  0.00    -0.271 OA
HETATM    3  N2  UNL     1     -12.811  37.567  96.365  1.00  0.00    -0.354 N 
ATOM      4  H2  UNL     1     -13.799  37.465  96.129  1.00  0.00     0.162 HD
ENDROOT
BRANCH   1   5
HETATM    5  C3  UNL     1     -12.347  35.245  95.506  1.00  0.00     0.296 C 
BRANCH   5   6
HETATM    6  C2  UNL     1     -13.611  34.780  96.133  1.00  0.00     0.005 C 
HETATM    7  C1  UNL     1     -14.690  34.649  95.384  1.00  0.00     0.009 C 
ENDBRANCH   5   6
BRANCH   5   8
HETATM    8  N1  UNL     1     -11.332  34.221  95.574  1.00  0.00    -0.063 N 
ATOM      9  H13 UNL     1     -11.643  33.417  96.120  1.00  0.00     0.275 HD
ATOM     10  H12 UNL     1     -11.204  33.756  94.675  1.00  0.00     0.275 HD
ATOM     11  H11 UNL     1     -10.454  34.601  95.931  1.00  0.00     0.275 HD
ENDBRANCH   5   8
ENDBRANCH   1   5
BRANCH   3  12
HETATM   12  C5  UNL     1     -12.295  38.776  96.960  1.00  0.00     0.084 C 
HETATM   13  C6  UNL     1     -12.583  40.007  96.143  1.00  0.00     0.025 C 
HETATM   14  C7  UNL     1     -12.150  41.084  97.143  1.00  0.00     0.002 C 
HETATM   15  C8  UNL     1     -12.781  40.585  98.412  1.00  0.00     0.002 C 
HETATM   16  C9  UNL     1     -13.036  39.113  98.245  1.00  0.00     0.025 C 
ENDBRANCH   3  12
TORSDOF 4
ENDMDL
MODEL 2
REMARK VINA RESULT: -4.768388208      1.779      2.217
REMARK  4 active torsions:
REMARK  status: ('A' for Active; 'I' for Inactive)
REMARK    1  A    between atoms: C2_2  and  C3_3 
REMARK    2  A    between atoms: C3_3  and  N1_4 
REMARK    3  A    between atoms: C3_3  and  C4_8 
REMARK       I    between atoms: C4_8  and  N2_10 
REMARK    4  A    between atoms: N2_10  and  C5_12 
ROOT
HETATM    1  C4  UNL     1     -13.476  36.479  95.705  1.00  0.00     0.252 C 
HETATM    2  O1  UNL     1     -14.197  37.356  95.166  1.00  0.00    -0.271 OA
HETATM    3  N2  UNL     1     -12.407  36.784  96.591  1.00  0.00    -0.354 N 
ATOM      4  H2  UNL     1     -11.838  36.051  97.015  1.00  0.00     0.162 HD
ENDROOT
BRANCH   1   5
HETATM    5  C3  UNL     1     -13.777  35.049  95.382  1.00  0.00     0.296 C 
BRANCH   5   6
HETATM    6  C2  UNL     1     -15.221  34.854  95.097  1.00  0.00     0.005 C 
HETATM    7  C1  UNL     1     -15.583  34.283  93.965  1.00  0.00     0.009 C 
ENDBRANCH   5   6
BRANCH   5   8
HETATM    8  N1  UNL     1     -13.335  34.167  96.435  1.00  0.00    -0.063 N 
ATOM      9  H13 UNL     1     -13.553  34.543  97.358  1.00  0.00     0.275 HD
ATOM     10  H12 UNL     1     -13.900  33.318  96.478  1.00  0.00     0.275 HD
ATOM     11  H11 UNL     1     -12.342  33.954  96.340  1.00  0.00     0.275 HD
ENDBRANCH   5   8
ENDBRANCH   1   5
BRANCH   3  12
HETATM   12  C5  UNL     1     -12.168  38.181  96.862  1.00  0.00     0.084 C 
HETATM   13  C6  UNL     1     -11.924  38.468  98.320  1.00  0.00     0.025 C 
HETATM   14  C7  UNL     1     -11.469  39.927  98.221  1.00  0.00     0.002 C 
HETATM   15  C8  UNL     1     -10.511  39.863  97.064  1.00  0.00     0.002 C 
HETATM   16  C9  UNL     1     -10.847  38.638  96.262  1.00  0.00     0.025 C 
ENDBRANCH   3  12
TORSDOF 4
ENDMDL
MODEL 3
REMARK VINA RESULT: -4.702365576      5.862      7.295
REMARK  4 active torsions:
REMARK  status: ('A' for Active; 'I' for Inactive)
REMARK    1  A    between atoms: C2_2  and  C3_3 
REMARK    2  A    between atoms: C3_3  and  N1_4 
REMARK    3  A    between atoms: C3_3  and  C4_8 
REMARK       I    between atoms: C4_8  and  N2_10 
REMARK    4  A    between atoms: N2_10  and  C5_12 
ROOT
HETATM    1  C4  UNL     1     -14.895  39.943  92.673  1.00  0.00     0.252 C 
HETATM    2  O1  UNL     1     -14.897  38.947  93.439  1.00  0.00    -0.271 OA
HETATM    3  N2  UNL     1     -16.075  40.645  92.304  1.00  0.00    -0.354 N 
ATOM      4  H2  UNL     1     -16.045  41.452  91.679  1.00  0.00     0.162 HD
ENDROOT
BRANCH   1   5
HETATM    5  C3  UNL     1     -13.575  40.393  92.133  1.00  0.00     0.296 C 
BRANCH   5   6
HETATM    6  C2  UNL     1     -12.996  41.479  92.965  1.00  0.00     0.005 C 
HETATM    7  C1  UNL     1     -11.941  42.136  92.523  1.00  0.00     0.009 C 
ENDBRANCH   5   6
BRANCH   5   8
HETATM    8  N1  UNL     1     -13.680  40.801  90.753  1.00  0.00    -0.063 N 
ATOM      9  H13 UNL     1     -14.296  40.184  90.224  1.00  0.00     0.275 HD
ATOM     10  H12 UNL     1     -14.208  41.668  90.655  1.00  0.00     0.275 HD
ATOM     11  H11 UNL     1     -12.757  40.871  90.322  1.00  0.00     0.275 HD
ENDBRANCH   5   8
ENDBRANCH   1   5
BRANCH   3  12
HETATM   12  C5  UNL     1     -17.318  40.162  92.857  1.00  0.00     0.084 C 
HETATM   13  C6  UNL     1     -18.058  41.207  93.648  1.00  0.00     0.025 C 
HETATM   14  C7  UNL     1     -19.386  40.474  93.859  1.00  0.00     0.002 C 
HETATM   15  C8  UNL     1     -19.645  39.924  92.484  1.00  0.00     0.002 C 
HETATM   16  C9  UNL     1     -18.330  39.872  91.760  1.00  0.00     0.025 C 
ENDBRANCH   3  12
TORSDOF 4
ENDMDL
MODEL 4
REMARK VINA RESULT: -4.692172994      1.229      1.501
REMARK  4 active torsions:
REMARK  status: ('A' for Active; 'I' for Inactive)
REMARK    1  A    between atoms: C2_2  and  C3_3 
REMARK    2  A    between atoms: C3_3  and  N1_4 
REMARK    3  A    between atoms: C3_3  and  C4_8 
REMARK       I    between atoms: C4_8  and  N2_10 
REMARK    4  A    between atoms: N2_10  and  C5_12 
ROOT
HETATM    1  C4  UNL     1     -12.259  36.530  96.286  1.00  0.00     0.252 C 
HETATM    2  O1  UNL     1     -12.103  36.488  97.532  1.00  0.00    -0.271 OA
HETATM    3  N2  UNL     1     -12.244  37.739  95.537  1.00  0.00    -0.354 N 
ATOM      4  H2  UNL     1     -12.373  37.744  94.525  1.00  0.00     0.162 HD
ENDROOT
BRANCH   1   5
HETATM    5  C3  UNL     1     -12.470  35.231  95.575  1.00  0.00     0.296 C 
BRANCH   5   6
HETATM    6  C2  UNL     1     -13.756  34.602  95.975  1.00  0.00     0.005 C 
HETATM    7  C1  UNL     1     -14.846  34.867  95.281  1.00  0.00     0.009 C 
ENDBRANCH   5   6
BRANCH   5   8
HETATM    8  N1  UNL     1     -11.366  34.327  95.789  1.00  0.00    -0.063 N 
ATOM      9  H13 UNL     1     -11.678  33.435  96.173  1.00  0.00     0.275 HD
ATOM     10  H12 UNL     1     -10.980  33.988  94.907  1.00  0.00     0.275 HD
ATOM     11  H11 UNL     1     -10.649  34.759  96.373  1.00  0.00     0.275 HD
ENDBRANCH   5   8
ENDBRANCH   1   5
BRANCH   3  12
HETATM   12  C5  UNL     1     -12.036  38.959  96.280  1.00  0.00     0.084 C 
HETATM   13  C6  UNL     1     -10.589  39.367  96.354  1.00  0.00     0.025 C 
HETATM   14  C7  UNL     1     -10.749  40.767  96.955  1.00  0.00     0.002 C 
HETATM   15  C8  UNL     1     -11.878  41.319  96.132  1.00  0.00     0.002 C 
HETATM   16  C9  UNL     1     -12.627  40.154  95.548  1.00  0.00     0.025 C 
ENDBRANCH   3  12
TORSDOF 4
ENDMDL
MODEL 5
REMARK VINA RESULT: -4.591494488      7.889      9.207
REMARK  4 active torsions:
REMARK  status: ('A' for Active; 'I' for Inactive)
REMARK    1  A    between atoms: C2_2  and  C3_3 
REMARK    2  A    between atoms: C3_3  and  N1_4 
REMARK    3  A    between atoms: C3_3  and  C4_8 
REMARK       I    between atoms: C4_8  and  N2_10 
REMARK    4  A    between atoms: N2_10  and  C5_12 
ROOT
HETATM    1  C4  UNL     1     -16.836  41.269  91.451  1.00  0.00     0.252 C 
HETATM    2  O1  UNL     1     -16.970  41.498  92.680  1.00  0.00    -0.271 OA
HETATM    3  N2  UNL     1     -17.926  40.970  90.589  1.00  0.00    -0.354 N 
ATOM      4  H2  UNL     1     -17.788  40.789  89.595  1.00  0.00     0.162 HD
ENDROOT
BRANCH   1   5
HETATM    5  C3  UNL     1     -15.450  41.320  90.890  1.00  0.00     0.296 C 
BRANCH   5   6
HETATM    6  C2  UNL     1     -14.462  40.753  91.845  1.00  0.00     0.005 C 
HETATM    7  C1  UNL     1     -13.197  41.116  91.754  1.00  0.00     0.009 C 
ENDBRANCH   5   6
BRANCH   5   8
HETATM    8  N1  UNL     1     -15.084  42.662  90.507  1.00  0.00    -0.063 N 
ATOM      9  H13 UNL     1     -15.712  43.034  89.793  1.00  0.00     0.275 HD
ATOM     10  H12 UNL     1     -15.281  43.333  91.250  1.00  0.00     0.275 HD
ATOM     11  H11 UNL     1     -14.109  42.703  90.209  1.00  0.00     0.275 HD
ENDBRANCH   5   8
ENDBRANCH   1   5
BRANCH   3  12
HETATM   12  C5  UNL     1     -19.238  40.936  91.191  1.00  0.00     0.084 C 
HETATM   13  C6  UNL     1     -20.348  41.163  90.200  1.00  0.00     0.025 C 
HETATM   14  C7  UNL     1     -21.552  40.818  91.082  1.00  0.00     0.002 C 
HETATM   15  C8  UNL     1     -21.081  39.556  91.749  1.00  0.00     0.002 C 
HETATM   16  C9  UNL     1     -19.580  39.537  91.680  1.00  0.00     0.025 C 
ENDBRANCH   3  12
TORSDOF 4
ENDMDL
