MODEL 1
REMARK VINA RESULT: -5.744478542      0.000      0.000
REMARK  4 active torsions:
REMARK  status: ('A' for Active; 'I' for Inactive)
REMARK    1  A    between atoms: C2_2  and  C3_3 
REMARK    2  A    between atoms: C3_3  and  C5_5 
REMARK       I    between atoms: C5_5  and  N1_7 
REMARK    3  A    between atoms: N1_7  and  C6_9 
REMARK    4  A    between atoms: C9_16  and  C10_17 
ROOT
HETATM    1  C6  UNL     1     -15.742  40.754  92.264  1.00  0.00     0.135 A 
HETATM    2  N2  UNL     1     -14.650  40.135  91.806  1.00  0.00    -0.284 N 
ATOM      3  H2  UNL     1     -14.622  39.535  90.981  1.00  0.00     0.188 HD
HETATM    4  N3  UNL     1     -13.609  40.414  92.577  1.00  0.00    -0.303 N 
ATOM      5  H3  UNL     1     -12.666  40.055  92.425  1.00  0.00     0.186 HD
HETATM    6  C7  UNL     1     -13.954  41.229  93.584  1.00  0.00     0.036 A 
HETATM    7  C8  UNL     1     -12.985  41.750  94.600  1.00  0.00     0.070 C 
HETATM    8  C9  UNL     1     -15.302  41.468  93.421  1.00  0.00     0.035 A 
ENDROOT
BRANCH   1   9
HETATM    9  N1  UNL     1     -16.950  40.729  91.964  1.00  0.00    -0.311 N 
HETATM   10  C5  UNL     1     -17.897  39.729  91.973  1.00  0.00     0.227 C 
HETATM   11  O1  UNL     1     -18.210  39.139  90.909  1.00  0.00    -0.273 OA
ATOM     12  H1  UNL     1     -17.311  41.629  91.649  1.00  0.00     0.170 HD
BRANCH  10  13
HETATM   13  C3  UNL     1     -18.604  39.281  93.220  1.00  0.00     0.074 C 
HETATM   14  C4  UNL     1     -17.698  38.567  94.149  1.00  0.00     0.020 C 
BRANCH  13  15
HETATM   15  C2  UNL     1     -19.325  40.391  93.908  1.00  0.00     0.009 C 
HETATM   16  C1  UNL     1     -19.671  40.072  95.335  1.00  0.00     0.006 C 
ENDBRANCH  13  15
ENDBRANCH  10  13
ENDBRANCH   1   9
BRANCH   8  17
HETATM   17  C10 UNL     1     -16.105  42.377  94.212  1.00  0.00    -0.072 C 
HETATM   18  C11 UNL     1     -15.900  43.830  94.055  1.00  0.00     0.044 C 
HETATM   19  C12 UNL     1     -16.374  41.918  95.592  1.00  0.00     0.044 C 
ENDBRANCH   8  17
TORSDOF 4
ENDMDL
MODEL 2
REMARK VINA RESULT: -5.587181713      0.721      1.155
REMARK  4 active torsions:
REMARK  status: ('A' for Active; 'I' for Inactive)
REMARK    1  A    between atoms: C2_2  and  C3_3 
REMARK    2  A    between atoms: C3_3  and  C5_5 
REMARK       I    between atoms: C5_5  and  N1_7 
REMARK    3  A    between atoms: N1_7  and  C6_9 
REMARK    4  A    between atoms: C9_16  and  C10_17 
ROOT
HETATM    1  C6  UNL     1     -15.713  40.761  92.254  1.00  0.00     0.135 A 
HETATM    2  N2  UNL     1     -14.606  40.124  91.863  1.00  0.00    -0.284 N 
ATOM      3  H2  UNL     1     -14.541  39.512  91.049  1.00  0.00     0.188 HD
HETATM    4  N3  UNL     1     -13.603  40.401  92.685  1.00  0.00    -0.303 N 
ATOM      5  H3  UNL     1     -12.658  40.030  92.587  1.00  0.00     0.186 HD
HETATM    6  C7  UNL     1     -13.991  41.234  93.660  1.00  0.00     0.036 A 
HETATM    7  C8  UNL     1     -13.072  41.758  94.720  1.00  0.00     0.070 C 
HETATM    8  C9  UNL     1     -15.326  41.486  93.423  1.00  0.00     0.035 A 
ENDROOT
BRANCH   1   9
HETATM    9  N1  UNL     1     -16.903  40.746  91.890  1.00  0.00    -0.311 N 
HETATM   10  C5  UNL     1     -17.929  39.847  92.079  1.00  0.00     0.227 C 
HETATM   11  O1  UNL     1     -18.240  39.034  91.173  1.00  0.00    -0.273 OA
ATOM     12  H1  UNL     1     -17.173  41.563  91.343  1.00  0.00     0.170 HD
BRANCH  10  13
HETATM   13  C3  UNL     1     -18.729  39.771  93.349  1.00  0.00     0.074 C 
HETATM   14  C4  UNL     1     -19.576  40.970  93.546  1.00  0.00     0.020 C 
BRANCH  13  15
HETATM   15  C2  UNL     1     -19.527  38.516  93.458  1.00  0.00     0.009 C 
HETATM   16  C1  UNL     1     -21.008  38.751  93.359  1.00  0.00     0.006 C 
ENDBRANCH  13  15
ENDBRANCH  10  13
ENDBRANCH   1   9
BRANCH   8  17
HETATM   17  C10 UNL     1     -16.159  42.415  94.158  1.00  0.00    -0.072 C 
HETATM   18  C11 UNL     1     -15.914  43.863  94.010  1.00  0.00     0.044 C 
HETATM   19  C12 UNL     1     -16.526  41.967  95.519  1.00  0.00     0.044 C 
ENDBRANCH   8  17
TORSDOF 4
ENDMDL
MODEL 3
REMARK VINA RESULT: -5.210832417      3.095      5.857
REMARK  4 active torsions:
REMARK  status: ('A' for Active; 'I' for Inactive)
REMARK    1  A    between atoms: C2_2  and  C3_3 
REMARK    2  A    between atoms: C3_3  and  C5_5 
REMARK       I    between atoms: C5_5  and  N1_7 
REMARK    3  A    between atoms: N1_7  and  C6_9 
REMARK    4  A    between atoms: C9_16  and  C10_17 
ROOT
HETATM    1  C6  UNL     1     -12.783  41.315  93.708  1.00  0.00     0.135 A 
HETATM    2  N2  UNL     1     -12.075  40.433  94.420  1.00  0.00    -0.284 N 
ATOM      3  H2  UNL     1     -11.083  40.523  94.640  1.00  0.00     0.188 HD
HETATM    4  N3  UNL     1     -12.848  39.425  94.800  1.00  0.00    -0.303 N 
ATOM      5  H3  UNL     1     -12.529  38.631  95.354  1.00  0.00     0.186 HD
HETATM    6  C7  UNL     1     -14.105  39.585  94.361  1.00  0.00     0.036 A 
HETATM    7  C8  UNL     1     -15.218  38.628  94.662  1.00  0.00     0.070 C 
HETATM    8  C9  UNL     1     -14.105  40.773  93.661  1.00  0.00     0.035 A 
ENDROOT
BRANCH   1   9
HETATM    9  N1  UNL     1     -12.502  42.340  93.060  1.00  0.00    -0.311 N 
HETATM   10  C5  UNL     1     -12.591  43.683  93.347  1.00  0.00     0.227 C 
HETATM   11  O1  UNL     1     -13.551  44.366  92.913  1.00  0.00    -0.273 OA
ATOM     12  H1  UNL     1     -12.132  42.145  92.130  1.00  0.00     0.170 HD
BRANCH  10  13
HETATM   13  C3  UNL     1     -11.574  44.412  94.181  1.00  0.00     0.074 C 
HETATM   14  C4  UNL     1     -11.945  44.437  95.615  1.00  0.00     0.020 C 
BRANCH  13  15
HETATM   15  C2  UNL     1     -10.188  43.897  93.985  1.00  0.00     0.009 C 
HETATM   16  C1  UNL     1      -9.586  43.338  95.243  1.00  0.00     0.006 C 
ENDBRANCH  13  15
ENDBRANCH  10  13
ENDBRANCH   1   9
BRANCH   8  17
HETATM   17  C10 UNL     1     -15.266  41.419  93.084  1.00  0.00    -0.072 C 
HETATM   18  C11 UNL     1     -16.205  42.126  93.976  1.00  0.00     0.044 C 
HETATM   19  C12 UNL     1     -15.885  40.680  91.963  1.00  0.00     0.044 C 
ENDBRANCH   8  17
TORSDOF 4
ENDMDL
MODEL 4
REMARK VINA RESULT: -5.177541792      2.751      4.035
REMARK  4 active torsions:
REMARK  status: ('A' for Active; 'I' for Inactive)
REMARK    1  A    between atoms: C2_2  and  C3_3 
REMARK    2  A    between atoms: C3_3  and  C5_5 
REMARK       I    between atoms: C5_5  and  N1_7 
REMARK    3  A    between atoms: N1_7  and  C6_9 
REMARK    4  A    between atoms: C9_16  and  C10_17 
ROOT
HETATM    1  C6  UNL     1     -18.988  40.778  92.194  1.00  0.00     0.135 A 
HETATM    2  N2  UNL     1     -18.529  39.866  91.333  1.00  0.00    -0.284 N 
ATOM      3  H2  UNL     1     -18.735  39.851  90.334  1.00  0.00     0.188 HD
HETATM    4  N3  UNL     1     -17.768  38.983  91.963  1.00  0.00    -0.303 N 
ATOM      5  H3  UNL     1     -17.307  38.193  91.512  1.00  0.00     0.186 HD
HETATM    6  C7  UNL     1     -17.681  39.262  93.271  1.00  0.00     0.036 A 
HETATM    7  C8  UNL     1     -16.861  38.465  94.239  1.00  0.00     0.070 C 
HETATM    8  C9  UNL     1     -18.444  40.396  93.460  1.00  0.00     0.035 A 
ENDROOT
BRANCH   1   9
HETATM    9  N1  UNL     1     -19.798  41.720  92.119  1.00  0.00    -0.311 N 
HETATM   10  C5  UNL     1     -21.158  41.771  91.905  1.00  0.00     0.227 C 
HETATM   11  O1  UNL     1     -21.614  42.044  90.767  1.00  0.00    -0.273 OA
ATOM     12  H1  UNL     1     -19.370  42.638  92.240  1.00  0.00     0.170 HD
BRANCH  10  13
HETATM   13  C3  UNL     1     -22.168  41.511  92.987  1.00  0.00     0.074 C 
HETATM   14  C4  UNL     1     -23.175  42.593  93.082  1.00  0.00     0.020 C 
BRANCH  13  15
HETATM   15  C2  UNL     1     -22.815  40.173  92.865  1.00  0.00     0.009 C 
HETATM   16  C1  UNL     1     -21.978  39.061  93.430  1.00  0.00     0.006 C 
ENDBRANCH  13  15
ENDBRANCH  10  13
ENDBRANCH   1   9
BRANCH   8  17
HETATM   17  C10 UNL     1     -18.573  41.137  94.697  1.00  0.00    -0.072 C 
HETATM   18  C11 UNL     1     -17.368  41.744  95.293  1.00  0.00     0.044 C 
HETATM   19  C12 UNL     1     -19.540  40.563  95.658  1.00  0.00     0.044 C 
ENDBRANCH   8  17
TORSDOF 4
ENDMDL
MODEL 5
REMARK VINA RESULT: -5.168849454      3.905      5.176
REMARK  4 active torsions:
REMARK  status: ('A' for Active; 'I' for Inactive)
REMARK    1  A    between atoms: C2_2  and  C3_3 
REMARK    2  A    between atoms: C3_3  and  C5_5 
REMARK       I    between atoms: C5_5  and  N1_7 
REMARK    3  A    between atoms: N1_7  and  C6_9 
REMARK    4  A    between atoms: C9_16  and  C10_17 
ROOT
HETATM    1  C6  UNL     1     -15.130  38.548  94.508  1.00  0.00     0.135 A 
HETATM    2  N2  UNL     1     -14.031  38.749  93.776  1.00  0.00    -0.284 N 
ATOM      3  H2  UNL     1     -13.143  38.264  93.911  1.00  0.00     0.188 HD
HETATM    4  N3  UNL     1     -14.260  39.668  92.849  1.00  0.00    -0.303 N 
ATOM      5  H3  UNL     1     -13.568  39.988  92.171  1.00  0.00     0.186 HD
HETATM    6  C7  UNL     1     -15.518  40.124  92.917  1.00  0.00     0.036 A 
HETATM    7  C8  UNL     1     -16.086  41.142  91.976  1.00  0.00     0.070 C 
HETATM    8  C9  UNL     1     -16.105  39.438  93.960  1.00  0.00     0.035 A 
ENDROOT
BRANCH   1   9
HETATM    9  N1  UNL     1     -15.389  37.888  95.531  1.00  0.00    -0.311 N 
HETATM   10  C5  UNL     1     -14.921  36.687  96.015  1.00  0.00     0.227 C 
HETATM   11  O1  UNL     1     -15.589  35.634  95.863  1.00  0.00    -0.273 OA
ATOM     12  H1  UNL     1     -16.088  38.324  96.132  1.00  0.00     0.170 HD
BRANCH  10  13
HETATM   13  C3  UNL     1     -13.611  36.549  96.739  1.00  0.00     0.074 C 
HETATM   14  C4  UNL     1     -13.400  37.639  97.720  1.00  0.00     0.020 C 
BRANCH  13  15
HETATM   15  C2  UNL     1     -13.434  35.208  97.366  1.00  0.00     0.009 C 
HETATM   16  C1  UNL     1     -12.411  34.361  96.663  1.00  0.00     0.006 C 
ENDBRANCH  13  15
ENDBRANCH  10  13
ENDBRANCH   1   9
BRANCH   8  17
HETATM   17  C10 UNL     1     -17.496  39.517  94.353  1.00  0.00    -0.072 C 
HETATM   18  C11 UNL     1     -18.508  38.822  93.535  1.00  0.00     0.044 C 
HETATM   19  C12 UNL     1     -17.908  40.830  94.895  1.00  0.00     0.044 C 
ENDBRANCH   8  17
TORSDOF 4
ENDMDL
