MODEL 1
REMARK VINA RESULT: -5.410056893      0.000      0.000
REMARK  4 active torsions:
REMARK  status: ('A' for Active; 'I' for Inactive)
REMARK    1  A    between atoms: C2_2  and  C4_4 
REMARK    2  A    between atoms: C4_4  and  N1_5 
REMARK    3  A    between atoms: C4_4  and  C6_10 
REMARK       I    between atoms: N1_5  and  C5_7 
REMARK    4  A    between atoms: C6_10  and  N3_12 
ROOT
HETATM    1  C4  UNL     1     -16.775  39.326  94.020  1.00  0.00     0.017 C 
ENDROOT
BRANCH   1   2
HETATM    2  C2  UNL     1     -15.662  39.955  93.301  1.00  0.00     0.025 C 
HETATM    3  C1  UNL     1     -14.951  40.952  94.246  1.00  0.00     0.016 C 
HETATM    4  C3  UNL     1     -16.081  40.801  92.121  1.00  0.00     0.016 C 
ENDBRANCH   1   2
BRANCH   1   5
HETATM    5  N1  UNL     1     -16.659  37.898  94.303  1.00  0.00    -0.316 N 
HETATM    6  C5  UNL     1     -15.739  37.179  95.040  1.00  0.00     0.332 C 
HETATM    7  N2  UNL     1     -15.955  35.730  95.125  1.00  0.00    -0.040 NA
HETATM    8  O1  UNL     1     -14.730  37.530  95.668  1.00  0.00    -0.251 OA
ATOM      9  H1  UNL     1     -17.391  37.328  93.879  1.00  0.00     0.169 HD
ENDBRANCH   1   5
BRANCH   1  10
HETATM   10  C6  UNL     1     -18.184  39.644  93.744  1.00  0.00     0.130 C 
HETATM   11  C7  UNL     1     -19.027  38.617  93.065  1.00  0.00     0.039 C 
BRANCH  10  12
HETATM   12  N3  UNL     1     -18.912  40.241  94.847  1.00  0.00    -0.357 N 
HETATM   13  C8  UNL     1     -18.514  41.370  95.452  1.00  0.00     0.091 A 
HETATM   14  C9  UNL     1     -19.216  41.930  96.508  1.00  0.00     0.017 A 
HETATM   15  C10 UNL     1     -20.363  41.329  96.974  1.00  0.00     0.003 A 
HETATM   16  C11 UNL     1     -20.771  40.179  96.361  1.00  0.00     0.017 A 
HETATM   17  C12 UNL     1     -20.028  39.676  95.319  1.00  0.00     0.091 A 
ENDBRANCH  10  12
ENDBRANCH   1  10
TORSDOF 4
ENDMDL
MODEL 2
REMARK VINA RESULT: -5.285944397      4.772      6.943
REMARK  4 active torsions:
REMARK  status: ('A' for Active; 'I' for Inactive)
REMARK    1  A    between atoms: C2_2  and  C4_4 
REMARK    2  A    between atoms: C4_4  and  N1_5 
REMARK    3  A    between atoms: C4_4  and  C6_10 
REMARK       I    between atoms: N1_5  and  C5_7 
REMARK    4  A    between atoms: C6_10  and  N3_12 
ROOT
HETATM    1  C4  UNL     1     -13.056  38.780  97.368  1.00  0.00     0.017 C 
ENDROOT
BRANCH   1   2
HETATM    2  C2  UNL     1     -13.706  40.040  96.992  1.00  0.00     0.025 C 
HETATM    3  C1  UNL     1     -14.194  39.938  95.528  1.00  0.00     0.016 C 
HETATM    4  C3  UNL     1     -12.787  41.238  96.992  1.00  0.00     0.016 C 
ENDBRANCH   1   2
BRANCH   1   5
HETATM    5  N1  UNL     1     -12.071  38.837  98.444  1.00  0.00    -0.316 N 
HETATM    6  C5  UNL     1     -11.833  38.001  99.518  1.00  0.00     0.332 C 
HETATM    7  N2  UNL     1     -10.721  38.371 100.402  1.00  0.00    -0.040 NA
HETATM    8  O1  UNL     1     -12.395  36.963  99.895  1.00  0.00    -0.251 OA
ATOM      9  H1  UNL     1     -11.445  39.641  98.394  1.00  0.00     0.169 HD
ENDBRANCH   1   5
BRANCH   1  10
HETATM   10  C6  UNL     1     -12.624  37.778  96.380  1.00  0.00     0.130 C 
HETATM   11  C7  UNL     1     -11.171  37.677  96.057  1.00  0.00     0.039 C 
BRANCH  10  12
HETATM   12  N3  UNL     1     -13.195  36.456  96.548  1.00  0.00    -0.357 N 
HETATM   13  C8  UNL     1     -12.445  35.362  96.742  1.00  0.00     0.091 A 
HETATM   14  C9  UNL     1     -13.002  34.102  96.899  1.00  0.00     0.017 A 
HETATM   15  C10 UNL     1     -14.368  33.938  96.856  1.00  0.00     0.003 A 
HETATM   16  C11 UNL     1     -15.135  35.050  96.658  1.00  0.00     0.017 A 
HETATM   17  C12 UNL     1     -14.518  36.270  96.510  1.00  0.00     0.091 A 
ENDBRANCH  10  12
ENDBRANCH   1  10
TORSDOF 4
ENDMDL
MODEL 3
REMARK VINA RESULT: -5.241871593      4.311      5.439
REMARK  4 active torsions:
REMARK  status: ('A' for Active; 'I' for Inactive)
REMARK    1  A    between atoms: C2_2  and  C4_4 
REMARK    2  A    between atoms: C4_4  and  N1_5 
REMARK    3  A    between atoms: C4_4  and  C6_10 
REMARK       I    between atoms: N1_5  and  C5_7 
REMARK    4  A    between atoms: C6_10  and  N3_12 
ROOT
HETATM    1  C4  UNL     1     -20.845  40.316  92.066  1.00  0.00     0.017 C 
ENDROOT
BRANCH   1   2
HETATM    2  C2  UNL     1     -19.610  39.652  92.494  1.00  0.00     0.025 C 
HETATM    3  C1  UNL     1     -18.687  39.465  91.266  1.00  0.00     0.016 C 
HETATM    4  C3  UNL     1     -19.808  38.250  93.023  1.00  0.00     0.016 C 
ENDBRANCH   1   2
BRANCH   1   5
HETATM    5  N1  UNL     1     -20.810  41.025  90.790  1.00  0.00    -0.316 N 
HETATM    6  C5  UNL     1     -21.671  41.018  89.710  1.00  0.00     0.332 C 
HETATM    7  N2  UNL     1     -21.318  41.892  88.584  1.00  0.00    -0.040 NA
HETATM    8  O1  UNL     1     -22.721  40.395  89.497  1.00  0.00    -0.251 OA
ATOM      9  H1  UNL     1     -20.002  41.637  90.675  1.00  0.00     0.169 HD
ENDBRANCH   1   5
BRANCH   1  10
HETATM   10  C6  UNL     1     -21.720  41.050  92.994  1.00  0.00     0.130 C 
HETATM   11  C7  UNL     1     -23.186  40.774  92.961  1.00  0.00     0.039 C 
BRANCH  10  12
HETATM   12  N3  UNL     1     -21.253  41.115  94.365  1.00  0.00    -0.357 N 
HETATM   13  C8  UNL     1     -20.267  41.936  94.757  1.00  0.00     0.091 A 
HETATM   14  C9  UNL     1     -19.827  41.988  96.070  1.00  0.00     0.017 A 
HETATM   15  C10 UNL     1     -20.400  41.180  97.026  1.00  0.00     0.003 A 
HETATM   16  C11 UNL     1     -21.403  40.343  96.630  1.00  0.00     0.017 A 
HETATM   17  C12 UNL     1     -21.792  40.341  95.312  1.00  0.00     0.091 A 
ENDBRANCH  10  12
ENDBRANCH   1  10
TORSDOF 4
ENDMDL
MODEL 4
REMARK VINA RESULT: -5.220650957      5.571      7.298
REMARK  4 active torsions:
REMARK  status: ('A' for Active; 'I' for Inactive)
REMARK    1  A    between atoms: C2_2  and  C4_4 
REMARK    2  A    between atoms: C4_4  and  N1_5 
REMARK    3  A    between atoms: C4_4  and  C6_10 
REMARK       I    between atoms: N1_5  and  C5_7 
REMARK    4  A    between atoms: C6_10  and  N3_12 
ROOT
HETATM    1  C4  UNL     1     -22.101  42.475  90.847  1.00  0.00     0.017 C 
ENDROOT
BRANCH   1   2
HETATM    2  C2  UNL     1     -22.624  43.523  91.729  1.00  0.00     0.025 C 
HETATM    3  C1  UNL     1     -21.447  44.172  92.494  1.00  0.00     0.016 C 
HETATM    4  C3  UNL     1     -23.539  43.017  92.821  1.00  0.00     0.016 C 
ENDBRANCH   1   2
BRANCH   1   5
HETATM    5  N1  UNL     1     -22.030  42.782  89.421  1.00  0.00    -0.316 N 
HETATM    6  C5  UNL     1     -21.242  43.666  88.709  1.00  0.00     0.332 C 
HETATM    7  N2  UNL     1     -21.435  43.691  87.254  1.00  0.00    -0.040 NA
HETATM    8  O1  UNL     1     -20.372  44.471  89.072  1.00  0.00    -0.251 OA
ATOM      9  H1  UNL     1     -22.680  42.247  88.846  1.00  0.00     0.169 HD
ENDBRANCH   1   5
BRANCH   1  10
HETATM   10  C6  UNL     1     -22.436  41.052  91.011  1.00  0.00     0.130 C 
HETATM   11  C7  UNL     1     -22.900  40.287  89.817  1.00  0.00     0.039 C 
BRANCH  10  12
HETATM   12  N3  UNL     1     -21.474  40.271  91.764  1.00  0.00    -0.357 N 
HETATM   13  C8  UNL     1     -20.151  40.471  91.677  1.00  0.00     0.091 A 
HETATM   14  C9  UNL     1     -19.240  39.717  92.400  1.00  0.00     0.017 A 
HETATM   15  C10 UNL     1     -19.678  38.720  93.242  1.00  0.00     0.003 A 
HETATM   16  C11 UNL     1     -21.025  38.512  93.332  1.00  0.00     0.017 A 
HETATM   17  C12 UNL     1     -21.874  39.297  92.587  1.00  0.00     0.091 A 
ENDBRANCH  10  12
ENDBRANCH   1  10
TORSDOF 4
ENDMDL
MODEL 5
REMARK VINA RESULT: -5.140642444      3.441      4.799
REMARK  4 active torsions:
REMARK  status: ('A' for Active; 'I' for Inactive)
REMARK    1  A    between atoms: C2_2  and  C4_4 
REMARK    2  A    between atoms: C4_4  and  N1_5 
REMARK    3  A    between atoms: C4_4  and  C6_10 
REMARK       I    between atoms: N1_5  and  C5_7 
REMARK    4  A    between atoms: C6_10  and  N3_12 
ROOT
HETATM    1  C4  UNL     1     -21.526  40.667  92.042  1.00  0.00     0.017 C 
ENDROOT
BRANCH   1   2
HETATM    2  C2  UNL     1     -22.409  41.101  90.954  1.00  0.00     0.025 C 
HETATM    3  C1  UNL     1     -21.700  40.857  89.602  1.00  0.00     0.016 C 
HETATM    4  C3  UNL     1     -22.711  42.581  90.951  1.00  0.00     0.016 C 
ENDBRANCH   1   2
BRANCH   1   5
HETATM    5  N1  UNL     1     -20.213  40.151  91.665  1.00  0.00    -0.316 N 
HETATM    6  C5  UNL     1     -18.954  40.368  92.190  1.00  0.00     0.332 C 
HETATM    7  N2  UNL     1     -17.845  39.647  91.553  1.00  0.00    -0.040 NA
HETATM    8  O1  UNL     1     -18.563  41.077  93.127  1.00  0.00    -0.251 OA
ATOM      9  H1  UNL     1     -20.229  39.514  90.868  1.00  0.00     0.169 HD
ENDBRANCH   1   5
BRANCH   1  10
HETATM   10  C6  UNL     1     -22.010  39.925  93.216  1.00  0.00     0.130 C 
HETATM   11  C7  UNL     1     -21.766  38.455  93.280  1.00  0.00     0.039 C 
BRANCH  10  12
HETATM   12  N3  UNL     1     -21.722  40.538  94.498  1.00  0.00    -0.357 N 
HETATM   13  C8  UNL     1     -22.145  41.767  94.826  1.00  0.00     0.091 A 
HETATM   14  C9  UNL     1     -21.861  42.344  96.054  1.00  0.00     0.017 A 
HETATM   15  C10 UNL     1     -21.120  41.657  96.988  1.00  0.00     0.003 A 
HETATM   16  C11 UNL     1     -20.687  40.405  96.658  1.00  0.00     0.017 A 
HETATM   17  C12 UNL     1     -21.004  39.892  95.422  1.00  0.00     0.091 A 
ENDBRANCH  10  12
ENDBRANCH   1  10
TORSDOF 4
ENDMDL
