MODEL 1
REMARK VINA RESULT: -5.309002473      0.000      0.000
REMARK  4 active torsions:
REMARK  status: ('A' for Active; 'I' for Inactive)
REMARK    1  A    between atoms: C2_2  and  C3_3 
REMARK    2  A    between atoms: C3_3  and  N1_4 
REMARK    3  A    between atoms: N1_4  and  C4_6 
REMARK    4  A    between atoms: C4_6  and  C5_10 
ROOT
HETATM    1  C5  UNL     1     -12.362  36.623  96.802  1.00  0.00     0.087 C 
HETATM    2  C6  UNL     1     -13.056  37.350  95.676  1.00  0.00     0.023 C 
HETATM    3  C7  UNL     1     -13.040  38.790  96.205  1.00  0.00    -0.040 C 
HETATM    4  C8  UNL     1     -14.262  39.457  95.577  1.00  0.00     0.015 C 
HETATM    5  C9  UNL     1     -11.791  39.513  95.810  1.00  0.00     0.015 C 
HETATM    6  C10 UNL     1     -13.188  38.692  97.692  1.00  0.00     0.056 C 
HETATM    7  C11 UNL     1     -11.922  38.734  98.502  1.00  0.00     0.280 C 
HETATM    8  N3  UNL     1     -12.187  37.419  99.068  1.00  0.00     0.090 N 
HETATM    9  C12 UNL     1     -12.724  37.433 100.403  1.00  0.00     0.310 C 
HETATM   10  C13 UNL     1     -13.119  37.208  98.003  1.00  0.00     0.240 C 
ENDROOT
BRANCH   1  11
HETATM   11  C4  UNL     1     -12.580  35.179  96.810  1.00  0.00     0.076 C 
HETATM   12  N2  UNL     1     -11.821  34.306  96.257  1.00  0.00    -0.389 N 
ATOM     13  H22 UNL     1     -11.974  33.298  96.262  1.00  0.00     0.157 HD
ATOM     14  H21 UNL     1     -10.992  34.644  95.768  1.00  0.00     0.157 HD
BRANCH  11  15
HETATM   15  N1  UNL     1     -13.745  34.704  97.496  1.00  0.00    -0.380 N 
ATOM     16  H1  UNL     1     -13.969  35.006  98.444  1.00  0.00     0.160 HD
BRANCH  15  17
HETATM   17  C3  UNL     1     -14.583  33.779  96.777  1.00  0.00     0.120 C 
BRANCH  17  18
HETATM   18  C2  UNL     1     -15.571  34.467  95.875  1.00  0.00     0.015 C 
HETATM   19  C1  UNL     1     -16.324  33.491  95.002  1.00  0.00     0.006 C 
ENDBRANCH  17  18
ENDBRANCH  15  17
ENDBRANCH  11  15
ENDBRANCH   1  11
TORSDOF 4
ENDMDL
MODEL 2
REMARK VINA RESULT: -5.297637449      9.134     11.093
REMARK  4 active torsions:
REMARK  status: ('A' for Active; 'I' for Inactive)
REMARK    1  A    between atoms: C2_2  and  C3_3 
REMARK    2  A    between atoms: C3_3  and  N1_4 
REMARK    3  A    between atoms: N1_4  and  C4_6 
REMARK    4  A    between atoms: C4_6  and  C5_10 
ROOT
HETATM    1  C5  UNL     1     -22.093  41.200  93.662  1.00  0.00     0.087 C 
HETATM    2  C6  UNL     1     -22.620  40.411  92.488  1.00  0.00     0.023 C 
HETATM    3  C7  UNL     1     -21.884  41.091  91.325  1.00  0.00    -0.040 C 
HETATM    4  C8  UNL     1     -22.802  40.918  90.118  1.00  0.00     0.015 C 
HETATM    5  C9  UNL     1     -20.554  40.458  91.065  1.00  0.00     0.015 C 
HETATM    6  C10 UNL     1     -21.757  42.536  91.698  1.00  0.00     0.056 C 
HETATM    7  C11 UNL     1     -20.460  42.960  92.331  1.00  0.00     0.280 C 
HETATM    8  N3  UNL     1     -21.142  43.408  93.537  1.00  0.00     0.090 N 
HETATM    9  C12 UNL     1     -21.340  44.831  93.626  1.00  0.00     0.310 C 
HETATM   10  C13 UNL     1     -22.268  42.627  93.125  1.00  0.00     0.240 C 
ENDROOT
BRANCH   1  11
HETATM   11  C4  UNL     1     -22.901  41.086  94.873  1.00  0.00     0.076 C 
HETATM   12  N2  UNL     1     -24.050  41.624  95.058  1.00  0.00    -0.389 N 
ATOM     13  H22 UNL     1     -24.614  41.544  95.904  1.00  0.00     0.157 HD
ATOM     14  H21 UNL     1     -24.438  42.180  94.296  1.00  0.00     0.157 HD
BRANCH  11  15
HETATM   15  N1  UNL     1     -22.356  40.305  95.943  1.00  0.00    -0.380 N 
ATOM     16  H1  UNL     1     -22.953  39.830  96.619  1.00  0.00     0.160 HD
BRANCH  15  17
HETATM   17  C3  UNL     1     -20.919  40.225  96.014  1.00  0.00     0.120 C 
BRANCH  17  18
HETATM   18  C2  UNL     1     -20.318  41.298  96.880  1.00  0.00     0.015 C 
HETATM   19  C1  UNL     1     -21.157  41.582  98.103  1.00  0.00     0.006 C 
ENDBRANCH  17  18
ENDBRANCH  15  17
ENDBRANCH  11  15
ENDBRANCH   1  11
TORSDOF 4
ENDMDL
MODEL 3
REMARK VINA RESULT: -5.290357734      8.831     11.023
REMARK  4 active torsions:
REMARK  status: ('A' for Active; 'I' for Inactive)
REMARK    1  A    between atoms: C2_2  and  C3_3 
REMARK    2  A    between atoms: C3_3  and  N1_4 
REMARK    3  A    between atoms: N1_4  and  C4_6 
REMARK    4  A    between atoms: C4_6  and  C5_10 
ROOT
HETATM    1  C5  UNL     1     -22.025  40.775  93.797  1.00  0.00     0.087 C 
HETATM    2  C6  UNL     1     -21.751  39.329  94.131  1.00  0.00     0.023 C 
HETATM    3  C7  UNL     1     -20.973  38.884  92.885  1.00  0.00    -0.040 C 
HETATM    4  C8  UNL     1     -21.257  37.389  92.751  1.00  0.00     0.015 C 
HETATM    5  C9  UNL     1     -19.504  39.124  93.034  1.00  0.00     0.015 C 
HETATM    6  C10 UNL     1     -21.554  39.645  91.734  1.00  0.00     0.056 C 
HETATM    7  C11 UNL     1     -20.839  40.903  91.324  1.00  0.00     0.280 C 
HETATM    8  N3  UNL     1     -22.022  41.712  91.579  1.00  0.00     0.090 N 
HETATM    9  C12 UNL     1     -22.772  42.075  90.405  1.00  0.00     0.310 C 
HETATM   10  C13 UNL     1     -22.533  40.624  92.356  1.00  0.00     0.240 C 
ENDROOT
BRANCH   1  11
HETATM   11  C4  UNL     1     -23.100  41.379  94.579  1.00  0.00     0.076 C 
HETATM   12  N2  UNL     1     -24.291  41.604  94.162  1.00  0.00    -0.389 N 
ATOM     13  H22 UNL     1     -25.043  42.026  94.708  1.00  0.00     0.157 HD
ATOM     14  H21 UNL     1     -24.513  41.340  93.202  1.00  0.00     0.157 HD
BRANCH  11  15
HETATM   15  N1  UNL     1     -22.789  41.750  95.927  1.00  0.00    -0.380 N 
ATOM     16  H1  UNL     1     -23.431  41.561  96.697  1.00  0.00     0.160 HD
BRANCH  15  17
HETATM   17  C3  UNL     1     -21.523  42.405  96.139  1.00  0.00     0.120 C 
BRANCH  17  18
HETATM   18  C2  UNL     1     -20.553  41.559  96.916  1.00  0.00     0.015 C 
HETATM   19  C1  UNL     1     -19.257  41.343  96.169  1.00  0.00     0.006 C 
ENDBRANCH  17  18
ENDBRANCH  15  17
ENDBRANCH  11  15
ENDBRANCH   1  11
TORSDOF 4
ENDMDL
MODEL 4
REMARK VINA RESULT: -5.192960939      7.566      9.278
REMARK  4 active torsions:
REMARK  status: ('A' for Active; 'I' for Inactive)
REMARK    1  A    between atoms: C2_2  and  C3_3 
REMARK    2  A    between atoms: C3_3  and  N1_4 
REMARK    3  A    between atoms: N1_4  and  C4_6 
REMARK    4  A    between atoms: C4_6  and  C5_10 
ROOT
HETATM    1  C5  UNL     1     -20.384  39.882  94.446  1.00  0.00     0.087 C 
HETATM    2  C6  UNL     1     -19.985  38.933  93.342  1.00  0.00     0.023 C 
HETATM    3  C7  UNL     1     -18.531  39.359  93.102  1.00  0.00    -0.040 C 
HETATM    4  C8  UNL     1     -18.257  39.031  91.636  1.00  0.00     0.015 C 
HETATM    5  C9  UNL     1     -17.582  38.616  93.989  1.00  0.00     0.015 C 
HETATM    6  C10 UNL     1     -18.483  40.837  93.339  1.00  0.00     0.056 C 
HETATM    7  C11 UNL     1     -18.041  41.290  94.703  1.00  0.00     0.280 C 
HETATM    8  N3  UNL     1     -19.304  41.978  94.933  1.00  0.00     0.090 N 
HETATM    9  C12 UNL     1     -19.260  43.403  94.740  1.00  0.00     0.310 C 
HETATM   10  C13 UNL     1     -19.859  41.202  93.866  1.00  0.00     0.240 C 
ENDROOT
BRANCH   1  11
HETATM   11  C4  UNL     1     -21.827  40.025  94.624  1.00  0.00     0.076 C 
HETATM   12  N2  UNL     1     -22.413  40.400  95.700  1.00  0.00    -0.389 N 
ATOM     13  H22 UNL     1     -23.421  40.500  95.824  1.00  0.00     0.157 HD
ATOM     14  H21 UNL     1     -21.827  40.618  96.505  1.00  0.00     0.157 HD
BRANCH  11  15
HETATM   15  N1  UNL     1     -22.651  39.718  93.493  1.00  0.00    -0.380 N 
ATOM     16  H1  UNL     1     -22.692  38.779  93.098  1.00  0.00     0.160 HD
BRANCH  15  17
HETATM   17  C3  UNL     1     -23.418  40.806  92.942  1.00  0.00     0.120 C 
BRANCH  17  18
HETATM   18  C2  UNL     1     -22.722  41.489  91.797  1.00  0.00     0.015 C 
HETATM   19  C1  UNL     1     -22.160  40.503  90.800  1.00  0.00     0.006 C 
ENDBRANCH  17  18
ENDBRANCH  15  17
ENDBRANCH  11  15
ENDBRANCH   1  11
TORSDOF 4
ENDMDL
MODEL 5
REMARK VINA RESULT: -5.189878240      5.908      7.858
REMARK  4 active torsions:
REMARK  status: ('A' for Active; 'I' for Inactive)
REMARK    1  A    between atoms: C2_2  and  C3_3 
REMARK    2  A    between atoms: C3_3  and  N1_4 
REMARK    3  A    between atoms: N1_4  and  C4_6 
REMARK    4  A    between atoms: C4_6  and  C5_10 
ROOT
HETATM    1  C5  UNL     1     -17.969  40.833  92.502  1.00  0.00     0.087 C 
HETATM    2  C6  UNL     1     -18.585  39.529  92.060  1.00  0.00     0.023 C 
HETATM    3  C7  UNL     1     -19.893  39.537  92.862  1.00  0.00    -0.040 C 
HETATM    4  C8  UNL     1     -20.237  38.065  93.076  1.00  0.00     0.015 C 
HETATM    5  C9  UNL     1     -20.994  40.228  92.121  1.00  0.00     0.015 C 
HETATM    6  C10 UNL     1     -19.582  40.209  94.164  1.00  0.00     0.056 C 
HETATM    7  C11 UNL     1     -19.900  41.675  94.262  1.00  0.00     0.280 C 
HETATM    8  N3  UNL     1     -18.509  42.006  94.535  1.00  0.00     0.090 N 
HETATM    9  C12 UNL     1     -18.206  42.253  95.920  1.00  0.00     0.310 C 
HETATM   10  C13 UNL     1     -18.158  40.716  94.021  1.00  0.00     0.240 C 
ENDROOT
BRANCH   1  11
HETATM   11  C4  UNL     1     -16.534  40.937  92.248  1.00  0.00     0.076 C 
HETATM   12  N2  UNL     1     -15.918  41.994  91.863  1.00  0.00    -0.389 N 
ATOM     13  H22 UNL     1     -14.916  42.066  91.685  1.00  0.00     0.157 HD
ATOM     14  H21 UNL     1     -16.473  42.837  91.721  1.00  0.00     0.157 HD
BRANCH  11  15
HETATM   15  N1  UNL     1     -15.755  39.752  92.447  1.00  0.00    -0.380 N 
ATOM     16  H1  UNL     1     -16.022  38.858  92.035  1.00  0.00     0.160 HD
BRANCH  15  17
HETATM   17  C3  UNL     1     -14.573  39.888  93.260  1.00  0.00     0.120 C 
BRANCH  17  18
HETATM   18  C2  UNL     1     -14.712  39.230  94.605  1.00  0.00     0.015 C 
HETATM   19  C1  UNL     1     -15.700  38.088  94.583  1.00  0.00     0.006 C 
ENDBRANCH  17  18
ENDBRANCH  15  17
ENDBRANCH  11  15
ENDBRANCH   1  11
TORSDOF 4
ENDMDL
