MODEL 1
REMARK VINA RESULT: -5.090769140      0.000      0.000
REMARK  6 active torsions:
REMARK  status: ('A' for Active; 'I' for Inactive)
REMARK    1  A    between atoms: C3_5  and  C4_6 
REMARK    2  A    between atoms: C4_6  and  C5_7 
REMARK    3  A    between atoms: C7_10  and  N2_11 
REMARK    4  A    between atoms: N2_11  and  C8_13 
REMARK    5  A    between atoms: C8_13  and  C10_15 
REMARK    6  A    between atoms: C10_15  and  C11_16 
ROOT
HETATM    1  C1  UNL     1     -10.417  37.502  96.504  1.00  0.00     0.046 C 
HETATM    2  C2  UNL     1     -11.444  38.291  96.163  1.00  0.00     0.057 A 
HETATM    3  N1  UNL     1     -11.327  39.420  95.525  1.00  0.00    -0.349 N 
ATOM      4  H1  UNL     1     -10.406  39.761  95.247  1.00  0.00     0.166 HD
HETATM    5  C3  UNL     1     -12.418  40.122  95.238  1.00  0.00     0.072 A 
HETATM    6  S1  UNL     1     -13.670  39.170  95.887  1.00  0.00    -0.053 SA
HETATM    7  C7  UNL     1     -12.718  37.895  96.504  1.00  0.00     0.098 A 
ENDROOT
BRANCH   7   8
HETATM    8  N2  UNL     1     -13.087  36.820  97.137  1.00  0.00    -0.378 N 
ATOM      9  H2  UNL     1     -13.167  36.841  98.154  1.00  0.00     0.160 HD
BRANCH   8  10
HETATM   10  C8  UNL     1     -13.385  35.592  96.428  1.00  0.00     0.078 C 
HETATM   11  C9  UNL     1     -12.603  34.448  97.062  1.00  0.00     0.032 C 
BRANCH  10  12
HETATM   12  C10 UNL     1     -14.860  35.325  96.638  1.00  0.00     0.024 C 
BRANCH  12  13
HETATM   13  C11 UNL     1     -15.134  33.842  96.400  1.00  0.00    -0.003 C 
HETATM   14  C12 UNL     1     -16.042  33.638  95.214  1.00  0.00     0.005 C 
ENDBRANCH  12  13
ENDBRANCH  10  12
ENDBRANCH   8  10
ENDBRANCH   7   8
BRANCH   5  15
HETATM   15  C4  UNL     1     -12.518  41.293  94.598  1.00  0.00     0.010 C 
BRANCH  15  16
HETATM   16  C5  UNL     1     -11.754  41.613  93.392  1.00  0.00     0.025 C 
HETATM   17  C6  UNL     1     -11.626  43.124  93.243  1.00  0.00     0.009 C 
ENDBRANCH  15  16
ENDBRANCH   5  15
TORSDOF 6
ENDMDL
MODEL 2
REMARK VINA RESULT: -5.020055854      0.944      6.422
REMARK  6 active torsions:
REMARK  status: ('A' for Active; 'I' for Inactive)
REMARK    1  A    between atoms: C3_5  and  C4_6 
REMARK    2  A    between atoms: C4_6  and  C5_7 
REMARK    3  A    between atoms: C7_10  and  N2_11 
REMARK    4  A    between atoms: N2_11  and  C8_13 
REMARK    5  A    between atoms: C8_13  and  C10_15 
REMARK    6  A    between atoms: C10_15  and  C11_16 
ROOT
HETATM    1  C1  UNL     1     -10.260  37.076  96.280  1.00  0.00     0.046 C 
HETATM    2  C2  UNL     1     -11.589  37.235  96.279  1.00  0.00     0.057 A 
HETATM    3  N1  UNL     1     -12.444  36.306  96.602  1.00  0.00    -0.349 N 
ATOM      4  H1  UNL     1     -12.118  35.381  96.881  1.00  0.00     0.166 HD
HETATM    5  C3  UNL     1     -13.744  36.577  96.565  1.00  0.00     0.072 A 
HETATM    6  S1  UNL     1     -13.785  38.200  96.057  1.00  0.00    -0.053 SA
HETATM    7  C7  UNL     1     -12.105  38.458  95.915  1.00  0.00     0.098 A 
ENDROOT
BRANCH   7   8
HETATM    8  N2  UNL     1     -11.461  39.530  95.555  1.00  0.00    -0.378 N 
ATOM      9  H2  UNL     1     -10.473  39.461  95.309  1.00  0.00     0.160 HD
BRANCH   8  10
HETATM   10  C8  UNL     1     -12.116  40.821  95.497  1.00  0.00     0.078 C 
HETATM   11  C9  UNL     1     -11.356  41.805  96.377  1.00  0.00     0.032 C 
BRANCH  10  12
HETATM   12  C10 UNL     1     -12.007  41.293  94.063  1.00  0.00     0.024 C 
BRANCH  12  13
HETATM   13  C11 UNL     1     -11.148  42.553  94.020  1.00  0.00    -0.003 C 
HETATM   14  C12 UNL     1     -11.704  43.559  93.045  1.00  0.00     0.005 C 
ENDBRANCH  12  13
ENDBRANCH  10  12
ENDBRANCH   8  10
ENDBRANCH   7   8
BRANCH   5  15
HETATM   15  C4  UNL     1     -14.776  35.776  96.854  1.00  0.00     0.010 C 
BRANCH  15  16
HETATM   16  C5  UNL     1     -14.763  34.334  96.609  1.00  0.00     0.025 C 
HETATM   17  C6  UNL     1     -15.754  33.984  95.506  1.00  0.00     0.009 C 
ENDBRANCH  15  16
ENDBRANCH   5  15
TORSDOF 6
ENDMDL
MODEL 3
REMARK VINA RESULT: -4.984280345      1.459      1.904
REMARK  6 active torsions:
REMARK  status: ('A' for Active; 'I' for Inactive)
REMARK    1  A    between atoms: C3_5  and  C4_6 
REMARK    2  A    between atoms: C4_6  and  C5_7 
REMARK    3  A    between atoms: C7_10  and  N2_11 
REMARK    4  A    between atoms: N2_11  and  C8_13 
REMARK    5  A    between atoms: C8_13  and  C10_15 
REMARK    6  A    between atoms: C10_15  and  C11_16 
ROOT
HETATM    1  C1  UNL     1     -15.518  38.214  94.651  1.00  0.00     0.046 C 
HETATM    2  C2  UNL     1     -14.359  38.724  95.085  1.00  0.00     0.057 A 
HETATM    3  N1  UNL     1     -13.730  39.713  94.517  1.00  0.00    -0.349 N 
ATOM      4  H1  UNL     1     -14.113  40.156  93.682  1.00  0.00     0.166 HD
HETATM    5  C3  UNL     1     -12.583  40.139  95.037  1.00  0.00     0.072 A 
HETATM    6  S1  UNL     1     -12.366  39.118  96.380  1.00  0.00    -0.053 SA
HETATM    7  C7  UNL     1     -13.780  38.179  96.209  1.00  0.00     0.098 A 
ENDROOT
BRANCH   7   8
HETATM    8  N2  UNL     1     -14.213  37.196  96.943  1.00  0.00    -0.378 N 
ATOM      9  H2  UNL     1     -14.813  37.397  97.744  1.00  0.00     0.160 HD
BRANCH   8  10
HETATM   10  C8  UNL     1     -13.862  35.821  96.648  1.00  0.00     0.078 C 
HETATM   11  C9  UNL     1     -12.999  35.275  97.778  1.00  0.00     0.032 C 
BRANCH  10  12
HETATM   12  C10 UNL     1     -15.159  35.042  96.629  1.00  0.00     0.024 C 
BRANCH  12  13
HETATM   13  C11 UNL     1     -14.965  33.776  95.798  1.00  0.00    -0.003 C 
HETATM   14  C12 UNL     1     -16.186  33.477  94.968  1.00  0.00     0.005 C 
ENDBRANCH  12  13
ENDBRANCH  10  12
ENDBRANCH   8  10
ENDBRANCH   7   8
BRANCH   5  15
HETATM   15  C4  UNL     1     -11.786  41.128  94.613  1.00  0.00     0.010 C 
BRANCH  15  16
HETATM   16  C5  UNL     1     -11.752  41.589  93.226  1.00  0.00     0.025 C 
HETATM   17  C6  UNL     1     -11.740  43.112  93.184  1.00  0.00     0.009 C 
ENDBRANCH  15  16
ENDBRANCH   5  15
TORSDOF 6
ENDMDL
MODEL 4
REMARK VINA RESULT: -4.903993363     10.231     11.113
REMARK  6 active torsions:
REMARK  status: ('A' for Active; 'I' for Inactive)
REMARK    1  A    between atoms: C3_5  and  C4_6 
REMARK    2  A    between atoms: C4_6  and  C5_7 
REMARK    3  A    between atoms: C7_10  and  N2_11 
REMARK    4  A    between atoms: N2_11  and  C8_13 
REMARK    5  A    between atoms: C8_13  and  C10_15 
REMARK    6  A    between atoms: C10_15  and  C11_16 
ROOT
HETATM    1  C1  UNL     1     -20.860  40.345  96.574  1.00  0.00     0.046 C 
HETATM    2  C2  UNL     1     -21.744  41.233  96.100  1.00  0.00     0.057 A 
HETATM    3  N1  UNL     1     -21.979  42.397  96.636  1.00  0.00    -0.349 N 
ATOM      4  H1  UNL     1     -21.476  42.690  97.473  1.00  0.00     0.166 HD
HETATM    5  C3  UNL     1     -22.880  43.199  96.079  1.00  0.00     0.072 A 
HETATM    6  S1  UNL     1     -23.430  42.295  94.747  1.00  0.00    -0.053 SA
HETATM    7  C7  UNL     1     -22.461  40.909  94.971  1.00  0.00     0.098 A 
ENDROOT
BRANCH   7   8
HETATM    8  N2  UNL     1     -22.403  39.818  94.264  1.00  0.00    -0.378 N 
ATOM      9  H2  UNL     1     -22.967  39.014  94.541  1.00  0.00     0.160 HD
BRANCH   8  10
HETATM   10  C8  UNL     1     -21.556  39.720  93.093  1.00  0.00     0.078 C 
HETATM   11  C9  UNL     1     -21.122  38.271  92.912  1.00  0.00     0.032 C 
BRANCH  10  12
HETATM   12  C10 UNL     1     -22.416  40.105  91.909  1.00  0.00     0.024 C 
BRANCH  12  13
HETATM   13  C11 UNL     1     -21.543  40.798  90.866  1.00  0.00    -0.003 C 
HETATM   14  C12 UNL     1     -22.203  40.793  89.512  1.00  0.00     0.005 C 
ENDBRANCH  12  13
ENDBRANCH  10  12
ENDBRANCH   8  10
ENDBRANCH   7   8
BRANCH   5  15
HETATM   15  C4  UNL     1     -23.268  44.421  96.465  1.00  0.00     0.010 C 
BRANCH  15  16
HETATM   16  C5  UNL     1     -23.931  44.683  97.741  1.00  0.00     0.025 C 
HETATM   17  C6  UNL     1     -25.443  44.589  97.572  1.00  0.00     0.009 C 
ENDBRANCH  15  16
ENDBRANCH   5  15
TORSDOF 6
ENDMDL
MODEL 5
REMARK VINA RESULT: -4.887907110      9.363     10.573
REMARK  6 active torsions:
REMARK  status: ('A' for Active; 'I' for Inactive)
REMARK    1  A    between atoms: C3_5  and  C4_6 
REMARK    2  A    between atoms: C4_6  and  C5_7 
REMARK    3  A    between atoms: C7_10  and  N2_11 
REMARK    4  A    between atoms: N2_11  and  C8_13 
REMARK    5  A    between atoms: C8_13  and  C10_15 
REMARK    6  A    between atoms: C10_15  and  C11_16 
ROOT
HETATM    1  C1  UNL     1     -20.951  41.192  97.374  1.00  0.00     0.046 C 
HETATM    2  C2  UNL     1     -20.908  40.534  96.209  1.00  0.00     0.057 A 
HETATM    3  N1  UNL     1     -19.878  39.862  95.779  1.00  0.00    -0.349 N 
ATOM      4  H1  UNL     1     -19.027  39.809  96.339  1.00  0.00     0.166 HD
HETATM    5  C3  UNL     1     -19.948  39.245  94.604  1.00  0.00     0.072 A 
HETATM    6  S1  UNL     1     -21.519  39.616  94.067  1.00  0.00    -0.053 SA
HETATM    7  C7  UNL     1     -22.020  40.558  95.399  1.00  0.00     0.098 A 
ENDROOT
BRANCH   7   8
HETATM    8  N2  UNL     1     -23.158  41.155  95.608  1.00  0.00    -0.378 N 
ATOM      9  H2  UNL     1     -23.777  40.807  96.340  1.00  0.00     0.160 HD
BRANCH   8  10
HETATM   10  C8  UNL     1     -23.564  42.302  94.822  1.00  0.00     0.078 C 
HETATM   11  C9  UNL     1     -25.086  42.376  94.799  1.00  0.00     0.032 C 
BRANCH  10  12
HETATM   12  C10 UNL     1     -23.046  43.524  95.548  1.00  0.00     0.024 C 
BRANCH  12  13
HETATM   13  C11 UNL     1     -24.205  44.192  96.284  1.00  0.00    -0.003 C 
HETATM   14  C12 UNL     1     -23.803  44.602  97.677  1.00  0.00     0.005 C 
ENDBRANCH  12  13
ENDBRANCH  10  12
ENDBRANCH   8  10
ENDBRANCH   7   8
BRANCH   5  15
HETATM   15  C4  UNL     1     -19.015  38.511  93.985  1.00  0.00     0.010 C 
BRANCH  15  16
HETATM   16  C5  UNL     1     -17.918  39.096  93.216  1.00  0.00     0.025 C 
HETATM   17  C6  UNL     1     -18.332  39.258  91.759  1.00  0.00     0.009 C 
ENDBRANCH  15  16
ENDBRANCH   5  15
TORSDOF 6
ENDMDL
