MODEL 1
REMARK VINA RESULT: -4.855004820      0.000      0.000
REMARK  5 active torsions:
REMARK  status: ('A' for Active; 'I' for Inactive)
REMARK    1  A    between atoms: C2_2  and  C3_3 
REMARK    2  A    between atoms: C3_3  and  C4_4 
REMARK       I    between atoms: C4_4  and  N1_6 
REMARK    3  A    between atoms: N1_6  and  C5_8 
REMARK    4  A    between atoms: C5_8  and  N2_10 
REMARK    5  A    between atoms: N2_10  and  C6_12 
ROOT
HETATM    1  C4  UNL     1     -15.287  38.573  94.917  1.00  0.00     0.232 C 
HETATM    2  O1  UNL     1     -16.225  37.860  94.558  1.00  0.00    -0.272 OA
HETATM    3  N1  UNL     1     -14.266  38.231  95.807  1.00  0.00    -0.303 N 
ATOM      4  H1  UNL     1     -13.530  38.922  95.948  1.00  0.00     0.171 HD
ENDROOT
BRANCH   3   5
HETATM    5  C5  UNL     1     -14.148  37.003  96.545  1.00  0.00     0.174 C 
HETATM    6  S1  UNL     1     -12.849  36.742  97.480  1.00  0.00    -0.041 SA
BRANCH   5   7
HETATM    7  N2  UNL     1     -15.190  36.009  96.558  1.00  0.00    -0.363 N 
ATOM      8  H2  UNL     1     -16.103  36.291  96.915  1.00  0.00     0.162 HD
BRANCH   7   9
HETATM    9  C6  UNL     1     -15.051  34.662  96.111  1.00  0.00     0.075 C 
HETATM   10  C7  UNL     1     -16.257  34.323  95.249  1.00  0.00     0.032 C 
HETATM   11  C8  UNL     1     -14.784  33.590  97.099  1.00  0.00     0.032 C 
ENDBRANCH   7   9
ENDBRANCH   5   7
ENDBRANCH   3   5
BRANCH   1  12
HETATM   12  C3  UNL     1     -15.274  39.959  94.306  1.00  0.00     0.041 A 
HETATM   13  C9  UNL     1     -16.001  40.041  92.967  1.00  0.00     0.020 A 
HETATM   14  C10 UNL     1     -14.462  40.021  92.992  1.00  0.00     0.020 A 
BRANCH  12  15
HETATM   15  C2  UNL     1     -15.306  41.181  95.108  1.00  0.00     0.014 C 
HETATM   16  C1  UNL     1     -16.496  41.856  95.579  1.00  0.00     0.006 C 
ENDBRANCH  12  15
ENDBRANCH   1  12
TORSDOF 5
ENDMDL
MODEL 2
REMARK VINA RESULT: -4.654474851      6.845      8.807
REMARK  5 active torsions:
REMARK  status: ('A' for Active; 'I' for Inactive)
REMARK    1  A    between atoms: C2_2  and  C3_3 
REMARK    2  A    between atoms: C3_3  and  C4_4 
REMARK       I    between atoms: C4_4  and  N1_6 
REMARK    3  A    between atoms: N1_6  and  C5_8 
REMARK    4  A    between atoms: C5_8  and  N2_10 
REMARK    5  A    between atoms: N2_10  and  C6_12 
ROOT
HETATM    1  C4  UNL     1     -20.253  40.395  92.564  1.00  0.00     0.232 C 
HETATM    2  O1  UNL     1     -19.467  40.053  91.680  1.00  0.00    -0.272 OA
HETATM    3  N1  UNL     1     -20.907  41.625  92.675  1.00  0.00    -0.303 N 
ATOM      4  H1  UNL     1     -21.574  41.722  93.439  1.00  0.00     0.171 HD
ENDROOT
BRANCH   3   5
HETATM    5  C5  UNL     1     -20.733  42.768  91.821  1.00  0.00     0.174 C 
HETATM    6  S1  UNL     1     -20.324  44.202  92.461  1.00  0.00    -0.041 SA
BRANCH   5   7
HETATM    7  N2  UNL     1     -20.825  42.679  90.387  1.00  0.00    -0.363 N 
ATOM      8  H2  UNL     1     -19.993  42.919  89.848  1.00  0.00     0.162 HD
BRANCH   7   9
HETATM    9  C6  UNL     1     -21.984  42.282  89.658  1.00  0.00     0.075 C 
HETATM   10  C7  UNL     1     -23.188  42.986  90.266  1.00  0.00     0.032 C 
HETATM   11  C8  UNL     1     -22.259  40.840  89.451  1.00  0.00     0.032 C 
ENDBRANCH   7   9
ENDBRANCH   5   7
ENDBRANCH   3   5
BRANCH   1  12
HETATM   12  C3  UNL     1     -20.512  39.345  93.624  1.00  0.00     0.041 A 
HETATM   13  C9  UNL     1     -20.762  37.952  93.052  1.00  0.00     0.020 A 
HETATM   14  C10 UNL     1     -21.951  38.784  93.563  1.00  0.00     0.020 A 
BRANCH  12  15
HETATM   15  C2  UNL     1     -19.881  39.372  94.942  1.00  0.00     0.014 C 
HETATM   16  C1  UNL     1     -19.870  40.494  95.854  1.00  0.00     0.006 C 
ENDBRANCH  12  15
ENDBRANCH   1  12
TORSDOF 5
ENDMDL
MODEL 3
REMARK VINA RESULT: -4.629464231      0.717      1.690
REMARK  5 active torsions:
REMARK  status: ('A' for Active; 'I' for Inactive)
REMARK    1  A    between atoms: C2_2  and  C3_3 
REMARK    2  A    between atoms: C3_3  and  C4_4 
REMARK       I    between atoms: C4_4  and  N1_6 
REMARK    3  A    between atoms: N1_6  and  C5_8 
REMARK    4  A    between atoms: C5_8  and  N2_10 
REMARK    5  A    between atoms: N2_10  and  C6_12 
ROOT
HETATM    1  C4  UNL     1     -14.949  38.578  95.025  1.00  0.00     0.232 C 
HETATM    2  O1  UNL     1     -15.766  37.856  94.453  1.00  0.00    -0.272 OA
HETATM    3  N1  UNL     1     -14.105  38.218  96.079  1.00  0.00    -0.303 N 
ATOM      4  H1  UNL     1     -13.443  38.925  96.398  1.00  0.00     0.171 HD
ENDROOT
BRANCH   3   5
HETATM    5  C5  UNL     1     -14.076  36.952  96.760  1.00  0.00     0.174 C 
HETATM    6  S1  UNL     1     -12.855  36.604  97.769  1.00  0.00    -0.041 SA
BRANCH   5   7
HETATM    7  N2  UNL     1     -15.146  35.994  96.650  1.00  0.00    -0.363 N 
ATOM      8  H2  UNL     1     -16.074  36.292  96.948  1.00  0.00     0.162 HD
BRANCH   7   9
HETATM    9  C6  UNL     1     -15.013  34.663  96.158  1.00  0.00     0.075 C 
HETATM   10  C7  UNL     1     -16.209  34.366  95.268  1.00  0.00     0.032 C 
HETATM   11  C8  UNL     1     -14.769  33.554  97.111  1.00  0.00     0.032 C 
ENDBRANCH   7   9
ENDBRANCH   5   7
ENDBRANCH   3   5
BRANCH   1  12
HETATM   12  C3  UNL     1     -14.881  39.998  94.503  1.00  0.00     0.041 A 
HETATM   13  C9  UNL     1     -14.995  41.055  95.600  1.00  0.00     0.020 A 
HETATM   14  C10 UNL     1     -16.209  40.765  94.698  1.00  0.00     0.020 A 
BRANCH  12  15
HETATM   15  C2  UNL     1     -14.071  40.384  93.349  1.00  0.00     0.014 C 
HETATM   16  C1  UNL     1     -12.868  41.186  93.387  1.00  0.00     0.006 C 
ENDBRANCH  12  15
ENDBRANCH   1  12
TORSDOF 5
ENDMDL
MODEL 4
REMARK VINA RESULT: -4.575335900      6.681      8.615
REMARK  5 active torsions:
REMARK  status: ('A' for Active; 'I' for Inactive)
REMARK    1  A    between atoms: C2_2  and  C3_3 
REMARK    2  A    between atoms: C3_3  and  C4_4 
REMARK       I    between atoms: C4_4  and  N1_6 
REMARK    3  A    between atoms: N1_6  and  C5_8 
REMARK    4  A    between atoms: C5_8  and  N2_10 
REMARK    5  A    between atoms: N2_10  and  C6_12 
ROOT
HETATM    1  C4  UNL     1     -19.893  40.836  93.356  1.00  0.00     0.232 C 
HETATM    2  O1  UNL     1     -18.890  41.312  92.823  1.00  0.00    -0.272 OA
HETATM    3  N1  UNL     1     -21.225  41.121  93.044  1.00  0.00    -0.303 N 
ATOM      4  H1  UNL     1     -21.937  40.590  93.545  1.00  0.00     0.171 HD
ENDROOT
BRANCH   3   5
HETATM    5  C5  UNL     1     -21.693  42.088  92.089  1.00  0.00     0.174 C 
HETATM    6  S1  UNL     1     -22.930  43.067  92.468  1.00  0.00    -0.041 SA
BRANCH   5   7
HETATM    7  N2  UNL     1     -21.048  42.288  90.817  1.00  0.00    -0.363 N 
ATOM      8  H2  UNL     1     -20.192  42.841  90.807  1.00  0.00     0.162 HD
BRANCH   7   9
HETATM    9  C6  UNL     1     -21.510  41.775  89.569  1.00  0.00     0.075 C 
HETATM   10  C7  UNL     1     -21.877  42.954  88.681  1.00  0.00     0.032 C 
HETATM   11  C8  UNL     1     -22.573  40.744  89.552  1.00  0.00     0.032 C 
ENDBRANCH   7   9
ENDBRANCH   5   7
ENDBRANCH   3   5
BRANCH   1  12
HETATM   12  C3  UNL     1     -19.611  39.840  94.463  1.00  0.00     0.041 A 
HETATM   13  C9  UNL     1     -18.224  39.209  94.374  1.00  0.00     0.020 A 
HETATM   14  C10 UNL     1     -19.455  38.396  93.935  1.00  0.00     0.020 A 
BRANCH  12  15
HETATM   15  C2  UNL     1     -20.144  39.983  95.816  1.00  0.00     0.014 C 
HETATM   16  C1  UNL     1     -20.075  41.174  96.634  1.00  0.00     0.006 C 
ENDBRANCH  12  15
ENDBRANCH   1  12
TORSDOF 5
ENDMDL
MODEL 5
REMARK VINA RESULT: -4.562877988      2.411      5.713
REMARK  5 active torsions:
REMARK  status: ('A' for Active; 'I' for Inactive)
REMARK    1  A    between atoms: C2_2  and  C3_3 
REMARK    2  A    between atoms: C3_3  and  C4_4 
REMARK       I    between atoms: C4_4  and  N1_6 
REMARK    3  A    between atoms: N1_6  and  C5_8 
REMARK    4  A    between atoms: C5_8  and  N2_10 
REMARK    5  A    between atoms: N2_10  and  C6_12 
ROOT
HETATM    1  C4  UNL     1     -14.677  36.381  96.332  1.00  0.00     0.232 C 
HETATM    2  O1  UNL     1     -14.394  37.213  97.195  1.00  0.00    -0.272 OA
HETATM    3  N1  UNL     1     -15.312  36.622  95.111  1.00  0.00    -0.303 N 
ATOM      4  H1  UNL     1     -15.416  35.825  94.484  1.00  0.00     0.171 HD
ENDROOT
BRANCH   3   5
HETATM    5  C5  UNL     1     -15.832  37.880  94.649  1.00  0.00     0.174 C 
HETATM    6  S1  UNL     1     -14.815  39.090  94.280  1.00  0.00    -0.041 SA
BRANCH   5   7
HETATM    7  N2  UNL     1     -17.236  38.093  94.414  1.00  0.00    -0.363 N 
ATOM      8  H2  UNL     1     -17.880  37.373  94.740  1.00  0.00     0.162 HD
BRANCH   7   9
HETATM    9  C6  UNL     1     -17.801  39.228  93.762  1.00  0.00     0.075 C 
HETATM   10  C7  UNL     1     -18.880  39.804  94.666  1.00  0.00     0.032 C 
HETATM   11  C8  UNL     1     -18.285  39.103  92.367  1.00  0.00     0.032 C 
ENDBRANCH   7   9
ENDBRANCH   5   7
ENDBRANCH   3   5
BRANCH   1  12
HETATM   12  C3  UNL     1     -14.281  34.958  96.668  1.00  0.00     0.041 A 
HETATM   13  C9  UNL     1     -13.310  34.858  97.841  1.00  0.00     0.020 A 
HETATM   14  C10 UNL     1     -12.783  34.682  96.406  1.00  0.00     0.020 A 
BRANCH  12  15
HETATM   15  C2  UNL     1     -15.188  33.822  96.512  1.00  0.00     0.014 C 
HETATM   16  C1  UNL     1     -15.956  33.505  95.328  1.00  0.00     0.006 C 
ENDBRANCH  12  15
ENDBRANCH   1  12
TORSDOF 5
ENDMDL
