MODEL 1
REMARK VINA RESULT: -8.801074262      0.000      0.000
REMARK  13 active torsions:
REMARK  status: ('A' for Active; 'I' for Inactive)
REMARK    1  A    between atoms: S1_2  and  C2_3 
REMARK    2  A    between atoms: C2_3  and  C3_4 
REMARK    3  A    between atoms: C3_4  and  C4_5 
REMARK    4  A    between atoms: C4_5  and  N1_6 
REMARK    5  A    between atoms: C4_5  and  C5_10 
REMARK    6  A    between atoms: C5_10  and  O1_11 
REMARK    7  A    between atoms: C5_10  and  C24_39 
REMARK    8  A    between atoms: O1_11  and  C6_12 
REMARK       I    between atoms: C6_12  and  N2_14 
REMARK    9  A    between atoms: N2_14  and  C7_15 
REMARK   10  A    between atoms: C7_15  and  C10_19 
REMARK       I    between atoms: C10_19  and  N4_21 
REMARK   11  A    between atoms: N4_21  and  C11_23 
REMARK   12  A    between atoms: C11_23  and  C12_24 
REMARK       I    between atoms: C12_24  and  N5_26 
REMARK   13  A    between atoms: N6_29  and  C15_30 
ROOT
HETATM    1  C7  UNL     1      11.472  62.405  16.900  1.00  0.00     0.262 C 
HETATM    2  C8  UNL     1      10.897  61.490  15.779  1.00  0.00     0.082 C 
HETATM    3  C9  UNL     1      12.579  61.632  17.749  1.00  0.00     0.115 C 
HETATM    4  N3  UNL     1      13.378  61.084  18.368  1.00  0.00    -0.193 NA
ENDROOT
BRANCH   1   5
HETATM    5  N2  UNL     1      10.465  62.597  17.810  1.00  0.00    -0.353 NA
HETATM    6  C6  UNL     1       9.431  62.800  18.740  1.00  0.00     0.437 C 
HETATM    7  O2  UNL     1       8.657  63.468  19.207  1.00  0.00    -0.221 OA
BRANCH   6   8
HETATM    8  O1  UNL     1       9.512  61.263  19.174  1.00  0.00    -0.284 OA
BRANCH   8   9
HETATM    9  C5  UNL     1       8.415  60.803  19.645  1.00  0.00     0.172 C 
BRANCH   9  10
HETATM   10  C4  UNL     1       7.639  59.688  18.736  1.00  0.00     0.214 C 
BRANCH  10  11
HETATM   11  C3  UNL     1       8.492  59.280  17.638  1.00  0.00     0.045 C 
BRANCH  11  12
HETATM   12  C2  UNL     1       7.753  58.241  16.791  1.00  0.00     0.075 C 
BRANCH  12  13
HETATM   13  S1  UNL     1       8.801  58.347  15.229  1.00  0.00    -0.173 SA
HETATM   14  C1  UNL     1       7.857  57.624  13.831  1.00  0.00     0.089 C 
ENDBRANCH  12  13
ENDBRANCH  11  12
ENDBRANCH  10  11
BRANCH  10  15
HETATM   15  N1  UNL     1       6.509  60.563  18.265  1.00  0.00    -0.072 N 
ATOM     16  H13 UNL     1       6.586  60.767  17.269  1.00  0.00     0.274 HD
ATOM     17  H12 UNL     1       5.624  60.056  18.255  1.00  0.00     0.274 HD
ATOM     18  H11 UNL     1       6.441  61.419  18.816  1.00  0.00     0.274 HD
ENDBRANCH  10  15
ENDBRANCH   9  10
BRANCH   9  19
HETATM   19  C24 UNL     1       8.345  60.552  21.123  1.00  0.00    -0.022 C 
HETATM   20  C25 UNL     1       9.278  61.386  22.006  1.00  0.00     0.017 C 
HETATM   21  C26 UNL     1       7.067  61.620  21.436  1.00  0.00     0.017 C 
HETATM   22  C27 UNL     1       7.817  59.354  21.715  1.00  0.00     0.017 C 
ENDBRANCH   9  19
ENDBRANCH   8   9
ENDBRANCH   6   8
ENDBRANCH   1   5
BRANCH   1  23
HETATM   23  C10 UNL     1      12.313  63.376  16.237  1.00  0.00     0.275 C 
HETATM   24  O3  UNL     1      11.891  64.545  16.103  1.00  0.00    -0.268 OA
HETATM   25  N4  UNL     1      13.600  63.003  15.809  1.00  0.00    -0.339 N 
ATOM     26  H4  UNL     1      13.846  62.018  15.902  1.00  0.00     0.163 HD
BRANCH  25  27
HETATM   27  C11 UNL     1      14.581  63.849  15.265  1.00  0.00     0.114 C 
HETATM   28  C20 UNL     1      14.005  64.181  13.806  1.00  0.00     0.041 C 
HETATM   29  C21 UNL     1      15.116  63.878  12.876  1.00  0.00     0.003 C 
HETATM   30  C22 UNL     1      16.259  63.231  13.604  1.00  0.00     0.003 C 
HETATM   31  C23 UNL     1      15.812  62.964  14.988  1.00  0.00     0.041 C 
BRANCH  27  32
HETATM   32  C12 UNL     1      14.795  65.169  15.800  1.00  0.00     0.248 C 
HETATM   33  O4  UNL     1      14.687  66.104  15.206  1.00  0.00    -0.271 OA
HETATM   34  N5  UNL     1      15.175  65.276  17.213  1.00  0.00    -0.347 N 
HETATM   35  C13 UNL     1      16.312  66.322  17.212  1.00  0.00     0.156 C 
HETATM   36  C19 UNL     1      14.824  64.815  18.481  1.00  0.00     0.156 C 
HETATM   37  C14 UNL     1      17.071  66.209  18.513  1.00  0.00     0.292 C 
HETATM   38  N6  UNL     1      16.181  66.589  19.572  1.00  0.00     0.096 N 
HETATM   39  C18 UNL     1      14.907  65.998  19.521  1.00  0.00     0.292 C 
BRANCH  38  40
HETATM   40  C15 UNL     1      16.106  67.992  19.790  1.00  0.00     0.223 A 
HETATM   41  C16 UNL     1      17.258  68.919  19.612  1.00  0.00     0.038 A 
HETATM   42  C17 UNL     1      16.726  68.624  20.974  1.00  0.00     0.038 A 
ENDBRANCH  38  40
ENDBRANCH  27  32
ENDBRANCH  25  27
ENDBRANCH   1  23
TORSDOF 13
ENDMDL
MODEL 2
REMARK VINA RESULT: -8.584253804      2.785      9.020
REMARK  13 active torsions:
REMARK  status: ('A' for Active; 'I' for Inactive)
REMARK    1  A    between atoms: S1_2  and  C2_3 
REMARK    2  A    between atoms: C2_3  and  C3_4 
REMARK    3  A    between atoms: C3_4  and  C4_5 
REMARK    4  A    between atoms: C4_5  and  N1_6 
REMARK    5  A    between atoms: C4_5  and  C5_10 
REMARK    6  A    between atoms: C5_10  and  O1_11 
REMARK    7  A    between atoms: C5_10  and  C24_39 
REMARK    8  A    between atoms: O1_11  and  C6_12 
REMARK       I    between atoms: C6_12  and  N2_14 
REMARK    9  A    between atoms: N2_14  and  C7_15 
REMARK   10  A    between atoms: C7_15  and  C10_19 
REMARK       I    between atoms: C10_19  and  N4_21 
REMARK   11  A    between atoms: N4_21  and  C11_23 
REMARK   12  A    between atoms: C11_23  and  C12_24 
REMARK       I    between atoms: C12_24  and  N5_26 
REMARK   13  A    between atoms: N6_29  and  C15_30 
ROOT
HETATM    1  C7  UNL     1      12.930  63.729  16.371  1.00  0.00     0.262 C 
HETATM    2  C8  UNL     1      13.574  63.923  14.967  1.00  0.00     0.082 C 
HETATM    3  C9  UNL     1      11.740  64.766  16.597  1.00  0.00     0.115 C 
HETATM    4  N3  UNL     1      10.882  65.511  16.770  1.00  0.00    -0.193 NA
ENDROOT
BRANCH   1   5
HETATM    5  N2  UNL     1      13.864  64.126  17.293  1.00  0.00    -0.353 NA
HETATM    6  C6  UNL     1      14.820  64.526  18.242  1.00  0.00     0.437 C 
HETATM    7  O2  UNL     1      15.477  64.292  19.124  1.00  0.00    -0.221 OA
BRANCH   6   8
HETATM    8  O1  UNL     1      14.931  65.956  17.534  1.00  0.00    -0.284 OA
BRANCH   8   9
HETATM    9  C5  UNL     1      16.032  66.564  17.772  1.00  0.00     0.172 C 
BRANCH   9  10
HETATM   10  C4  UNL     1      17.208  66.416  16.648  1.00  0.00     0.214 C 
BRANCH  10  11
HETATM   11  C3  UNL     1      16.707  65.659  15.519  1.00  0.00     0.045 C 
BRANCH  11  12
HETATM   12  C2  UNL     1      17.586  65.940  14.298  1.00  0.00     0.075 C 
BRANCH  12  13
HETATM   13  S1  UNL     1      16.258  66.598  13.135  1.00  0.00    -0.173 SA
HETATM   14  C1  UNL     1      16.858  68.156  12.372  1.00  0.00     0.089 C 
ENDBRANCH  12  13
ENDBRANCH  11  12
ENDBRANCH  10  11
BRANCH  10  15
HETATM   15  N1  UNL     1      18.174  65.608  17.472  1.00  0.00    -0.072 N 
ATOM     16  H13 UNL     1      17.880  65.558  18.448  1.00  0.00     0.274 HD
ATOM     17  H12 UNL     1      18.123  64.616  17.240  1.00  0.00     0.274 HD
ATOM     18  H11 UNL     1      19.128  65.962  17.389  1.00  0.00     0.274 HD
ENDBRANCH  10  15
ENDBRANCH   9  10
BRANCH   9  19
HETATM   19  C24 UNL     1      15.951  67.922  18.406  1.00  0.00    -0.022 C 
HETATM   20  C25 UNL     1      14.551  68.434  18.757  1.00  0.00     0.017 C 
HETATM   21  C26 UNL     1      16.178  67.400  20.002  1.00  0.00     0.017 C 
HETATM   22  C27 UNL     1      16.985  68.916  18.321  1.00  0.00     0.017 C 
ENDBRANCH   9  19
ENDBRANCH   8   9
ENDBRANCH   6   8
ENDBRANCH   1   5
BRANCH   1  23
HETATM   23  C10 UNL     1      12.168  62.502  16.300  1.00  0.00     0.275 C 
HETATM   24  O3  UNL     1      12.704  61.439  16.679  1.00  0.00    -0.268 OA
HETATM   25  N4  UNL     1      10.833  62.539  15.859  1.00  0.00    -0.339 N 
ATOM     26  H4  UNL     1      10.489  63.434  15.513  1.00  0.00     0.163 HD
BRANCH  25  27
HETATM   27  C11 UNL     1       9.924  61.467  15.849  1.00  0.00     0.114 C 
HETATM   28  C20 UNL     1      10.555  60.468  14.765  1.00  0.00     0.041 C 
HETATM   29  C21 UNL     1       9.449  60.166  13.829  1.00  0.00     0.003 C 
HETATM   30  C22 UNL     1       8.248  61.016  14.132  1.00  0.00     0.003 C 
HETATM   31  C23 UNL     1       8.643  61.993  15.169  1.00  0.00     0.041 C 
BRANCH  27  32
HETATM   32  C12 UNL     1       9.785  60.606  16.994  1.00  0.00     0.248 C 
HETATM   33  O4  UNL     1      10.189  59.570  17.044  1.00  0.00    -0.271 OA
HETATM   34  N5  UNL     1       9.070  61.136  18.160  1.00  0.00    -0.347 N 
HETATM   35  C13 UNL     1       8.150  59.972  18.591  1.00  0.00     0.156 C 
HETATM   36  C19 UNL     1       9.001  62.255  18.989  1.00  0.00     0.156 C 
HETATM   37  C14 UNL     1       7.069  60.521  19.492  1.00  0.00     0.292 C 
HETATM   38  N6  UNL     1       7.700  60.995  20.690  1.00  0.00     0.096 N 
HETATM   39  C18 UNL     1       8.835  61.799  20.489  1.00  0.00     0.292 C 
BRANCH  38  40
HETATM   40  C15 UNL     1       7.933  59.983  21.661  1.00  0.00     0.223 A 
HETATM   41  C16 UNL     1       7.690  58.534  21.419  1.00  0.00     0.038 A 
HETATM   42  C17 UNL     1       6.815  59.303  22.352  1.00  0.00     0.038 A 
ENDBRANCH  38  40
ENDBRANCH  27  32
ENDBRANCH  25  27
ENDBRANCH   1  23
TORSDOF 13
ENDMDL
MODEL 3
REMARK VINA RESULT: -8.575006898      2.898      5.405
REMARK  13 active torsions:
REMARK  status: ('A' for Active; 'I' for Inactive)
REMARK    1  A    between atoms: S1_2  and  C2_3 
REMARK    2  A    between atoms: C2_3  and  C3_4 
REMARK    3  A    between atoms: C3_4  and  C4_5 
REMARK    4  A    between atoms: C4_5  and  N1_6 
REMARK    5  A    between atoms: C4_5  and  C5_10 
REMARK    6  A    between atoms: C5_10  and  O1_11 
REMARK    7  A    between atoms: C5_10  and  C24_39 
REMARK    8  A    between atoms: O1_11  and  C6_12 
REMARK       I    between atoms: C6_12  and  N2_14 
REMARK    9  A    between atoms: N2_14  and  C7_15 
REMARK   10  A    between atoms: C7_15  and  C10_19 
REMARK       I    between atoms: C10_19  and  N4_21 
REMARK   11  A    between atoms: N4_21  and  C11_23 
REMARK   12  A    between atoms: C11_23  and  C12_24 
REMARK       I    between atoms: C12_24  and  N5_26 
REMARK   13  A    between atoms: N6_29  and  C15_30 
ROOT
HETATM    1  C7  UNL     1       9.934  60.973  16.357  1.00  0.00     0.262 C 
HETATM    2  C8  UNL     1       9.979  61.573  14.922  1.00  0.00     0.082 C 
HETATM    3  C9  UNL     1      11.377  60.456  16.801  1.00  0.00     0.115 C 
HETATM    4  N3  UNL     1      12.412  60.080  17.129  1.00  0.00    -0.193 NA
ENDROOT
BRANCH   1   5
HETATM    5  N2  UNL     1       9.203  59.816  16.281  1.00  0.00    -0.353 NA
HETATM    6  C6  UNL     1       8.460  58.626  16.199  1.00  0.00     0.437 C 
HETATM    7  O2  UNL     1       8.391  57.534  15.941  1.00  0.00    -0.221 OA
BRANCH   6   8
HETATM    8  O1  UNL     1       7.211  59.354  16.883  1.00  0.00    -0.284 OA
BRANCH   8   9
HETATM    9  C5  UNL     1       6.452  58.562  17.543  1.00  0.00     0.172 C 
BRANCH   9  10
HETATM   10  C4  UNL     1       6.755  58.418  19.142  1.00  0.00     0.214 C 
BRANCH  10  11
HETATM   11  C3  UNL     1       6.584  59.705  19.785  1.00  0.00     0.045 C 
BRANCH  11  12
HETATM   12  C2  UNL     1       6.207  59.485  21.252  1.00  0.00     0.075 C 
BRANCH  12  13
HETATM   13  S1  UNL     1       4.709  60.624  21.336  1.00  0.00    -0.173 SA
HETATM   14  C1  UNL     1       4.566  61.535  19.749  1.00  0.00     0.089 C 
ENDBRANCH  12  13
ENDBRANCH  11  12
ENDBRANCH  10  11
BRANCH  10  15
HETATM   15  N1  UNL     1       8.208  58.039  19.037  1.00  0.00    -0.072 N 
ATOM     16  H13 UNL     1       8.409  57.575  18.152  1.00  0.00     0.274 HD
ATOM     17  H12 UNL     1       8.800  58.861  18.924  1.00  0.00     0.274 HD
ATOM     18  H11 UNL     1       8.507  57.472  19.831  1.00  0.00     0.274 HD
ENDBRANCH  10  15
ENDBRANCH   9  10
BRANCH   9  19
HETATM   19  C24 UNL     1       4.994  58.543  17.187  1.00  0.00    -0.022 C 
HETATM   20  C25 UNL     1       4.568  59.395  15.987  1.00  0.00     0.017 C 
HETATM   21  C26 UNL     1       5.055  57.163  16.207  1.00  0.00     0.017 C 
HETATM   22  C27 UNL     1       3.946  58.157  18.092  1.00  0.00     0.017 C 
ENDBRANCH   9  19
ENDBRANCH   8   9
ENDBRANCH   6   8
ENDBRANCH   1   5
BRANCH   1  23
HETATM   23  C10 UNL     1       9.794  62.094  17.260  1.00  0.00     0.275 C 
HETATM   24  O3  UNL     1       9.460  63.204  16.793  1.00  0.00    -0.268 OA
HETATM   25  N4  UNL     1       9.981  61.901  18.641  1.00  0.00    -0.339 N 
ATOM     26  H4  UNL     1      10.309  60.981  18.934  1.00  0.00     0.163 HD
BRANCH  25  27
HETATM   27  C11 UNL     1       9.763  62.847  19.657  1.00  0.00     0.114 C 
HETATM   28  C20 UNL     1      10.432  62.159  20.942  1.00  0.00     0.041 C 
HETATM   29  C21 UNL     1       9.389  62.207  21.990  1.00  0.00     0.003 C 
HETATM   30  C22 UNL     1       8.088  62.701  21.426  1.00  0.00     0.003 C 
HETATM   31  C23 UNL     1       8.252  62.815  19.961  1.00  0.00     0.041 C 
BRANCH  27  32
HETATM   32  C12 UNL     1      10.428  64.124  19.631  1.00  0.00     0.248 C 
HETATM   33  O4  UNL     1       9.946  65.080  19.933  1.00  0.00    -0.271 OA
HETATM   34  N5  UNL     1      11.824  64.154  19.180  1.00  0.00    -0.347 N 
HETATM   35  C13 UNL     1      11.882  65.376  18.237  1.00  0.00     0.156 C 
HETATM   36  C19 UNL     1      13.050  63.516  19.363  1.00  0.00     0.156 C 
HETATM   37  C14 UNL     1      13.124  65.268  17.384  1.00  0.00     0.292 C 
HETATM   38  N6  UNL     1      14.260  65.381  18.252  1.00  0.00     0.096 N 
HETATM   39  C18 UNL     1      14.207  64.586  19.410  1.00  0.00     0.292 C 
BRANCH  38  40
HETATM   40  C15 UNL     1      14.633  66.721  18.546  1.00  0.00     0.223 A 
HETATM   41  C16 UNL     1      16.045  67.178  18.663  1.00  0.00     0.038 A 
HETATM   42  C17 UNL     1      15.171  67.100  19.870  1.00  0.00     0.038 A 
ENDBRANCH  38  40
ENDBRANCH  27  32
ENDBRANCH  25  27
ENDBRANCH   1  23
TORSDOF 13
ENDMDL
MODEL 4
REMARK VINA RESULT: -8.563034772      2.914      9.945
REMARK  13 active torsions:
REMARK  status: ('A' for Active; 'I' for Inactive)
REMARK    1  A    between atoms: S1_2  and  C2_3 
REMARK    2  A    between atoms: C2_3  and  C3_4 
REMARK    3  A    between atoms: C3_4  and  C4_5 
REMARK    4  A    between atoms: C4_5  and  N1_6 
REMARK    5  A    between atoms: C4_5  and  C5_10 
REMARK    6  A    between atoms: C5_10  and  O1_11 
REMARK    7  A    between atoms: C5_10  and  C24_39 
REMARK    8  A    between atoms: O1_11  and  C6_12 
REMARK       I    between atoms: C6_12  and  N2_14 
REMARK    9  A    between atoms: N2_14  and  C7_15 
REMARK   10  A    between atoms: C7_15  and  C10_19 
REMARK       I    between atoms: C10_19  and  N4_21 
REMARK   11  A    between atoms: N4_21  and  C11_23 
REMARK   12  A    between atoms: C11_23  and  C12_24 
REMARK       I    between atoms: C12_24  and  N5_26 
REMARK   13  A    between atoms: N6_29  and  C15_30 
ROOT
HETATM    1  C7  UNL     1      12.696  63.966  17.833  1.00  0.00     0.262 C 
HETATM    2  C8  UNL     1      13.576  62.808  18.389  1.00  0.00     0.082 C 
HETATM    3  C9  UNL     1      12.395  63.754  16.281  1.00  0.00     0.115 C 
HETATM    4  N3  UNL     1      12.173  63.611  15.163  1.00  0.00    -0.193 NA
ENDROOT
BRANCH   1   5
HETATM    5  N2  UNL     1      13.475  65.095  17.844  1.00  0.00    -0.353 NA
HETATM    6  C6  UNL     1      14.267  66.256  17.856  1.00  0.00     0.437 C 
HETATM    7  O2  UNL     1      14.366  67.368  17.988  1.00  0.00    -0.221 OA
BRANCH   6   8
HETATM    8  O1  UNL     1      15.577  65.370  17.618  1.00  0.00    -0.284 OA
BRANCH   8   9
HETATM    9  C5  UNL     1      16.352  65.832  16.710  1.00  0.00     0.172 C 
BRANCH   9  10
HETATM   10  C4  UNL     1      17.674  66.646  17.219  1.00  0.00     0.214 C 
BRANCH  10  11
HETATM   11  C3  UNL     1      17.645  66.761  18.663  1.00  0.00     0.045 C 
BRANCH  11  12
HETATM   12  C2  UNL     1      18.189  68.134  19.067  1.00  0.00     0.075 C 
BRANCH  12  13
HETATM   13  S1  UNL     1      16.860  68.614  20.312  1.00  0.00    -0.173 SA
HETATM   14  C1  UNL     1      16.081  67.087  20.968  1.00  0.00     0.089 C 
ENDBRANCH  12  13
ENDBRANCH  11  12
ENDBRANCH  10  11
BRANCH  10  15
HETATM   15  N1  UNL     1      17.370  67.961  16.553  1.00  0.00    -0.072 N 
ATOM     16  H13 UNL     1      16.572  67.883  15.922  1.00  0.00     0.274 HD
ATOM     17  H12 UNL     1      16.985  68.634  17.214  1.00  0.00     0.274 HD
ATOM     18  H11 UNL     1      18.189  68.337  16.073  1.00  0.00     0.274 HD
ENDBRANCH  10  15
ENDBRANCH   9  10
BRANCH   9  19
HETATM   19  C24 UNL     1      16.581  64.980  15.496  1.00  0.00    -0.022 C 
HETATM   20  C25 UNL     1      15.785  63.675  15.412  1.00  0.00     0.017 C 
HETATM   21  C26 UNL     1      15.446  65.755  14.504  1.00  0.00     0.017 C 
HETATM   22  C27 UNL     1      17.744  65.068  14.655  1.00  0.00     0.017 C 
ENDBRANCH   9  19
ENDBRANCH   8   9
ENDBRANCH   6   8
ENDBRANCH   1   5
BRANCH   1  23
HETATM   23  C10 UNL     1      11.368  63.757  18.366  1.00  0.00     0.275 C 
HETATM   24  O3  UNL     1      10.421  64.422  17.896  1.00  0.00    -0.268 OA
HETATM   25  N4  UNL     1      11.164  62.780  19.357  1.00  0.00    -0.339 N 
ATOM     26  H4  UNL     1      11.997  62.323  19.728  1.00  0.00     0.163 HD
BRANCH  25  27
HETATM   27  C11 UNL     1       9.930  62.369  19.887  1.00  0.00     0.114 C 
HETATM   28  C20 UNL     1       9.317  63.730  20.475  1.00  0.00     0.041 C 
HETATM   29  C21 UNL     1       8.939  63.411  21.869  1.00  0.00     0.003 C 
HETATM   30  C22 UNL     1       9.415  62.038  22.250  1.00  0.00     0.003 C 
HETATM   31  C23 UNL     1      10.253  61.534  21.142  1.00  0.00     0.041 C 
BRANCH  27  32
HETATM   32  C12 UNL     1       8.868  61.921  19.024  1.00  0.00     0.248 C 
HETATM   33  O4  UNL     1       7.850  62.369  19.009  1.00  0.00    -0.271 OA
HETATM   34  N5  UNL     1       9.158  60.809  18.112  1.00  0.00    -0.347 N 
HETATM   35  C13 UNL     1       7.915  59.899  18.231  1.00  0.00     0.156 C 
HETATM   36  C19 UNL     1      10.102  60.367  17.186  1.00  0.00     0.156 C 
HETATM   37  C14 UNL     1       8.264  58.533  17.689  1.00  0.00     0.292 C 
HETATM   38  N6  UNL     1       8.521  58.675  16.285  1.00  0.00     0.096 N 
HETATM   39  C18 UNL     1       9.372  59.738  15.938  1.00  0.00     0.292 C 
BRANCH  38  40
HETATM   40  C15 UNL     1       7.352  58.647  15.477  1.00  0.00     0.223 A 
HETATM   41  C16 UNL     1       6.498  57.440  15.301  1.00  0.00     0.038 A 
HETATM   42  C17 UNL     1       7.331  57.950  14.173  1.00  0.00     0.038 A 
ENDBRANCH  38  40
ENDBRANCH  27  32
ENDBRANCH  25  27
ENDBRANCH   1  23
TORSDOF 13
ENDMDL
MODEL 5
REMARK VINA RESULT: -8.557498798      2.170      3.676
REMARK  13 active torsions:
REMARK  status: ('A' for Active; 'I' for Inactive)
REMARK    1  A    between atoms: S1_2  and  C2_3 
REMARK    2  A    between atoms: C2_3  and  C3_4 
REMARK    3  A    between atoms: C3_4  and  C4_5 
REMARK    4  A    between atoms: C4_5  and  N1_6 
REMARK    5  A    between atoms: C4_5  and  C5_10 
REMARK    6  A    between atoms: C5_10  and  O1_11 
REMARK    7  A    between atoms: C5_10  and  C24_39 
REMARK    8  A    between atoms: O1_11  and  C6_12 
REMARK       I    between atoms: C6_12  and  N2_14 
REMARK    9  A    between atoms: N2_14  and  C7_15 
REMARK   10  A    between atoms: C7_15  and  C10_19 
REMARK       I    between atoms: C10_19  and  N4_21 
REMARK   11  A    between atoms: N4_21  and  C11_23 
REMARK   12  A    between atoms: C11_23  and  C12_24 
REMARK       I    between atoms: C12_24  and  N5_26 
REMARK   13  A    between atoms: N6_29  and  C15_30 
ROOT
HETATM    1  C7  UNL     1      12.310  62.415  17.156  1.00  0.00     0.262 C 
HETATM    2  C8  UNL     1      12.281  62.050  18.669  1.00  0.00     0.082 C 
HETATM    3  C9  UNL     1      11.492  63.756  16.880  1.00  0.00     0.115 C 
HETATM    4  N3  UNL     1      10.904  64.721  16.671  1.00  0.00    -0.193 NA
ENDROOT
BRANCH   1   5
HETATM    5  N2  UNL     1      11.568  61.463  16.504  1.00  0.00    -0.353 NA
HETATM    6  C6  UNL     1      10.813  60.484  15.835  1.00  0.00     0.437 C 
HETATM    7  O2  UNL     1      10.761  59.559  15.198  1.00  0.00    -0.221 OA
BRANCH   6   8
HETATM    8  O1  UNL     1       9.465  61.117  16.418  1.00  0.00    -0.284 OA
BRANCH   8   9
HETATM    9  C5  UNL     1       8.520  60.267  16.566  1.00  0.00     0.172 C 
BRANCH   9  10
HETATM   10  C4  UNL     1       8.049  59.955  18.099  1.00  0.00     0.214 C 
BRANCH  10  11
HETATM   11  C3  UNL     1       8.739  60.846  19.009  1.00  0.00     0.045 C 
BRANCH  11  12
HETATM   12  C2  UNL     1       7.760  61.915  19.502  1.00  0.00     0.075 C 
BRANCH  12  13
HETATM   13  S1  UNL     1       8.857  62.733  20.797  1.00  0.00    -0.173 SA
HETATM   14  C1  UNL     1       9.577  64.263  20.083  1.00  0.00     0.089 C 
ENDBRANCH  12  13
ENDBRANCH  11  12
ENDBRANCH  10  11
BRANCH  10  15
HETATM   15  N1  UNL     1       8.580  58.550  18.191  1.00  0.00    -0.072 N 
ATOM     16  H13 UNL     1       9.360  58.404  17.550  1.00  0.00     0.274 HD
ATOM     17  H12 UNL     1       9.066  58.392  19.072  1.00  0.00     0.274 HD
ATOM     18  H11 UNL     1       7.843  57.859  18.043  1.00  0.00     0.274 HD
ENDBRANCH  10  15
ENDBRANCH   9  10
BRANCH   9  19
HETATM   19  C24 UNL     1       7.398  60.298  15.570  1.00  0.00    -0.022 C 
HETATM   20  C25 UNL     1       7.581  61.215  14.357  1.00  0.00     0.017 C 
HETATM   21  C26 UNL     1       7.916  58.965  14.660  1.00  0.00     0.017 C 
HETATM   22  C27 UNL     1       6.050  59.891  15.858  1.00  0.00     0.017 C 
ENDBRANCH   9  19
ENDBRANCH   8   9
ENDBRANCH   6   8
ENDBRANCH   1   5
BRANCH   1  23
HETATM   23  C10 UNL     1      13.648  62.888  16.879  1.00  0.00     0.275 C 
HETATM   24  O3  UNL     1      14.600  62.418  17.538  1.00  0.00    -0.268 OA
HETATM   25  N4  UNL     1      13.854  63.821  15.846  1.00  0.00    -0.339 N 
ATOM     26  H4  UNL     1      13.020  64.198  15.396  1.00  0.00     0.163 HD
BRANCH  25  27
HETATM   27  C11 UNL     1      15.092  64.285  15.371  1.00  0.00     0.114 C 
HETATM   28  C20 UNL     1      14.687  65.130  14.070  1.00  0.00     0.041 C 
HETATM   29  C21 UNL     1      15.550  64.606  12.988  1.00  0.00     0.003 C 
HETATM   30  C22 UNL     1      16.323  63.406  13.455  1.00  0.00     0.003 C 
HETATM   31  C23 UNL     1      15.827  63.055  14.803  1.00  0.00     0.041 C 
BRANCH  27  32
HETATM   32  C12 UNL     1      15.854  65.250  16.120  1.00  0.00     0.248 C 
HETATM   33  O4  UNL     1      16.912  65.514  15.897  1.00  0.00    -0.271 OA
HETATM   34  N5  UNL     1      15.187  65.923  17.240  1.00  0.00    -0.347 N 
HETATM   35  C13 UNL     1      16.240  65.897  18.369  1.00  0.00     0.156 C 
HETATM   36  C19 UNL     1      14.008  66.590  17.574  1.00  0.00     0.156 C 
HETATM   37  C14 UNL     1      15.545  66.162  19.684  1.00  0.00     0.292 C 
HETATM   38  N6  UNL     1      15.036  67.502  19.645  1.00  0.00     0.096 N 
HETATM   39  C18 UNL     1      14.340  67.842  18.472  1.00  0.00     0.292 C 
BRANCH  38  40
HETATM   40  C15 UNL     1      15.989  68.494  20.001  1.00  0.00     0.223 A 
HETATM   41  C16 UNL     1      17.455  68.243  20.074  1.00  0.00     0.038 A 
HETATM   42  C17 UNL     1      16.664  68.479  21.317  1.00  0.00     0.038 A 
ENDBRANCH  38  40
ENDBRANCH  27  32
ENDBRANCH  25  27
ENDBRANCH   1  23
TORSDOF 13
ENDMDL
