MODEL 1
REMARK VINA RESULT: -9.041439080      0.000      0.000
REMARK  14 active torsions:
REMARK  status: ('A' for Active; 'I' for Inactive)
REMARK    1  A    between atoms: N1_2  and  C2_4 
REMARK    2  A    between atoms: N3_8  and  C4_10 
REMARK    3  A    between atoms: C4_10  and  C5_11 
REMARK    4  A    between atoms: C5_11  and  O1_12 
REMARK    5  A    between atoms: C8_16  and  C9_17 
REMARK    6  A    between atoms: C10_18  and  C11_19 
REMARK    7  A    between atoms: C11_19  and  C13_21 
REMARK    8  A    between atoms: C11_19  and  C24_35 
REMARK    9  A    between atoms: C13_21  and  C14_22 
REMARK   10  A    between atoms: C17_25  and  N4_26 
REMARK   11  A    between atoms: N4_26  and  C19_28 
REMARK   12  A    between atoms: C19_28  and  C20_29 
REMARK   13  A    between atoms: C20_29  and  C21_30 
REMARK   14  A    between atoms: C21_30  and  N5_31 
ROOT
HETATM    1  C9  UNL     1      13.385  64.759  19.643  1.00  0.00    -0.066 C 
HETATM    2  C10 UNL     1      12.470  63.979  19.505  1.00  0.00    -0.084 C 
ENDROOT
BRANCH   2   3
HETATM    3  C11 UNL     1      11.341  63.039  19.268  1.00  0.00     0.070 C 
HETATM    4  C12 UNL     1      11.542  61.937  20.386  1.00  0.00     0.036 C 
BRANCH   3   5
HETATM    5  C13 UNL     1      10.096  63.681  19.650  1.00  0.00     0.093 C 
BRANCH   5   6
HETATM    6  C14 UNL     1       9.060  62.881  20.323  1.00  0.00     0.057 A 
HETATM    7  C15 UNL     1       8.629  62.833  21.620  1.00  0.00     0.037 A 
HETATM    8  C16 UNL     1       7.626  61.880  21.654  1.00  0.00     0.059 A 
HETATM    9  C17 UNL     1       7.488  61.380  20.351  1.00  0.00     0.145 A 
HETATM   10  O2  UNL     1       8.338  61.993  19.637  1.00  0.00    -0.298 OA
BRANCH   9  11
HETATM   11  N4  UNL     1       6.532  60.347  19.967  1.00  0.00    -0.366 N 
HETATM   12  C18 UNL     1       5.299  60.839  19.442  1.00  0.00     0.151 C 
BRANCH  11  13
HETATM   13  C19 UNL     1       6.850  58.971  20.088  1.00  0.00     0.126 C 
BRANCH  13  14
HETATM   14  C20 UNL     1       7.917  58.477  19.179  1.00  0.00     0.050 C 
BRANCH  14  15
HETATM   15  C21 UNL     1       7.560  58.295  17.742  1.00  0.00     0.273 C 
BRANCH  15  16
HETATM   16  N5  UNL     1       8.515  58.935  16.835  1.00  0.00     0.080 N 
HETATM   17  C22 UNL     1       8.084  60.304  16.595  1.00  0.00     0.309 C 
HETATM   18  C23 UNL     1       8.640  58.247  15.570  1.00  0.00     0.309 C 
ENDBRANCH  15  16
ENDBRANCH  14  15
ENDBRANCH  13  14
ENDBRANCH  11  13
ENDBRANCH   9  11
ENDBRANCH   5   6
ENDBRANCH   3   5
BRANCH   3  19
HETATM   19  C24 UNL     1      11.470  62.308  18.024  1.00  0.00     0.048 A 
HETATM   20  C25 UNL     1      11.631  60.944  17.887  1.00  0.00     0.116 A 
HETATM   21  N6  UNL     1      11.696  60.606  16.605  1.00  0.00    -0.360 N 
HETATM   22  C26 UNL     1      11.579  61.713  15.891  1.00  0.00     0.182 A 
ATOM     23  H6  UNL     1      11.814  59.662  16.236  1.00  0.00     0.166 HD
HETATM   24  N7  UNL     1      11.443  62.748  16.737  1.00  0.00    -0.348 N 
HETATM   25  C27 UNL     1      11.281  64.095  16.285  1.00  0.00     0.157 C 
ENDBRANCH   3  19
ENDBRANCH   2   3
BRANCH   1  26
HETATM   26  C8  UNL     1      14.459  65.707  19.739  1.00  0.00     0.018 A 
HETATM   27  C7  UNL     1      15.277  65.933  18.629  1.00  0.00     0.038 A 
HETATM   28  C6  UNL     1      16.336  66.803  18.646  1.00  0.00     0.037 A 
HETATM   29  C3  UNL     1      17.106  66.960  17.481  1.00  0.00     0.129 A 
HETATM   30  C30 UNL     1      16.647  67.494  19.757  1.00  0.00     0.063 A 
HETATM   31  N2  UNL     1      18.139  67.794  17.498  1.00  0.00    -0.176 N 
HETATM   32  N3  UNL     1      16.743  66.323  16.478  1.00  0.00    -0.373 N 
HETATM   33  C2  UNL     1      18.455  68.488  18.603  1.00  0.00     0.679 A 
ATOM     34  H2  UNL     1      18.703  67.910  16.655  1.00  0.00     0.186 HD
HETATM   35  N8  UNL     1      17.706  68.338  19.738  1.00  0.00    -0.191 N 
ATOM     36  H8  UNL     1      17.948  68.865  20.578  1.00  0.00     0.184 HD
ATOM     37  H3  UNL     1      15.931  65.738  16.672  1.00  0.00     0.161 HD
HETATM   38  C29 UNL     1      15.858  67.298  20.884  1.00  0.00     0.032 A 
HETATM   39  C28 UNL     1      14.774  66.406  20.853  1.00  0.00     0.023 A 
BRANCH  33  40
HETATM   40  N1  UNL     1      19.455  69.304  18.685  1.00  0.00    -0.230 N 
HETATM   41  C1  UNL     1      19.671  70.423  17.815  1.00  0.00     0.165 C 
ATOM     42  H1  UNL     1      20.141  69.139  19.423  1.00  0.00     0.177 HD
ENDBRANCH  33  40
BRANCH  32  43
HETATM   43  C4  UNL     1      17.171  66.204  15.142  1.00  0.00     0.147 C 
BRANCH  43  44
HETATM   44  C5  UNL     1      17.689  64.793  14.841  1.00  0.00     0.183 C 
BRANCH  44  45
HETATM   45  O1  UNL     1      18.804  64.581  15.638  1.00  0.00    -0.399 OA
ATOM     46  H1  UNL     1      18.570  63.930  16.289  1.00  0.00     0.209 HD
ENDBRANCH  44  45
ENDBRANCH  43  44
ENDBRANCH  32  43
ENDBRANCH   1  26
TORSDOF 14
ENDMDL
MODEL 2
REMARK VINA RESULT: -8.902615903      0.842      1.031
REMARK  14 active torsions:
REMARK  status: ('A' for Active; 'I' for Inactive)
REMARK    1  A    between atoms: N1_2  and  C2_4 
REMARK    2  A    between atoms: N3_8  and  C4_10 
REMARK    3  A    between atoms: C4_10  and  C5_11 
REMARK    4  A    between atoms: C5_11  and  O1_12 
REMARK    5  A    between atoms: C8_16  and  C9_17 
REMARK    6  A    between atoms: C10_18  and  C11_19 
REMARK    7  A    between atoms: C11_19  and  C13_21 
REMARK    8  A    between atoms: C11_19  and  C24_35 
REMARK    9  A    between atoms: C13_21  and  C14_22 
REMARK   10  A    between atoms: C17_25  and  N4_26 
REMARK   11  A    between atoms: N4_26  and  C19_28 
REMARK   12  A    between atoms: C19_28  and  C20_29 
REMARK   13  A    between atoms: C20_29  and  C21_30 
REMARK   14  A    between atoms: C21_30  and  N5_31 
ROOT
HETATM    1  C9  UNL     1      13.497  64.804  19.525  1.00  0.00    -0.066 C 
HETATM    2  C10 UNL     1      12.582  64.025  19.381  1.00  0.00    -0.084 C 
ENDROOT
BRANCH   2   3
HETATM    3  C11 UNL     1      11.443  63.098  19.143  1.00  0.00     0.070 C 
HETATM    4  C12 UNL     1      11.611  62.012  20.281  1.00  0.00     0.036 C 
BRANCH   3   5
HETATM    5  C13 UNL     1      10.202  63.764  19.495  1.00  0.00     0.093 C 
BRANCH   5   6
HETATM    6  C14 UNL     1       9.044  62.947  19.894  1.00  0.00     0.057 A 
HETATM    7  C15 UNL     1       8.336  62.858  21.060  1.00  0.00     0.037 A 
HETATM    8  C16 UNL     1       7.353  61.910  20.838  1.00  0.00     0.059 A 
HETATM    9  C17 UNL     1       7.509  61.455  19.520  1.00  0.00     0.145 A 
HETATM   10  O2  UNL     1       8.494  62.088  19.034  1.00  0.00    -0.298 OA
BRANCH   9  11
HETATM   11  N4  UNL     1       6.663  60.442  18.898  1.00  0.00    -0.366 N 
HETATM   12  C18 UNL     1       5.309  60.433  19.348  1.00  0.00     0.151 C 
BRANCH  11  13
HETATM   13  C19 UNL     1       7.175  59.571  17.902  1.00  0.00     0.126 C 
BRANCH  13  14
HETATM   14  C20 UNL     1       6.264  59.300  16.759  1.00  0.00     0.050 C 
BRANCH  14  15
HETATM   15  C21 UNL     1       6.672  59.821  15.423  1.00  0.00     0.273 C 
BRANCH  15  16
HETATM   16  N5  UNL     1       8.094  60.164  15.357  1.00  0.00     0.080 N 
HETATM   17  C22 UNL     1       8.231  61.463  14.715  1.00  0.00     0.309 C 
HETATM   18  C23 UNL     1       8.877  59.190  14.631  1.00  0.00     0.309 C 
ENDBRANCH  15  16
ENDBRANCH  14  15
ENDBRANCH  13  14
ENDBRANCH  11  13
ENDBRANCH   9  11
ENDBRANCH   5   6
ENDBRANCH   3   5
BRANCH   3  19
HETATM   19  C24 UNL     1      11.580  62.345  17.913  1.00  0.00     0.048 A 
HETATM   20  C25 UNL     1      11.576  60.970  17.788  1.00  0.00     0.116 A 
HETATM   21  N6  UNL     1      11.703  60.615  16.515  1.00  0.00    -0.360 N 
HETATM   22  C26 UNL     1      11.786  61.721  15.795  1.00  0.00     0.182 A 
ATOM     23  H6  UNL     1      11.730  59.660  16.156  1.00  0.00     0.166 HD
HETATM   24  N7  UNL     1      11.714  62.773  16.628  1.00  0.00    -0.348 N 
HETATM   25  C27 UNL     1      11.761  64.126  16.166  1.00  0.00     0.157 C 
ENDBRANCH   3  19
ENDBRANCH   2   3
BRANCH   1  26
HETATM   26  C8  UNL     1      14.562  65.761  19.636  1.00  0.00     0.018 A 
HETATM   27  C7  UNL     1      15.394  65.994  18.538  1.00  0.00     0.038 A 
HETATM   28  C6  UNL     1      16.445  66.872  18.569  1.00  0.00     0.037 A 
HETATM   29  C3  UNL     1      17.230  67.035  17.415  1.00  0.00     0.129 A 
HETATM   30  C30 UNL     1      16.733  67.567  19.684  1.00  0.00     0.063 A 
HETATM   31  N2  UNL     1      18.255  67.878  17.447  1.00  0.00    -0.176 N 
HETATM   32  N3  UNL     1      16.887  66.394  16.408  1.00  0.00    -0.373 N 
HETATM   33  C2  UNL     1      18.549  68.576  18.555  1.00  0.00     0.679 A 
ATOM     34  H2  UNL     1      18.830  67.998  16.612  1.00  0.00     0.186 HD
HETATM   35  N8  UNL     1      17.785  68.420  19.680  1.00  0.00    -0.191 N 
ATOM     36  H8  UNL     1      18.010  68.950  20.522  1.00  0.00     0.184 HD
ATOM     37  H3  UNL     1      16.077  65.802  16.591  1.00  0.00     0.161 HD
HETATM   38  C29 UNL     1      15.930  67.366  20.800  1.00  0.00     0.032 A 
HETATM   39  C28 UNL     1      14.854  66.464  20.753  1.00  0.00     0.023 A 
BRANCH  33  40
HETATM   40  N1  UNL     1      19.541  69.400  18.651  1.00  0.00    -0.230 N 
HETATM   41  C1  UNL     1      19.726  70.556  17.823  1.00  0.00     0.165 C 
ATOM     42  H1  UNL     1      20.243  69.214  19.367  1.00  0.00     0.177 HD
ENDBRANCH  33  40
BRANCH  32  43
HETATM   43  C4  UNL     1      17.335  66.278  15.078  1.00  0.00     0.147 C 
BRANCH  43  44
HETATM   44  C5  UNL     1      17.747  64.838  14.748  1.00  0.00     0.183 C 
BRANCH  44  45
HETATM   45  O1  UNL     1      16.851  63.993  15.385  1.00  0.00    -0.399 OA
ATOM     46  H1  UNL     1      17.224  63.766  16.229  1.00  0.00     0.209 HD
ENDBRANCH  44  45
ENDBRANCH  43  44
ENDBRANCH  32  43
ENDBRANCH   1  26
TORSDOF 14
ENDMDL
MODEL 3
REMARK VINA RESULT: -8.760282083      2.264     11.287
REMARK  14 active torsions:
REMARK  status: ('A' for Active; 'I' for Inactive)
REMARK    1  A    between atoms: N1_2  and  C2_4 
REMARK    2  A    between atoms: N3_8  and  C4_10 
REMARK    3  A    between atoms: C4_10  and  C5_11 
REMARK    4  A    between atoms: C5_11  and  O1_12 
REMARK    5  A    between atoms: C8_16  and  C9_17 
REMARK    6  A    between atoms: C10_18  and  C11_19 
REMARK    7  A    between atoms: C11_19  and  C13_21 
REMARK    8  A    between atoms: C11_19  and  C24_35 
REMARK    9  A    between atoms: C13_21  and  C14_22 
REMARK   10  A    between atoms: C17_25  and  N4_26 
REMARK   11  A    between atoms: N4_26  and  C19_28 
REMARK   12  A    between atoms: C19_28  and  C20_29 
REMARK   13  A    between atoms: C20_29  and  C21_30 
REMARK   14  A    between atoms: C21_30  and  N5_31 
ROOT
HETATM    1  C9  UNL     1      11.720  61.677  15.648  1.00  0.00    -0.066 C 
HETATM    2  C10 UNL     1      12.615  62.459  15.877  1.00  0.00    -0.084 C 
ENDROOT
BRANCH   2   3
HETATM    3  C11 UNL     1      13.711  63.403  16.228  1.00  0.00     0.070 C 
HETATM    4  C12 UNL     1      15.011  62.509  16.121  1.00  0.00     0.036 C 
BRANCH   3   5
HETATM    5  C13 UNL     1      13.875  64.365  15.153  1.00  0.00     0.093 C 
BRANCH   5   6
HETATM    6  C14 UNL     1      15.192  64.991  14.954  1.00  0.00     0.057 A 
HETATM    7  C15 UNL     1      16.077  64.969  13.911  1.00  0.00     0.037 A 
HETATM    8  C16 UNL     1      17.151  65.747  14.306  1.00  0.00     0.059 A 
HETATM    9  C17 UNL     1      16.869  66.217  15.596  1.00  0.00     0.145 A 
HETATM   10  O2  UNL     1      15.733  65.749  15.911  1.00  0.00    -0.298 OA
BRANCH   9  11
HETATM   11  N4  UNL     1      17.761  67.073  16.370  1.00  0.00    -0.366 N 
HETATM   12  C18 UNL     1      18.242  68.222  15.673  1.00  0.00     0.151 C 
BRANCH  11  13
HETATM   13  C19 UNL     1      18.077  66.774  17.719  1.00  0.00     0.126 C 
BRANCH  13  14
HETATM   14  C20 UNL     1      18.236  67.948  18.617  1.00  0.00     0.050 C 
BRANCH  14  15
HETATM   15  C21 UNL     1      16.992  68.556  19.173  1.00  0.00     0.273 C 
BRANCH  15  16
HETATM   16  N5  UNL     1      15.916  67.579  19.355  1.00  0.00     0.080 N 
HETATM   17  C22 UNL     1      14.710  68.092  18.723  1.00  0.00     0.309 C 
HETATM   18  C23 UNL     1      15.641  67.296  20.745  1.00  0.00     0.309 C 
ENDBRANCH  15  16
ENDBRANCH  14  15
ENDBRANCH  13  14
ENDBRANCH  11  13
ENDBRANCH   9  11
ENDBRANCH   5   6
ENDBRANCH   3   5
BRANCH   3  19
HETATM   19  C24 UNL     1      13.676  63.812  17.616  1.00  0.00     0.048 A 
HETATM   20  C25 UNL     1      14.496  63.353  18.628  1.00  0.00     0.116 A 
HETATM   21  N6  UNL     1      14.206  63.954  19.776  1.00  0.00    -0.360 N 
HETATM   22  C26 UNL     1      13.217  64.802  19.547  1.00  0.00     0.182 A 
ATOM     23  H6  UNL     1      14.664  63.792  20.673  1.00  0.00     0.166 HD
HETATM   24  N7  UNL     1      12.887  64.725  18.247  1.00  0.00    -0.348 N 
HETATM   25  C27 UNL     1      11.855  65.527  17.666  1.00  0.00     0.157 C 
ENDBRANCH   3  19
ENDBRANCH   2   3
BRANCH   1  26
HETATM   26  C8  UNL     1      10.652  60.739  15.445  1.00  0.00     0.018 A 
HETATM   27  C7  UNL     1       9.843  60.375  16.524  1.00  0.00     0.038 A 
HETATM   28  C6  UNL     1       8.820  59.470  16.420  1.00  0.00     0.037 A 
HETATM   29  C3  UNL     1       8.064  59.164  17.564  1.00  0.00     0.129 A 
HETATM   30  C30 UNL     1       8.540  58.873  15.247  1.00  0.00     0.063 A 
HETATM   31  N2  UNL     1       7.078  58.278  17.467  1.00  0.00    -0.176 N 
HETATM   32  N3  UNL     1       8.347  59.777  18.606  1.00  0.00    -0.373 N 
HETATM   33  C2  UNL     1       6.792  57.679  16.301  1.00  0.00     0.679 A 
ATOM     34  H2  UNL     1       6.528  58.050  18.296  1.00  0.00     0.186 HD
HETATM   35  N8  UNL     1       7.527  57.977  15.185  1.00  0.00    -0.191 N 
ATOM     36  H8  UNL     1       7.310  57.521  14.299  1.00  0.00     0.184 HD
ATOM     37  H3  UNL     1       9.136  60.410  18.472  1.00  0.00     0.161 HD
HETATM   38  C29 UNL     1       9.322  59.207  14.147  1.00  0.00     0.032 A 
HETATM   39  C28 UNL     1      10.366  60.138  14.268  1.00  0.00     0.023 A 
BRANCH  33  40
HETATM   40  N1  UNL     1       5.855  56.801  16.147  1.00  0.00    -0.230 N 
HETATM   41  C1  UNL     1       5.567  56.119  14.920  1.00  0.00     0.165 C 
ATOM     42  H1  UNL     1       5.279  56.578  16.959  1.00  0.00     0.177 HD
ENDBRANCH  33  40
BRANCH  32  43
HETATM   43  C4  UNL     1       7.855  59.820  19.924  1.00  0.00     0.147 C 
BRANCH  43  44
HETATM   44  C5  UNL     1       7.991  58.460  20.619  1.00  0.00     0.183 C 
BRANCH  44  45
HETATM   45  O1  UNL     1       6.777  57.802  20.484  1.00  0.00    -0.399 OA
ATOM     46  H1  UNL     1       6.161  58.217  21.078  1.00  0.00     0.209 HD
ENDBRANCH  44  45
ENDBRANCH  43  44
ENDBRANCH  32  43
ENDBRANCH   1  26
TORSDOF 14
ENDMDL
MODEL 4
REMARK VINA RESULT: -8.664468341      1.329      3.246
REMARK  14 active torsions:
REMARK  status: ('A' for Active; 'I' for Inactive)
REMARK    1  A    between atoms: N1_2  and  C2_4 
REMARK    2  A    between atoms: N3_8  and  C4_10 
REMARK    3  A    between atoms: C4_10  and  C5_11 
REMARK    4  A    between atoms: C5_11  and  O1_12 
REMARK    5  A    between atoms: C8_16  and  C9_17 
REMARK    6  A    between atoms: C10_18  and  C11_19 
REMARK    7  A    between atoms: C11_19  and  C13_21 
REMARK    8  A    between atoms: C11_19  and  C24_35 
REMARK    9  A    between atoms: C13_21  and  C14_22 
REMARK   10  A    between atoms: C17_25  and  N4_26 
REMARK   11  A    between atoms: N4_26  and  C19_28 
REMARK   12  A    between atoms: C19_28  and  C20_29 
REMARK   13  A    between atoms: C20_29  and  C21_30 
REMARK   14  A    between atoms: C21_30  and  N5_31 
ROOT
HETATM    1  C9  UNL     1      13.513  64.554  19.493  1.00  0.00    -0.066 C 
HETATM    2  C10 UNL     1      12.639  63.733  19.330  1.00  0.00    -0.084 C 
ENDROOT
BRANCH   2   3
HETATM    3  C11 UNL     1      11.562  62.742  19.062  1.00  0.00     0.070 C 
HETATM    4  C12 UNL     1      10.714  63.425  17.915  1.00  0.00     0.036 C 
BRANCH   3   5
HETATM    5  C13 UNL     1      12.133  61.578  18.410  1.00  0.00     0.093 C 
BRANCH   5   6
HETATM    6  C14 UNL     1      11.446  61.010  17.238  1.00  0.00     0.057 A 
HETATM    7  C15 UNL     1      11.833  60.833  15.938  1.00  0.00     0.037 A 
HETATM    8  C16 UNL     1      10.755  60.249  15.296  1.00  0.00     0.059 A 
HETATM    9  C17 UNL     1       9.740  60.093  16.252  1.00  0.00     0.145 A 
HETATM   10  O2  UNL     1      10.198  60.548  17.343  1.00  0.00    -0.298 OA
BRANCH   9  11
HETATM   11  N4  UNL     1       8.431  59.515  15.970  1.00  0.00    -0.366 N 
HETATM   12  C18 UNL     1       7.639  60.251  15.039  1.00  0.00     0.151 C 
BRANCH  11  13
HETATM   13  C19 UNL     1       8.025  58.294  16.567  1.00  0.00     0.126 C 
BRANCH  13  14
HETATM   14  C20 UNL     1       7.175  58.425  17.780  1.00  0.00     0.050 C 
BRANCH  14  15
HETATM   15  C21 UNL     1       7.856  58.332  19.103  1.00  0.00     0.273 C 
BRANCH  15  16
HETATM   16  N5  UNL     1       7.627  59.510  19.943  1.00  0.00     0.080 N 
HETATM   17  C22 UNL     1       6.682  59.158  20.991  1.00  0.00     0.309 C 
HETATM   18  C23 UNL     1       7.118  60.642  19.202  1.00  0.00     0.309 C 
ENDBRANCH  15  16
ENDBRANCH  14  15
ENDBRANCH  13  14
ENDBRANCH  11  13
ENDBRANCH   9  11
ENDBRANCH   5   6
ENDBRANCH   3   5
BRANCH   3  19
HETATM   19  C24 UNL     1      10.630  62.615  20.164  1.00  0.00     0.048 A 
HETATM   20  C25 UNL     1      10.474  61.516  20.984  1.00  0.00     0.116 A 
HETATM   21  N6  UNL     1       9.545  61.746  21.905  1.00  0.00    -0.360 N 
HETATM   22  C26 UNL     1       9.086  62.971  21.715  1.00  0.00     0.182 A 
ATOM     23  H6  UNL     1       9.241  61.095  22.629  1.00  0.00     0.166 HD
HETATM   24  N7  UNL     1       9.732  63.507  20.666  1.00  0.00    -0.348 N 
HETATM   25  C27 UNL     1       9.478  64.835  20.202  1.00  0.00     0.157 C 
ENDBRANCH   3  19
ENDBRANCH   2   3
BRANCH   1  26
HETATM   26  C8  UNL     1      14.540  65.550  19.618  1.00  0.00     0.018 A 
HETATM   27  C7  UNL     1      15.370  65.823  18.529  1.00  0.00     0.038 A 
HETATM   28  C6  UNL     1      16.386  66.741  18.574  1.00  0.00     0.037 A 
HETATM   29  C3  UNL     1      17.172  66.942  17.427  1.00  0.00     0.129 A 
HETATM   30  C30 UNL     1      16.640  67.438  19.697  1.00  0.00     0.063 A 
HETATM   31  N2  UNL     1      18.165  67.824  17.473  1.00  0.00    -0.176 N 
HETATM   32  N3  UNL     1      16.862  66.297  16.413  1.00  0.00    -0.373 N 
HETATM   33  C2  UNL     1      18.424  68.524  18.588  1.00  0.00     0.679 A 
ATOM     34  H2  UNL     1      18.741  67.972  16.643  1.00  0.00     0.186 HD
HETATM   35  N8  UNL     1      17.658  68.330  19.706  1.00  0.00    -0.191 N 
ATOM     36  H8  UNL     1      17.857  68.861  20.554  1.00  0.00     0.184 HD
ATOM     37  H3  UNL     1      16.074  65.673  16.585  1.00  0.00     0.161 HD
HETATM   38  C29 UNL     1      15.837  67.197  20.805  1.00  0.00     0.032 A 
HETATM   39  C28 UNL     1      14.797  66.255  20.743  1.00  0.00     0.023 A 
BRANCH  33  40
HETATM   40  N1  UNL     1      19.383  69.385  18.698  1.00  0.00    -0.230 N 
HETATM   41  C1  UNL     1      19.568  70.516  17.837  1.00  0.00     0.165 C 
ATOM     42  H1  UNL     1      20.057  69.249  19.451  1.00  0.00     0.177 HD
ENDBRANCH  33  40
BRANCH  32  43
HETATM   43  C4  UNL     1      17.323  66.208  15.086  1.00  0.00     0.147 C 
BRANCH  43  44
HETATM   44  C5  UNL     1      17.772  64.783  14.741  1.00  0.00     0.183 C 
BRANCH  44  45
HETATM   45  O1  UNL     1      18.855  64.480  15.555  1.00  0.00    -0.399 OA
ATOM     46  H1  UNL     1      18.663  63.656  15.988  1.00  0.00     0.209 HD
ENDBRANCH  44  45
ENDBRANCH  43  44
ENDBRANCH  32  43
ENDBRANCH   1  26
TORSDOF 14
ENDMDL
MODEL 5
REMARK VINA RESULT: -8.450136692      2.251     10.823
REMARK  14 active torsions:
REMARK  status: ('A' for Active; 'I' for Inactive)
REMARK    1  A    between atoms: N1_2  and  C2_4 
REMARK    2  A    between atoms: N3_8  and  C4_10 
REMARK    3  A    between atoms: C4_10  and  C5_11 
REMARK    4  A    between atoms: C5_11  and  O1_12 
REMARK    5  A    between atoms: C8_16  and  C9_17 
REMARK    6  A    between atoms: C10_18  and  C11_19 
REMARK    7  A    between atoms: C11_19  and  C13_21 
REMARK    8  A    between atoms: C11_19  and  C24_35 
REMARK    9  A    between atoms: C13_21  and  C14_22 
REMARK   10  A    between atoms: C17_25  and  N4_26 
REMARK   11  A    between atoms: N4_26  and  C19_28 
REMARK   12  A    between atoms: C19_28  and  C20_29 
REMARK   13  A    between atoms: C20_29  and  C21_30 
REMARK   14  A    between atoms: C21_30  and  N5_31 
ROOT
HETATM    1  C9  UNL     1      11.664  61.702  15.642  1.00  0.00    -0.066 C 
HETATM    2  C10 UNL     1      12.542  62.523  15.780  1.00  0.00    -0.084 C 
ENDROOT
BRANCH   2   3
HETATM    3  C11 UNL     1      13.575  63.583  15.936  1.00  0.00     0.070 C 
HETATM    4  C12 UNL     1      12.739  64.844  16.397  1.00  0.00     0.036 C 
BRANCH   3   5
HETATM    5  C13 UNL     1      14.397  63.283  17.095  1.00  0.00     0.093 C 
BRANCH   5   6
HETATM    6  C14 UNL     1      14.371  64.203  18.243  1.00  0.00     0.057 A 
HETATM    7  C15 UNL     1      13.927  64.062  19.529  1.00  0.00     0.037 A 
HETATM    8  C16 UNL     1      14.162  65.276  20.149  1.00  0.00     0.059 A 
HETATM    9  C17 UNL     1      14.750  66.120  19.196  1.00  0.00     0.145 A 
HETATM   10  O2  UNL     1      14.842  65.446  18.125  1.00  0.00    -0.298 OA
BRANCH   9  11
HETATM   11  N4  UNL     1      15.149  67.499  19.456  1.00  0.00    -0.366 N 
HETATM   12  C18 UNL     1      14.501  68.474  18.640  1.00  0.00     0.151 C 
BRANCH  11  13
HETATM   13  C19 UNL     1      16.086  67.811  20.474  1.00  0.00     0.126 C 
BRANCH  13  14
HETATM   14  C20 UNL     1      17.516  67.715  20.082  1.00  0.00     0.050 C 
BRANCH  14  15
HETATM   15  C21 UNL     1      18.025  68.718  19.102  1.00  0.00     0.273 C 
BRANCH  15  16
HETATM   16  N5  UNL     1      18.636  68.101  17.923  1.00  0.00     0.080 N 
HETATM   17  C22 UNL     1      18.318  68.910  16.757  1.00  0.00     0.309 C 
HETATM   18  C23 UNL     1      18.187  66.745  17.698  1.00  0.00     0.309 C 
ENDBRANCH  15  16
ENDBRANCH  14  15
ENDBRANCH  13  14
ENDBRANCH  11  13
ENDBRANCH   9  11
ENDBRANCH   5   6
ENDBRANCH   3   5
BRANCH   3  19
HETATM   19  C24 UNL     1      14.159  63.988  14.674  1.00  0.00     0.048 A 
HETATM   20  C25 UNL     1      13.513  64.059  13.456  1.00  0.00     0.116 A 
HETATM   21  N6  UNL     1      14.340  64.487  12.510  1.00  0.00    -0.360 N 
HETATM   22  C26 UNL     1      15.517  64.704  13.073  1.00  0.00     0.182 A 
ATOM     23  H6  UNL     1      14.110  64.625  11.526  1.00  0.00     0.166 HD
HETATM   24  N7  UNL     1      15.421  64.405  14.379  1.00  0.00    -0.348 N 
HETATM   25  C27 UNL     1      16.521  64.542  15.284  1.00  0.00     0.157 C 
ENDBRANCH   3  19
ENDBRANCH   2   3
BRANCH   1  26
HETATM   26  C8  UNL     1      10.578  60.781  15.460  1.00  0.00     0.018 A 
HETATM   27  C7  UNL     1       9.819  60.386  16.564  1.00  0.00     0.038 A 
HETATM   28  C6  UNL     1       8.782  59.495  16.479  1.00  0.00     0.037 A 
HETATM   29  C3  UNL     1       8.080  59.154  17.647  1.00  0.00     0.129 A 
HETATM   30  C30 UNL     1       8.438  58.943  15.301  1.00  0.00     0.063 A 
HETATM   31  N2  UNL     1       7.081  58.282  17.569  1.00  0.00    -0.176 N 
HETATM   32  N3  UNL     1       8.421  59.727  18.695  1.00  0.00    -0.373 N 
HETATM   33  C2  UNL     1       6.732  57.727  16.397  1.00  0.00     0.679 A 
ATOM     34  H2  UNL     1       6.570  58.029  18.415  1.00  0.00     0.186 HD
HETATM   35  N8  UNL     1       7.414  58.059  15.258  1.00  0.00    -0.191 N 
ATOM     36  H8  UNL     1       7.148  57.636  14.368  1.00  0.00     0.184 HD
ATOM     37  H3  UNL     1       9.209  60.358  18.545  1.00  0.00     0.161 HD
HETATM   38  C29 UNL     1       9.168  59.309  14.176  1.00  0.00     0.032 A 
HETATM   39  C28 UNL     1      10.227  60.226  14.278  1.00  0.00     0.023 A 
BRANCH  33  40
HETATM   40  N1  UNL     1       5.779  56.864  16.259  1.00  0.00    -0.230 N 
HETATM   41  C1  UNL     1       5.597  56.023  15.113  1.00  0.00     0.165 C 
ATOM     42  H1  UNL     1       5.108  56.775  17.022  1.00  0.00     0.177 HD
ENDBRANCH  33  40
BRANCH  32  43
HETATM   43  C4  UNL     1       7.995  59.727  20.037  1.00  0.00     0.147 C 
BRANCH  43  44
HETATM   44  C5  UNL     1       8.679  60.838  20.844  1.00  0.00     0.183 C 
BRANCH  44  45
HETATM   45  O1  UNL     1       9.938  61.035  20.294  1.00  0.00    -0.399 OA
ATOM     46  H1  UNL     1      10.562  61.051  21.011  1.00  0.00     0.209 HD
ENDBRANCH  44  45
ENDBRANCH  43  44
ENDBRANCH  32  43
ENDBRANCH   1  26
TORSDOF 14
ENDMDL
