MODEL 1
REMARK VINA RESULT: -8.159870546      0.000      0.000
REMARK  1 active torsions:
REMARK  status: ('A' for Active; 'I' for Inactive)
REMARK    1  A    between atoms: N6_14  and  N7_16 
ROOT
HETATM    1  N1  UNL     1      34.916  23.662  32.129  1.00  0.00    -0.382 N 
ATOM      2  H11 UNL     1      35.708  23.796  32.758  1.00  0.00     0.157 HD
ATOM      3  H12 UNL     1      34.615  24.240  31.344  1.00  0.00     0.157 HD
HETATM    4  C1  UNL     1      34.200  22.620  32.359  1.00  0.00     0.156 C 
HETATM    5  N2  UNL     1      33.157  22.444  31.533  1.00  0.00    -0.312 N 
ATOM      6  H2  UNL     1      33.053  23.131  30.786  1.00  0.00     0.170 HD
HETATM    7  C2  UNL     1      32.224  21.455  31.576  1.00  0.00     0.208 C 
HETATM    8  N3  UNL     1      31.039  21.688  30.837  1.00  0.00    -0.062 NA
HETATM    9  N4  UNL     1      32.332  20.288  32.253  1.00  0.00    -0.272 N 
ATOM     10  H4  UNL     1      31.841  19.500  31.831  1.00  0.00     0.189 HD
HETATM   11  N5  UNL     1      32.982  20.003  33.390  1.00  0.00    -0.279 N 
ATOM     12  H5  UNL     1      32.623  19.222  33.939  1.00  0.00     0.189 HD
HETATM   13  C3  UNL     1      34.058  20.640  33.879  1.00  0.00     0.189 C 
HETATM   14  N6  UNL     1      34.644  20.094  34.868  1.00  0.00    -0.288 N 
ATOM     15  H6  UNL     1      34.249  19.217  35.208  1.00  0.00     0.188 HD
HETATM   16  C4  UNL     1      34.608  21.833  33.427  1.00  0.00     0.261 C 
HETATM   17  O1  UNL     1      35.597  22.273  34.044  1.00  0.00    -0.280 OA
ENDROOT
BRANCH  14  18
HETATM   18  N7  UNL     1      35.754  20.567  35.522  1.00  0.00    -0.343 N 
ATOM     19  H72 UNL     1      36.068  20.010  36.316  1.00  0.00     0.176 HD
ATOM     20  H71 UNL     1      36.283  21.407  35.290  1.00  0.00     0.176 HD
ENDBRANCH  14  18
TORSDOF 1
ENDMDL
MODEL 2
REMARK VINA RESULT: -7.969801520      1.576      1.616
REMARK  1 active torsions:
REMARK  status: ('A' for Active; 'I' for Inactive)
REMARK    1  A    between atoms: N6_14  and  N7_16 
ROOT
HETATM    1  N1  UNL     1      34.351  23.391  30.744  1.00  0.00    -0.382 N 
ATOM      2  H11 UNL     1      35.319  23.085  30.846  1.00  0.00     0.157 HD
ATOM      3  H12 UNL     1      33.952  24.037  30.063  1.00  0.00     0.157 HD
HETATM    4  C1  UNL     1      33.523  22.892  31.590  1.00  0.00     0.156 C 
HETATM    5  N2  UNL     1      32.251  23.295  31.457  1.00  0.00    -0.312 N 
ATOM      6  H2  UNL     1      32.057  23.929  30.681  1.00  0.00     0.170 HD
HETATM    7  C2  UNL     1      31.188  22.956  32.237  1.00  0.00     0.208 C 
HETATM    8  N3  UNL     1      30.044  23.782  32.118  1.00  0.00    -0.062 NA
HETATM    9  N4  UNL     1      31.135  21.914  33.099  1.00  0.00    -0.272 N 
ATOM     10  H4  UNL     1      30.207  21.507  33.223  1.00  0.00     0.189 HD
HETATM   11  N5  UNL     1      32.106  21.331  33.815  1.00  0.00    -0.279 N 
ATOM     12  H5  UNL     1      31.823  20.865  34.677  1.00  0.00     0.189 HD
HETATM   13  C3  UNL     1      33.414  21.299  33.514  1.00  0.00     0.189 C 
HETATM   14  N6  UNL     1      34.142  20.530  34.218  1.00  0.00    -0.288 N 
ATOM     15  H6  UNL     1      33.674  20.000  34.953  1.00  0.00     0.188 HD
HETATM   16  C4  UNL     1      34.067  22.014  32.517  1.00  0.00     0.261 C 
HETATM   17  O1  UNL     1      35.300  21.862  32.423  1.00  0.00    -0.280 OA
ENDROOT
BRANCH  14  18
HETATM   18  N7  UNL     1      35.496  20.341  34.087  1.00  0.00    -0.343 N 
ATOM     19  H72 UNL     1      35.983  21.026  33.509  1.00  0.00     0.176 HD
ATOM     20  H71 UNL     1      36.048  19.592  34.506  1.00  0.00     0.176 HD
ENDBRANCH  14  18
TORSDOF 1
ENDMDL
MODEL 3
REMARK VINA RESULT: -7.910542035      1.310      1.406
REMARK  1 active torsions:
REMARK  status: ('A' for Active; 'I' for Inactive)
REMARK    1  A    between atoms: N6_14  and  N7_16 
ROOT
HETATM    1  N1  UNL     1      34.570  23.808  30.821  1.00  0.00    -0.382 N 
ATOM      2  H11 UNL     1      35.250  24.428  31.260  1.00  0.00     0.157 HD
ATOM      3  H12 UNL     1      34.215  23.821  29.864  1.00  0.00     0.157 HD
HETATM    4  C1  UNL     1      34.097  22.883  31.577  1.00  0.00     0.156 C 
HETATM    5  N2  UNL     1      33.203  22.067  30.999  1.00  0.00    -0.312 N 
ATOM      6  H2  UNL     1      33.009  22.237  30.012  1.00  0.00     0.170 HD
HETATM    7  C2  UNL     1      32.524  21.039  31.577  1.00  0.00     0.208 C 
HETATM    8  N3  UNL     1      31.388  20.572  30.872  1.00  0.00    -0.062 NA
HETATM    9  N4  UNL     1      32.839  20.437  32.748  1.00  0.00    -0.272 N 
ATOM     10  H4  UNL     1      32.583  19.451  32.805  1.00  0.00     0.189 HD
HETATM   11  N5  UNL     1      33.433  20.929  33.844  1.00  0.00    -0.279 N 
ATOM     12  H5  UNL     1      33.217  20.469  34.728  1.00  0.00     0.189 HD
HETATM   13  C3  UNL     1      34.284  21.967  33.896  1.00  0.00     0.189 C 
HETATM   14  N6  UNL     1      34.889  22.153  34.999  1.00  0.00    -0.288 N 
ATOM     15  H6  UNL     1      34.679  21.499  35.754  1.00  0.00     0.188 HD
HETATM   16  C4  UNL     1      34.580  22.865  32.878  1.00  0.00     0.261 C 
HETATM   17  O1  UNL     1      35.380  23.782  33.145  1.00  0.00    -0.280 OA
ENDROOT
BRANCH  14  18
HETATM   18  N7  UNL     1      35.796  23.145  35.276  1.00  0.00    -0.343 N 
ATOM     19  H72 UNL     1      35.543  24.078  34.949  1.00  0.00     0.176 HD
ATOM     20  H71 UNL     1      36.683  23.037  35.768  1.00  0.00     0.176 HD
ENDBRANCH  14  18
TORSDOF 1
ENDMDL
MODEL 4
REMARK VINA RESULT: -7.898110985      2.221      3.472
REMARK  1 active torsions:
REMARK  status: ('A' for Active; 'I' for Inactive)
REMARK    1  A    between atoms: N6_14  and  N7_16 
ROOT
HETATM    1  N1  UNL     1      32.444  20.622  34.036  1.00  0.00    -0.382 N 
ATOM      2  H11 UNL     1      33.179  19.915  34.036  1.00  0.00     0.157 HD
ATOM      3  H12 UNL     1      31.729  20.803  34.741  1.00  0.00     0.157 HD
HETATM    4  C1  UNL     1      32.417  21.389  33.006  1.00  0.00     0.156 C 
HETATM    5  N2  UNL     1      31.450  22.319  33.005  1.00  0.00    -0.312 N 
ATOM      6  H2  UNL     1      30.853  22.349  33.832  1.00  0.00     0.170 HD
HETATM    7  C2  UNL     1      31.173  23.226  32.029  1.00  0.00     0.208 C 
HETATM    8  N3  UNL     1      29.901  23.843  32.099  1.00  0.00    -0.062 NA
HETATM    9  N4  UNL     1      31.999  23.581  31.016  1.00  0.00    -0.272 N 
ATOM     10  H4  UNL     1      31.888  24.542  30.690  1.00  0.00     0.189 HD
HETATM   11  N5  UNL     1      32.937  22.873  30.374  1.00  0.00    -0.279 N 
ATOM     12  H5  UNL     1      33.150  23.154  29.417  1.00  0.00     0.189 HD
HETATM   13  C3  UNL     1      33.628  21.829  30.862  1.00  0.00     0.189 C 
HETATM   14  N6  UNL     1      34.610  21.419  30.166  1.00  0.00    -0.288 N 
ATOM     15  H6  UNL     1      34.794  21.916  29.295  1.00  0.00     0.188 HD
HETATM   16  C4  UNL     1      33.390  21.142  32.047  1.00  0.00     0.261 C 
HETATM   17  O1  UNL     1      34.134  20.176  32.303  1.00  0.00    -0.280 OA
ENDROOT
BRANCH  14  18
HETATM   18  N7  UNL     1      35.448  20.375  30.471  1.00  0.00    -0.343 N 
ATOM     19  H72 UNL     1      36.252  20.260  29.854  1.00  0.00     0.176 HD
ATOM     20  H71 UNL     1      35.341  19.717  31.243  1.00  0.00     0.176 HD
ENDBRANCH  14  18
TORSDOF 1
ENDMDL
MODEL 5
REMARK VINA RESULT: -7.781962805      1.741      1.891
REMARK  1 active torsions:
REMARK  status: ('A' for Active; 'I' for Inactive)
REMARK    1  A    between atoms: N6_14  and  N7_16 
ROOT
HETATM    1  N1  UNL     1      35.106  20.210  30.509  1.00  0.00    -0.382 N 
ATOM      2  H11 UNL     1      35.828  19.692  31.007  1.00  0.00     0.157 HD
ATOM      3  H12 UNL     1      34.981  20.329  29.503  1.00  0.00     0.157 HD
HETATM    4  C1  UNL     1      34.232  20.791  31.251  1.00  0.00     0.156 C 
HETATM    5  N2  UNL     1      33.282  21.473  30.594  1.00  0.00    -0.312 N 
ATOM      6  H2  UNL     1      33.323  21.438  29.576  1.00  0.00     0.170 HD
HETATM    7  C2  UNL     1      32.268  22.206  31.131  1.00  0.00     0.208 C 
HETATM    8  N3  UNL     1      31.627  23.112  30.253  1.00  0.00    -0.062 NA
HETATM    9  N4  UNL     1      31.829  22.140  32.410  1.00  0.00    -0.272 N 
ATOM     10  H4  UNL     1      30.837  22.341  32.533  1.00  0.00     0.189 HD
HETATM   11  N5  UNL     1      32.491  21.852  33.539  1.00  0.00    -0.279 N 
ATOM     12  H5  UNL     1      32.114  22.242  34.403  1.00  0.00     0.189 HD
HETATM   13  C3  UNL     1      33.599  21.102  33.650  1.00  0.00     0.189 C 
HETATM   14  N6  UNL     1      33.959  20.786  34.828  1.00  0.00    -0.288 N 
ATOM     15  H6  UNL     1      33.377  21.128  35.593  1.00  0.00     0.188 HD
HETATM   16  C4  UNL     1      34.402  20.629  32.618  1.00  0.00     0.261 C 
HETATM   17  O1  UNL     1      35.410  19.971  32.939  1.00  0.00    -0.280 OA
ENDROOT
BRANCH  14  18
HETATM   18  N7  UNL     1      35.053  20.031  35.173  1.00  0.00    -0.343 N 
ATOM     19  H72 UNL     1      35.960  20.444  34.956  1.00  0.00     0.176 HD
ATOM     20  H71 UNL     1      35.041  19.114  35.618  1.00  0.00     0.176 HD
ENDBRANCH  14  18
TORSDOF 1
ENDMDL
