MODEL 1
REMARK VINA RESULT: -8.149370638      0.000      0.000
REMARK  3 active torsions:
REMARK  status: ('A' for Active; 'I' for Inactive)
REMARK    1  A    between atoms: N4_12  and  N5_14 
REMARK    2  A    between atoms: C4_17  and  N6_18 
REMARK    3  A    between atoms: N6_18  and  N7_20 
ROOT
HETATM    1  N1  UNL     1      33.456  22.937  29.806  1.00  0.00    -0.234 N 
ATOM      2  H11 UNL     1      32.820  22.333  29.286  1.00  0.00     0.174 HD
ATOM      3  H12 UNL     1      33.885  23.801  29.476  1.00  0.00     0.174 HD
HETATM    4  C1  UNL     1      33.740  22.561  31.002  1.00  0.00     0.681 C 
HETATM    5  N2  UNL     1      34.593  23.371  31.698  1.00  0.00    -0.141 N 
ATOM      6  H2  UNL     1      34.924  24.178  31.169  1.00  0.00     0.189 HD
HETATM    7  C2  UNL     1      35.073  23.302  32.946  1.00  0.00     0.340 C 
HETATM    8  O1  UNL     1      35.721  24.274  33.349  1.00  0.00    -0.246 OA
HETATM    9  N3  UNL     1      34.922  22.267  33.823  1.00  0.00    -0.290 N 
ATOM     10  H3  UNL     1      35.345  22.394  34.743  1.00  0.00     0.172 HD
HETATM   11  C3  UNL     1      34.286  21.103  33.623  1.00  0.00     0.170 C 
HETATM   12  N4  UNL     1      34.596  20.144  34.389  1.00  0.00    -0.289 N 
ATOM     13  H4  UNL     1      34.146  19.234  34.285  1.00  0.00     0.188 HD
HETATM   14  C4  UNL     1      33.345  20.860  32.666  1.00  0.00     0.181 C 
HETATM   15  N8  UNL     1      33.176  21.426  31.435  1.00  0.00    -0.172 N 
ATOM     16  H8  UNL     1      32.562  20.939  30.783  1.00  0.00     0.186 HD
ENDROOT
BRANCH  12  17
HETATM   17  N5  UNL     1      35.560  20.346  35.378  1.00  0.00    -0.344 N 
ATOM     18  H52 UNL     1      35.332  20.918  36.191  1.00  0.00     0.176 HD
ATOM     19  H51 UNL     1      36.480  19.918  35.271  1.00  0.00     0.176 HD
ENDBRANCH  12  17
BRANCH  14  20
HETATM   20  N6  UNL     1      32.477  19.978  32.940  1.00  0.00    -0.288 N 
ATOM     21  H6  UNL     1      32.455  19.577  33.877  1.00  0.00     0.188 HD
BRANCH  20  22
HETATM   22  N7  UNL     1      31.559  19.548  32.004  1.00  0.00    -0.344 N 
ATOM     23  H72 UNL     1      31.848  18.825  31.345  1.00  0.00     0.176 HD
ATOM     24  H71 UNL     1      30.616  19.933  31.962  1.00  0.00     0.176 HD
ENDBRANCH  20  22
ENDBRANCH  14  20
TORSDOF 3
ENDMDL
MODEL 2
REMARK VINA RESULT: -7.473983801      1.373      3.318
REMARK  3 active torsions:
REMARK  status: ('A' for Active; 'I' for Inactive)
REMARK    1  A    between atoms: N4_12  and  N5_14 
REMARK    2  A    between atoms: C4_17  and  N6_18 
REMARK    3  A    between atoms: N6_18  and  N7_20 
ROOT
HETATM    1  N1  UNL     1      35.757  24.347  33.412  1.00  0.00    -0.234 N 
ATOM      2  H11 UNL     1      36.073  24.358  34.382  1.00  0.00     0.174 HD
ATOM      3  H12 UNL     1      35.908  25.072  32.712  1.00  0.00     0.174 HD
HETATM    4  C1  UNL     1      35.101  23.305  33.045  1.00  0.00     0.681 C 
HETATM    5  N2  UNL     1      34.677  23.290  31.745  1.00  0.00    -0.141 N 
ATOM      6  H2  UNL     1      34.918  24.132  31.221  1.00  0.00     0.189 HD
HETATM    7  C2  UNL     1      34.006  22.376  31.033  1.00  0.00     0.340 C 
HETATM    8  O1  UNL     1      33.892  22.587  29.821  1.00  0.00    -0.246 OA
HETATM    9  N3  UNL     1      33.431  21.233  31.507  1.00  0.00    -0.290 N 
ATOM     10  H3  UNL     1      32.971  20.642  30.814  1.00  0.00     0.172 HD
HETATM   11  C3  UNL     1      33.397  20.791  32.774  1.00  0.00     0.170 C 
HETATM   12  N4  UNL     1      32.499  19.946  33.060  1.00  0.00    -0.289 N 
ATOM     13  H4  UNL     1      32.423  19.574  34.006  1.00  0.00     0.188 HD
HETATM   14  C4  UNL     1      34.237  21.174  33.778  1.00  0.00     0.181 C 
HETATM   15  N8  UNL     1      34.902  22.352  33.965  1.00  0.00    -0.172 N 
ATOM     16  H8  UNL     1      35.286  22.522  34.894  1.00  0.00     0.186 HD
ENDROOT
BRANCH  12  17
HETATM   17  N5  UNL     1      31.612  19.531  32.064  1.00  0.00    -0.344 N 
ATOM     18  H52 UNL     1      31.501  20.099  31.224  1.00  0.00     0.176 HD
ATOM     19  H51 UNL     1      31.089  18.665  32.193  1.00  0.00     0.176 HD
ENDBRANCH  12  17
BRANCH  14  20
HETATM   20  N6  UNL     1      34.454  20.321  34.688  1.00  0.00    -0.288 N 
ATOM     21  H6  UNL     1      33.744  19.616  34.889  1.00  0.00     0.188 HD
BRANCH  20  22
HETATM   22  N7  UNL     1      35.626  20.318  35.416  1.00  0.00    -0.344 N 
ATOM     23  H72 UNL     1      35.560  20.369  36.433  1.00  0.00     0.176 HD
ATOM     24  H71 UNL     1      36.539  20.267  34.963  1.00  0.00     0.176 HD
ENDBRANCH  20  22
ENDBRANCH  14  20
TORSDOF 3
ENDMDL
MODEL 3
REMARK VINA RESULT: -7.370780049      1.590      3.636
REMARK  3 active torsions:
REMARK  status: ('A' for Active; 'I' for Inactive)
REMARK    1  A    between atoms: N4_12  and  N5_14 
REMARK    2  A    between atoms: C4_17  and  N6_18 
REMARK    3  A    between atoms: N6_18  and  N7_20 
ROOT
HETATM    1  N1  UNL     1      34.468  19.982  34.713  1.00  0.00    -0.234 N 
ATOM      2  H11 UNL     1      34.095  19.169  34.224  1.00  0.00     0.174 HD
ATOM      3  H12 UNL     1      34.684  20.053  35.707  1.00  0.00     0.174 HD
HETATM    4  C1  UNL     1      34.685  21.023  33.990  1.00  0.00     0.681 C 
HETATM    5  N2  UNL     1      35.185  22.114  34.646  1.00  0.00    -0.141 N 
ATOM      6  H2  UNL     1      35.307  21.976  35.649  1.00  0.00     0.189 HD
HETATM    7  C2  UNL     1      35.545  23.329  34.214  1.00  0.00     0.340 C 
HETATM    8  O1  UNL     1      36.106  24.067  35.031  1.00  0.00    -0.246 OA
HETATM    9  N3  UNL     1      35.356  23.841  32.964  1.00  0.00    -0.290 N 
ATOM     10  H3  UNL     1      35.710  24.785  32.808  1.00  0.00     0.172 HD
HETATM   11  C3  UNL     1      34.759  23.255  31.914  1.00  0.00     0.170 C 
HETATM   12  N4  UNL     1      34.336  24.018  30.998  1.00  0.00    -0.289 N 
ATOM     13  H4  UNL     1      33.874  23.631  30.175  1.00  0.00     0.188 HD
HETATM   14  C4  UNL     1      34.563  21.915  31.752  1.00  0.00     0.181 C 
HETATM   15  N8  UNL     1      34.402  20.931  32.685  1.00  0.00    -0.172 N 
ATOM     16  H8  UNL     1      34.031  20.039  32.356  1.00  0.00     0.186 HD
ENDROOT
BRANCH  12  17
HETATM   17  N5  UNL     1      34.509  25.398  31.127  1.00  0.00    -0.344 N 
ATOM     18  H52 UNL     1      34.808  25.783  32.022  1.00  0.00     0.176 HD
ATOM     19  H51 UNL     1      34.334  25.999  30.321  1.00  0.00     0.176 HD
ENDBRANCH  12  17
BRANCH  14  20
HETATM   20  N6  UNL     1      34.525  21.491  30.558  1.00  0.00    -0.288 N 
ATOM     21  H6  UNL     1      35.024  22.005  29.832  1.00  0.00     0.188 HD
BRANCH  20  22
HETATM   22  N7  UNL     1      33.827  20.352  30.215  1.00  0.00    -0.344 N 
ATOM     23  H72 UNL     1      34.154  19.458  30.582  1.00  0.00     0.176 HD
ATOM     24  H71 UNL     1      33.005  20.388  29.611  1.00  0.00     0.176 HD
ENDBRANCH  20  22
ENDBRANCH  14  20
TORSDOF 3
ENDMDL
MODEL 4
REMARK VINA RESULT: -7.353927393      1.690      3.508
REMARK  3 active torsions:
REMARK  status: ('A' for Active; 'I' for Inactive)
REMARK    1  A    between atoms: N4_12  and  N5_14 
REMARK    2  A    between atoms: C4_17  and  N6_18 
REMARK    3  A    between atoms: N6_18  and  N7_20 
ROOT
HETATM    1  N1  UNL     1      31.494  19.644  31.648  1.00  0.00    -0.234 N 
ATOM      2  H11 UNL     1      30.965  19.894  30.813  1.00  0.00     0.174 HD
ATOM      3  H12 UNL     1      31.312  18.861  32.276  1.00  0.00     0.174 HD
HETATM    4  C1  UNL     1      32.493  20.402  31.931  1.00  0.00     0.681 C 
HETATM    5  N2  UNL     1      33.202  20.067  33.050  1.00  0.00    -0.141 N 
ATOM      6  H2  UNL     1      32.834  19.256  33.548  1.00  0.00     0.189 HD
HETATM    7  C2  UNL     1      34.290  20.606  33.615  1.00  0.00     0.340 C 
HETATM    8  O1  UNL     1      34.794  19.987  34.558  1.00  0.00    -0.246 OA
HETATM    9  N3  UNL     1      34.902  21.772  33.258  1.00  0.00    -0.290 N 
ATOM     10  H3  UNL     1      35.735  22.022  33.792  1.00  0.00     0.172 HD
HETATM   11  C3  UNL     1      34.543  22.630  32.291  1.00  0.00     0.170 C 
HETATM   12  N4  UNL     1      34.986  23.812  32.382  1.00  0.00    -0.289 N 
ATOM     13  H4  UNL     1      34.747  24.509  31.677  1.00  0.00     0.188 HD
HETATM   14  C4  UNL     1      33.739  22.345  31.227  1.00  0.00     0.181 C 
HETATM   15  N8  UNL     1      32.732  21.430  31.106  1.00  0.00    -0.172 N 
ATOM     16  H8  UNL     1      32.102  21.540  30.312  1.00  0.00     0.186 HD
ENDROOT
BRANCH  12  17
HETATM   17  N5  UNL     1      35.806  24.151  33.460  1.00  0.00    -0.344 N 
ATOM     18  H52 UNL     1      35.389  24.546  34.302  1.00  0.00     0.176 HD
ATOM     19  H51 UNL     1      36.812  23.996  33.388  1.00  0.00     0.176 HD
ENDBRANCH  12  17
BRANCH  14  20
HETATM   20  N6  UNL     1      33.941  23.015  30.171  1.00  0.00    -0.288 N 
ATOM     21  H6  UNL     1      33.558  23.958  30.100  1.00  0.00     0.188 HD
BRANCH  20  22
HETATM   22  N7  UNL     1      34.666  22.505  29.115  1.00  0.00    -0.344 N 
ATOM     23  H72 UNL     1      34.496  21.538  28.837  1.00  0.00     0.176 HD
ATOM     24  H71 UNL     1      35.357  23.067  28.617  1.00  0.00     0.176 HD
ENDBRANCH  20  22
ENDBRANCH  14  20
TORSDOF 3
ENDMDL
MODEL 5
REMARK VINA RESULT: -7.324035204      2.028      4.253
REMARK  3 active torsions:
REMARK  status: ('A' for Active; 'I' for Inactive)
REMARK    1  A    between atoms: N4_12  and  N5_14 
REMARK    2  A    between atoms: C4_17  and  N6_18 
REMARK    3  A    between atoms: N6_18  and  N7_20 
ROOT
HETATM    1  N1  UNL     1      35.805  24.082  35.102  1.00  0.00    -0.234 N 
ATOM      2  H11 UNL     1      36.257  24.942  34.794  1.00  0.00     0.174 HD
ATOM      3  H12 UNL     1      35.792  23.703  36.049  1.00  0.00     0.174 HD
HETATM    4  C1  UNL     1      35.191  23.411  34.194  1.00  0.00     0.681 C 
HETATM    5  N2  UNL     1      34.586  22.258  34.607  1.00  0.00    -0.141 N 
ATOM      6  H2  UNL     1      34.715  22.052  35.597  1.00  0.00     0.189 HD
HETATM    7  C2  UNL     1      33.854  21.347  33.951  1.00  0.00     0.340 C 
HETATM    8  O1  UNL     1      33.311  20.472  34.634  1.00  0.00    -0.246 OA
HETATM    9  N3  UNL     1      33.644  21.284  32.604  1.00  0.00    -0.290 N 
ATOM     10  H3  UNL     1      33.042  20.527  32.280  1.00  0.00     0.172 HD
HETATM   11  C3  UNL     1      34.133  22.096  31.655  1.00  0.00     0.170 C 
HETATM   12  N4  UNL     1      34.153  21.645  30.472  1.00  0.00    -0.289 N 
ATOM     13  H4  UNL     1      34.513  22.215  29.708  1.00  0.00     0.188 HD
HETATM   14  C4  UNL     1      34.617  23.356  31.851  1.00  0.00     0.181 C 
HETATM   15  N8  UNL     1      35.207  23.909  32.950  1.00  0.00    -0.172 N 
ATOM     16  H8  UNL     1      35.710  24.786  32.812  1.00  0.00     0.186 HD
ENDROOT
BRANCH  12  17
HETATM   17  N5  UNL     1      33.675  20.356  30.227  1.00  0.00    -0.344 N 
ATOM     18  H52 UNL     1      33.380  19.774  31.010  1.00  0.00     0.176 HD
ATOM     19  H51 UNL     1      33.628  20.017  29.266  1.00  0.00     0.176 HD
ENDBRANCH  12  17
BRANCH  14  20
HETATM   20  N6  UNL     1      34.507  24.160  30.878  1.00  0.00    -0.288 N 
ATOM     21  H6  UNL     1      34.392  23.787  29.935  1.00  0.00     0.188 HD
BRANCH  20  22
HETATM   22  N7  UNL     1      34.540  25.527  31.058  1.00  0.00    -0.344 N 
ATOM     23  H72 UNL     1      35.025  26.093  30.362  1.00  0.00     0.176 HD
ATOM     24  H71 UNL     1      34.096  25.973  31.861  1.00  0.00     0.176 HD
ENDBRANCH  20  22
ENDBRANCH  14  20
TORSDOF 3
ENDMDL
