MODEL 1
REMARK VINA RESULT: -8.764874419      0.000      0.000
REMARK  1 active torsions:
REMARK  status: ('A' for Active; 'I' for Inactive)
REMARK    1  A    between atoms: N8_20  and  N9_21 
ROOT
HETATM    1  N1  UNL     1      31.610  19.691  32.071  1.00  0.00    -0.232 N 
ATOM      2  H11 UNL     1      31.550  19.526  33.076  1.00  0.00     0.174 HD
ATOM      3  H12 UNL     1      31.156  19.286  31.253  1.00  0.00     0.174 HD
HETATM    4  C1  UNL     1      32.444  20.617  31.768  1.00  0.00     0.711 C 
HETATM    5  N2  UNL     1      32.528  20.847  30.371  1.00  0.00    -0.113 N 
ATOM      6  H2  UNL     1      31.718  20.487  29.867  1.00  0.00     0.203 HD
HETATM    7  N3  UNL     1      33.457  21.451  29.524  1.00  0.00     0.008 NA
HETATM    8  N4  UNL     1      33.735  22.766  29.844  1.00  0.00    -0.224 N 
ATOM      9  H4  UNL     1      33.303  23.439  29.211  1.00  0.00     0.205 HD
HETATM   10  N5  UNL     1      34.486  23.357  30.858  1.00  0.00    -0.269 N 
ATOM     11  H5  UNL     1      35.070  24.121  30.517  1.00  0.00     0.190 HD
HETATM   12  C2  UNL     1      34.617  23.165  32.126  1.00  0.00     0.172 A 
HETATM   13  N6  UNL     1      35.508  23.987  32.872  1.00  0.00    -0.290 N 
ATOM     14  H6  UNL     1      36.081  24.745  32.501  1.00  0.00     0.172 HD
HETATM   15  C3  UNL     1      35.456  23.561  34.228  1.00  0.00     0.327 A 
HETATM   16  O1  UNL     1      36.116  24.064  35.175  1.00  0.00    -0.247 OA
HETATM   17  N7  UNL     1      34.518  22.471  34.279  1.00  0.00    -0.289 N 
ATOM     18  H7  UNL     1      34.270  21.958  35.125  1.00  0.00     0.172 HD
HETATM   19  C4  UNL     1      34.039  22.232  33.122  1.00  0.00     0.194 A 
HETATM   20  N8  UNL     1      33.087  21.192  32.930  1.00  0.00    -0.072 N 
ENDROOT
BRANCH  20  21
HETATM   21  N9  UNL     1      32.715  20.625  34.145  1.00  0.00    -0.322 N 
ATOM     22  H92 UNL     1      31.900  21.099  34.535  1.00  0.00     0.178 HD
ATOM     23  H91 UNL     1      33.297  19.846  34.451  1.00  0.00     0.178 HD
ENDBRANCH  20  21
TORSDOF 1
ENDMDL
MODEL 2
REMARK VINA RESULT: -8.646372725      2.557      4.971
REMARK  1 active torsions:
REMARK  status: ('A' for Active; 'I' for Inactive)
REMARK    1  A    between atoms: N8_20  and  N9_21 
ROOT
HETATM    1  N1  UNL     1      35.752  24.223  34.798  1.00  0.00    -0.232 N 
ATOM      2  H11 UNL     1      35.544  24.933  34.097  1.00  0.00     0.174 HD
ATOM      3  H12 UNL     1      36.144  24.241  35.739  1.00  0.00     0.174 HD
HETATM    4  C1  UNL     1      35.456  23.037  34.408  1.00  0.00     0.711 C 
HETATM    5  N2  UNL     1      35.745  22.048  35.383  1.00  0.00    -0.113 N 
ATOM      6  H2  UNL     1      35.838  22.440  36.320  1.00  0.00     0.203 HD
HETATM    7  N3  UNL     1      35.933  20.666  35.362  1.00  0.00     0.008 NA
HETATM    8  N4  UNL     1      34.861  19.964  34.843  1.00  0.00    -0.224 N 
ATOM      9  H4  UNL     1      34.305  19.486  35.552  1.00  0.00     0.205 HD
HETATM   10  N5  UNL     1      34.388  19.779  33.545  1.00  0.00    -0.269 N 
ATOM     11  H5  UNL     1      34.124  18.810  33.361  1.00  0.00     0.190 HD
HETATM   12  C2  UNL     1      34.205  20.542  32.523  1.00  0.00     0.172 A 
HETATM   13  N6  UNL     1      33.687  19.990  31.318  1.00  0.00    -0.290 N 
ATOM     14  H6  UNL     1      33.433  19.014  31.163  1.00  0.00     0.172 HD
HETATM   15  C3  UNL     1      33.588  21.043  30.367  1.00  0.00     0.327 A 
HETATM   16  O1  UNL     1      33.168  20.921  29.187  1.00  0.00    -0.247 OA
HETATM   17  N7  UNL     1      34.055  22.234  31.026  1.00  0.00    -0.289 N 
ATOM     18  H7  UNL     1      34.101  23.156  30.593  1.00  0.00     0.172 HD
HETATM   19  C4  UNL     1      34.403  21.980  32.226  1.00  0.00     0.194 A 
HETATM   20  N8  UNL     1      34.900  23.011  33.072  1.00  0.00    -0.072 N 
ENDROOT
BRANCH  20  21
HETATM   21  N9  UNL     1      34.818  24.251  32.448  1.00  0.00    -0.322 N 
ATOM     22  H92 UNL     1      33.848  24.496  32.247  1.00  0.00     0.178 HD
ATOM     23  H91 UNL     1      35.713  24.714  32.292  1.00  0.00     0.178 HD
ENDBRANCH  20  21
TORSDOF 1
ENDMDL
MODEL 3
REMARK VINA RESULT: -8.573778395      2.527      4.275
REMARK  1 active torsions:
REMARK  status: ('A' for Active; 'I' for Inactive)
REMARK    1  A    between atoms: N8_20  and  N9_21 
ROOT
HETATM    1  N1  UNL     1      35.626  20.781  35.757  1.00  0.00    -0.232 N 
ATOM      2  H11 UNL     1      35.373  19.818  35.533  1.00  0.00     0.174 HD
ATOM      3  H12 UNL     1      36.022  21.244  36.575  1.00  0.00     0.174 HD
HETATM    4  C1  UNL     1      35.394  21.593  34.791  1.00  0.00     0.711 C 
HETATM    5  N2  UNL     1      35.746  22.932  35.102  1.00  0.00    -0.113 N 
ATOM      6  H2  UNL     1      36.397  22.992  35.884  1.00  0.00     0.203 HD
HETATM    7  N3  UNL     1      35.412  24.185  34.588  1.00  0.00     0.008 NA
HETATM    8  N4  UNL     1      35.693  24.332  33.243  1.00  0.00    -0.224 N 
ATOM      9  H4  UNL     1      36.514  24.908  33.059  1.00  0.00     0.205 HD
HETATM   10  N5  UNL     1      35.080  23.850  32.088  1.00  0.00    -0.269 N 
ATOM     11  H5  UNL     1      34.999  24.563  31.363  1.00  0.00     0.190 HD
HETATM   12  C2  UNL     1      34.590  22.717  31.720  1.00  0.00     0.172 A 
HETATM   13  N6  UNL     1      34.022  22.585  30.422  1.00  0.00    -0.290 N 
ATOM     14  H6  UNL     1      33.955  23.319  29.717  1.00  0.00     0.172 HD
HETATM   15  C3  UNL     1      33.564  21.245  30.284  1.00  0.00     0.327 A 
HETATM   16  O1  UNL     1      33.005  20.769  29.261  1.00  0.00    -0.247 OA
HETATM   17  N7  UNL     1      33.868  20.579  31.522  1.00  0.00    -0.289 N 
ATOM     18  H7  UNL     1      33.657  19.602  31.722  1.00  0.00     0.172 HD
HETATM   19  C4  UNL     1      34.439  21.377  32.336  1.00  0.00     0.194 A 
HETATM   20  N8  UNL     1      34.833  20.936  33.631  1.00  0.00    -0.072 N 
ENDROOT
BRANCH  20  21
HETATM   21  N9  UNL     1      34.620  19.569  33.778  1.00  0.00    -0.322 N 
ATOM     22  H92 UNL     1      34.107  19.370  34.637  1.00  0.00     0.178 HD
ATOM     23  H91 UNL     1      34.998  18.992  33.027  1.00  0.00     0.178 HD
ENDBRANCH  20  21
TORSDOF 1
ENDMDL
MODEL 4
REMARK VINA RESULT: -8.217605662      1.092      2.940
REMARK  1 active torsions:
REMARK  status: ('A' for Active; 'I' for Inactive)
REMARK    1  A    between atoms: N8_20  and  N9_21 
ROOT
HETATM    1  N1  UNL     1      32.808  22.943  29.749  1.00  0.00    -0.232 N 
ATOM      2  H11 UNL     1      33.459  23.712  29.594  1.00  0.00     0.174 HD
ATOM      3  H12 UNL     1      32.083  22.497  29.187  1.00  0.00     0.174 HD
HETATM    4  C1  UNL     1      32.925  22.419  30.913  1.00  0.00     0.711 C 
HETATM    5  N2  UNL     1      32.019  21.349  31.130  1.00  0.00    -0.113 N 
ATOM      6  H2  UNL     1      31.653  20.966  30.258  1.00  0.00     0.203 HD
HETATM    7  N3  UNL     1      31.511  20.697  32.253  1.00  0.00     0.008 NA
HETATM    8  N4  UNL     1      32.483  20.153  33.072  1.00  0.00    -0.224 N 
ATOM      9  H4  UNL     1      32.556  19.139  32.998  1.00  0.00     0.205 HD
HETATM   10  N5  UNL     1      33.383  20.713  33.977  1.00  0.00    -0.269 N 
ATOM     11  H5  UNL     1      33.442  20.183  34.847  1.00  0.00     0.190 HD
HETATM   12  C2  UNL     1      34.157  21.743  33.974  1.00  0.00     0.172 A 
HETATM   13  N6  UNL     1      34.964  22.018  35.114  1.00  0.00    -0.290 N 
ATOM     14  H6  UNL     1      35.001  21.468  35.972  1.00  0.00     0.172 HD
HETATM   15  C3  UNL     1      35.710  23.198  34.841  1.00  0.00     0.327 A 
HETATM   16  O1  UNL     1      36.532  23.738  35.628  1.00  0.00    -0.247 OA
HETATM   17  N7  UNL     1      35.335  23.623  33.518  1.00  0.00    -0.289 N 
ATOM     18  H7  UNL     1      35.708  24.446  33.047  1.00  0.00     0.172 HD
HETATM   19  C4  UNL     1      34.473  22.830  33.017  1.00  0.00     0.194 A 
HETATM   20  N8  UNL     1      33.953  23.052  31.710  1.00  0.00    -0.072 N 
ENDROOT
BRANCH  20  21
HETATM   21  N9  UNL     1      34.598  24.119  31.093  1.00  0.00    -0.322 N 
ATOM     22  H92 UNL     1      34.392  24.142  30.094  1.00  0.00     0.178 HD
ATOM     23  H91 UNL     1      35.161  24.698  31.715  1.00  0.00     0.178 HD
ENDBRANCH  20  21
TORSDOF 1
ENDMDL
MODEL 5
REMARK VINA RESULT: -8.214534172      2.803      3.438
REMARK  1 active torsions:
REMARK  status: ('A' for Active; 'I' for Inactive)
REMARK    1  A    between atoms: N8_20  and  N9_21 
ROOT
HETATM    1  N1  UNL     1      34.667  19.694  33.508  1.00  0.00    -0.232 N 
ATOM      2  H11 UNL     1      34.041  19.513  34.292  1.00  0.00     0.174 HD
ATOM      3  H12 UNL     1      35.572  19.327  33.215  1.00  0.00     0.174 HD
HETATM    4  C1  UNL     1      34.214  20.589  32.707  1.00  0.00     0.711 C 
HETATM    5  N2  UNL     1      35.084  20.842  31.615  1.00  0.00    -0.113 N 
ATOM      6  H2  UNL     1      35.750  20.084  31.463  1.00  0.00     0.203 HD
HETATM    7  N3  UNL     1      35.243  21.883  30.701  1.00  0.00     0.008 NA
HETATM    8  N4  UNL     1      34.104  22.164  29.970  1.00  0.00    -0.224 N 
ATOM      9  H4  UNL     1      34.145  21.831  29.007  1.00  0.00     0.205 HD
HETATM   10  N5  UNL     1      32.911  22.812  30.286  1.00  0.00    -0.269 N 
ATOM     11  H5  UNL     1      32.611  23.456  29.554  1.00  0.00     0.190 HD
HETATM   12  C2  UNL     1      32.097  22.788  31.285  1.00  0.00     0.172 A 
HETATM   13  N6  UNL     1      30.937  23.613  31.266  1.00  0.00    -0.290 N 
ATOM     14  H6  UNL     1      30.664  24.249  30.517  1.00  0.00     0.172 HD
HETATM   15  C3  UNL     1      30.227  23.389  32.478  1.00  0.00     0.327 A 
HETATM   16  O1  UNL     1      29.149  23.951  32.804  1.00  0.00    -0.247 OA
HETATM   17  N7  UNL     1      30.983  22.416  33.221  1.00  0.00    -0.289 N 
ATOM     18  H7  UNL     1      30.720  22.055  34.138  1.00  0.00     0.172 HD
HETATM   19  C4  UNL     1      32.027  22.068  32.578  1.00  0.00     0.194 A 
HETATM   20  N8  UNL     1      32.930  21.111  33.122  1.00  0.00    -0.072 N 
ENDROOT
BRANCH  20  21
HETATM   21  N9  UNL     1      32.439  20.582  34.311  1.00  0.00    -0.322 N 
ATOM     22  H92 UNL     1      32.857  19.671  34.506  1.00  0.00     0.178 HD
ATOM     23  H91 UNL     1      31.758  21.167  34.792  1.00  0.00     0.178 HD
ENDBRANCH  20  21
TORSDOF 1
ENDMDL
