MODEL 1
REMARK VINA RESULT: -7.703426991      0.000      0.000
REMARK  1 active torsions:
REMARK  status: ('A' for Active; 'I' for Inactive)
REMARK    1  A    between atoms: N6_14  and  N7_15 
ROOT
HETATM    1  N1  UNL     1      31.490  23.003  30.251  1.00  0.00    -0.062 NA
HETATM    2  C1  UNL     1      32.768  22.746  30.871  1.00  0.00     0.208 C 
HETATM    3  N2  UNL     1      33.744  23.591  30.959  1.00  0.00    -0.357 N 
ATOM      4  H2  UNL     1      33.727  24.545  30.598  1.00  0.00     0.162 HD
HETATM    5  C2  UNL     1      34.862  22.982  31.643  1.00  0.00     0.199 C 
HETATM    6  C3  UNL     1      34.165  21.902  32.435  1.00  0.00     0.240 C 
HETATM    7  N3  UNL     1      33.587  22.450  33.653  1.00  0.00    -0.079 NA
HETATM    8  N4  UNL     1      34.464  22.094  34.690  1.00  0.00    -0.251 N 
ATOM      9  H4  UNL     1      34.502  22.516  35.618  1.00  0.00     0.187 HD
HETATM   10  C4  UNL     1      35.301  21.025  34.205  1.00  0.00     0.335 C 
HETATM   11  O1  UNL     1      36.107  20.434  34.957  1.00  0.00    -0.246 OA
HETATM   12  N5  UNL     1      35.020  20.830  32.822  1.00  0.00    -0.297 N 
ATOM     13  H5  UNL     1      35.361  20.073  32.228  1.00  0.00     0.168 HD
HETATM   14  N6  UNL     1      33.137  21.517  31.488  1.00  0.00    -0.222 N 
ENDROOT
BRANCH  14  15
HETATM   15  N7  UNL     1      32.573  20.285  31.174  1.00  0.00    -0.337 N 
ATOM     16  H72 UNL     1      31.682  19.857  31.423  1.00  0.00     0.177 HD
ATOM     17  H71 UNL     1      33.025  19.579  30.593  1.00  0.00     0.177 HD
ENDBRANCH  14  15
TORSDOF 1
ENDMDL
MODEL 2
REMARK VINA RESULT: -7.547752514      1.079      2.121
REMARK  1 active torsions:
REMARK  status: ('A' for Active; 'I' for Inactive)
REMARK    1  A    between atoms: N6_14  and  N7_15 
ROOT
HETATM    1  N1  UNL     1      31.945  23.016  29.715  1.00  0.00    -0.062 NA
HETATM    2  C1  UNL     1      32.321  22.676  31.067  1.00  0.00     0.208 C 
HETATM    3  N2  UNL     1      31.562  22.084  31.931  1.00  0.00    -0.357 N 
ATOM      4  H2  UNL     1      30.602  21.784  31.760  1.00  0.00     0.162 HD
HETATM    5  C2  UNL     1      32.277  21.908  33.175  1.00  0.00     0.199 C 
HETATM    6  C3  UNL     1      33.708  21.948  32.695  1.00  0.00     0.240 C 
HETATM    7  N3  UNL     1      34.108  20.653  32.166  1.00  0.00    -0.079 NA
HETATM    8  N4  UNL     1      34.877  20.046  33.172  1.00  0.00    -0.251 N 
ATOM      9  H4  UNL     1      35.104  19.053  33.240  1.00  0.00     0.187 HD
HETATM   10  C4  UNL     1      35.287  21.079  34.090  1.00  0.00     0.335 C 
HETATM   11  O1  UNL     1      36.077  20.841  35.029  1.00  0.00    -0.246 OA
HETATM   12  N5  UNL     1      34.646  22.293  33.711  1.00  0.00    -0.297 N 
ATOM     13  H5  UNL     1      34.823  23.223  34.091  1.00  0.00     0.168 HD
HETATM   14  N6  UNL     1      33.596  22.939  31.644  1.00  0.00    -0.222 N 
ENDROOT
BRANCH  14  15
HETATM   15  N7  UNL     1      34.455  23.944  31.214  1.00  0.00    -0.337 N 
ATOM     16  H72 UNL     1      34.895  24.130  30.313  1.00  0.00     0.177 HD
ATOM     17  H71 UNL     1      34.789  24.704  31.807  1.00  0.00     0.177 HD
ENDBRANCH  14  15
TORSDOF 1
ENDMDL
MODEL 3
REMARK VINA RESULT: -7.437559911      1.843      2.424
REMARK  1 active torsions:
REMARK  status: ('A' for Active; 'I' for Inactive)
REMARK    1  A    between atoms: N6_14  and  N7_15 
ROOT
HETATM    1  N1  UNL     1      31.367  20.714  30.679  1.00  0.00    -0.062 NA
HETATM    2  C1  UNL     1      32.507  20.843  31.556  1.00  0.00     0.208 C 
HETATM    3  N2  UNL     1      33.660  20.288  31.374  1.00  0.00    -0.357 N 
ATOM      4  H2  UNL     1      33.905  19.688  30.586  1.00  0.00     0.162 HD
HETATM    5  C2  UNL     1      34.552  20.643  32.455  1.00  0.00     0.199 C 
HETATM    6  C3  UNL     1      33.927  21.929  32.937  1.00  0.00     0.240 C 
HETATM    7  N3  UNL     1      34.338  23.045  32.098  1.00  0.00    -0.079 NA
HETATM    8  N4  UNL     1      35.336  23.722  32.816  1.00  0.00    -0.251 N 
ATOM      9  H4  UNL     1      36.007  24.388  32.434  1.00  0.00     0.187 HD
HETATM   10  C4  UNL     1      35.239  23.305  34.193  1.00  0.00     0.335 C 
HETATM   11  O1  UNL     1      35.939  23.833  35.086  1.00  0.00    -0.246 OA
HETATM   12  N5  UNL     1      34.268  22.267  34.279  1.00  0.00    -0.297 N 
ATOM     13  H5  UNL     1      33.890  21.850  35.130  1.00  0.00     0.168 HD
HETATM   14  N6  UNL     1      32.525  21.615  32.752  1.00  0.00    -0.222 N 
ENDROOT
BRANCH  14  15
HETATM   15  N7  UNL     1      31.392  21.933  33.493  1.00  0.00    -0.337 N 
ATOM     16  H72 UNL     1      31.061  22.811  33.894  1.00  0.00     0.177 HD
ATOM     17  H71 UNL     1      30.673  21.261  33.758  1.00  0.00     0.177 HD
ENDBRANCH  14  15
TORSDOF 1
ENDMDL
MODEL 4
REMARK VINA RESULT: -7.355562659      2.552      4.361
REMARK  1 active torsions:
REMARK  status: ('A' for Active; 'I' for Inactive)
REMARK    1  A    between atoms: N6_14  and  N7_15 
ROOT
HETATM    1  N1  UNL     1      36.034  20.651  35.418  1.00  0.00    -0.062 NA
HETATM    2  C1  UNL     1      35.252  20.886  34.228  1.00  0.00     0.208 C 
HETATM    3  N2  UNL     1      35.026  20.020  33.295  1.00  0.00    -0.357 N 
ATOM      4  H2  UNL     1      35.374  19.061  33.288  1.00  0.00     0.162 HD
HETATM    5  C2  UNL     1      34.204  20.612  32.263  1.00  0.00     0.199 C 
HETATM    6  C3  UNL     1      33.526  21.720  33.031  1.00  0.00     0.240 C 
HETATM    7  N3  UNL     1      32.390  21.205  33.780  1.00  0.00    -0.079 NA
HETATM    8  N4  UNL     1      31.249  21.555  33.040  1.00  0.00    -0.251 N 
ATOM      9  H4  UNL     1      30.319  21.146  33.137  1.00  0.00     0.187 HD
HETATM   10  C4  UNL     1      31.630  22.596  32.119  1.00  0.00     0.335 C 
HETATM   11  O1  UNL     1      30.784  23.179  31.406  1.00  0.00    -0.246 OA
HETATM   12  N5  UNL     1      33.040  22.778  32.208  1.00  0.00    -0.297 N 
ATOM     13  H5  UNL     1      33.592  23.517  31.772  1.00  0.00     0.168 HD
HETATM   14  N6  UNL     1      34.606  22.116  33.913  1.00  0.00    -0.222 N 
ENDROOT
BRANCH  14  15
HETATM   15  N7  UNL     1      35.007  23.355  34.399  1.00  0.00    -0.337 N 
ATOM     16  H72 UNL     1      35.880  23.677  34.817  1.00  0.00     0.177 HD
ATOM     17  H71 UNL     1      34.419  24.188  34.398  1.00  0.00     0.177 HD
ENDBRANCH  14  15
TORSDOF 1
ENDMDL
MODEL 5
REMARK VINA RESULT: -7.296139197      2.352      3.329
REMARK  1 active torsions:
REMARK  status: ('A' for Active; 'I' for Inactive)
REMARK    1  A    between atoms: N6_14  and  N7_15 
ROOT
HETATM    1  N1  UNL     1      29.888  23.678  32.196  1.00  0.00    -0.062 NA
HETATM    2  C1  UNL     1      31.079  22.879  32.362  1.00  0.00     0.208 C 
HETATM    3  N2  UNL     1      31.236  21.938  33.235  1.00  0.00    -0.357 N 
ATOM      4  H2  UNL     1      30.534  21.645  33.914  1.00  0.00     0.162 HD
HETATM    5  C2  UNL     1      32.556  21.362  33.105  1.00  0.00     0.199 C 
HETATM    6  C3  UNL     1      32.883  21.707  31.672  1.00  0.00     0.240 C 
HETATM    7  N3  UNL     1      32.267  20.753  30.761  1.00  0.00    -0.079 NA
HETATM    8  N4  UNL     1      33.291  19.876  30.370  1.00  0.00    -0.251 N 
ATOM      9  H4  UNL     1      33.168  18.957  29.945  1.00  0.00     0.187 HD
HETATM   10  C4  UNL     1      34.549  20.510  30.679  1.00  0.00     0.335 C 
HETATM   11  O1  UNL     1      35.638  20.000  30.336  1.00  0.00    -0.246 OA
HETATM   12  N5  UNL     1      34.279  21.716  31.387  1.00  0.00    -0.297 N 
ATOM     13  H5  UNL     1      34.951  22.442  31.638  1.00  0.00     0.168 HD
HETATM   14  N6  UNL     1      32.259  23.011  31.575  1.00  0.00    -0.222 N 
ENDROOT
BRANCH  14  15
HETATM   15  N7  UNL     1      32.628  24.175  30.910  1.00  0.00    -0.337 N 
ATOM     16  H72 UNL     1      32.545  25.160  31.158  1.00  0.00     0.177 HD
ATOM     17  H71 UNL     1      33.076  24.194  29.994  1.00  0.00     0.177 HD
ENDBRANCH  14  15
TORSDOF 1
ENDMDL
