MODEL 1
REMARK VINA RESULT: -7.200022684      0.000      0.000
REMARK  2 active torsions:
REMARK  status: ('A' for Active; 'I' for Inactive)
REMARK    1  A    between atoms: C2_3  and  N2_4 
REMARK    2  A    between atoms: C3_9  and  N4_10 
REMARK       I    between atoms: N6_16  and  C5_18 
REMARK       I    between atoms: C5_18  and  N7_19 
REMARK       I    between atoms: C5_18  and  N8_23 
ROOT
HETATM    1  C1  UNL     1      34.057  20.198  32.761  1.00  0.00     0.195 C 
HETATM    2  N1  UNL     1      34.547  21.380  33.450  1.00  0.00    -0.018 N 
HETATM    3  C2  UNL     1      35.077  21.219  34.687  1.00  0.00     0.706 A 
HETATM    4  N3  UNL     1      35.541  22.276  35.362  1.00  0.00    -0.022 N 
ATOM      5  H3  UNL     1      35.940  22.152  36.293  1.00  0.00     0.203 HD
HETATM    6  C3  UNL     1      35.483  23.503  34.815  1.00  0.00     0.705 A 
HETATM    7  N5  UNL     1      34.965  23.670  33.606  1.00  0.00    -0.021 N 
ATOM      8  H5  UNL     1      34.928  24.607  33.206  1.00  0.00     0.203 HD
HETATM    9  C4  UNL     1      34.468  22.592  32.865  1.00  0.00     0.712 A 
HETATM   10  N6  UNL     1      34.007  22.863  31.750  1.00  0.00    -0.172 N 
ATOM     11  H6  UNL     1      34.096  23.869  31.608  1.00  0.00     0.181 HD
HETATM   12  C5  UNL     1      33.429  22.331  30.646  1.00  0.00     0.494 C 
HETATM   13  N7  UNL     1      34.383  22.130  29.539  1.00  0.00    -0.032 N 
ATOM     14  H71 UNL     1      33.948  21.730  28.707  1.00  0.00     0.278 HD
ATOM     15  H72 UNL     1      35.180  21.568  29.840  1.00  0.00     0.278 HD
ATOM     16  H73 UNL     1      34.869  22.999  29.314  1.00  0.00     0.278 HD
HETATM   17  N8  UNL     1      32.467  23.370  30.118  1.00  0.00    -0.032 N 
ATOM     18  H81 UNL     1      32.032  22.970  29.287  1.00  0.00     0.278 HD
ATOM     19  H82 UNL     1      32.905  24.274  29.948  1.00  0.00     0.278 HD
ATOM     20  H83 UNL     1      31.792  23.684  30.815  1.00  0.00     0.278 HD
ENDROOT
BRANCH   3  21
HETATM   21  N2  UNL     1      35.128  20.012  35.209  1.00  0.00    -0.233 N 
ATOM     22  H22 UNL     1      34.511  19.273  34.874  1.00  0.00     0.174 HD
ATOM     23  H21 UNL     1      35.795  19.822  35.958  1.00  0.00     0.174 HD
ENDBRANCH   3  21
BRANCH   6  24
HETATM   24  N4  UNL     1      35.952  24.500  35.521  1.00  0.00    -0.234 N 
ATOM     25  H42 UNL     1      36.356  25.331  35.091  1.00  0.00     0.174 HD
ATOM     26  H41 UNL     1      35.902  24.420  36.536  1.00  0.00     0.174 HD
ENDBRANCH   6  24
TORSDOF 2
ENDMDL
MODEL 2
REMARK VINA RESULT: -7.164442375      2.419      3.445
REMARK  2 active torsions:
REMARK  status: ('A' for Active; 'I' for Inactive)
REMARK    1  A    between atoms: C2_3  and  N2_4 
REMARK    2  A    between atoms: C3_9  and  N4_10 
REMARK       I    between atoms: N6_16  and  C5_18 
REMARK       I    between atoms: C5_18  and  N7_19 
REMARK       I    between atoms: C5_18  and  N8_23 
ROOT
HETATM    1  C1  UNL     1      32.451  21.169  30.807  1.00  0.00     0.195 C 
HETATM    2  N1  UNL     1      33.241  21.068  32.024  1.00  0.00    -0.018 N 
HETATM    3  C2  UNL     1      34.451  20.461  31.946  1.00  0.00     0.706 A 
HETATM    4  N3  UNL     1      35.215  20.344  33.037  1.00  0.00    -0.022 N 
ATOM      5  H3  UNL     1      36.125  19.888  32.975  1.00  0.00     0.203 HD
HETATM    6  C3  UNL     1      34.785  20.829  34.215  1.00  0.00     0.705 A 
HETATM    7  N5  UNL     1      33.603  21.423  34.301  1.00  0.00    -0.021 N 
ATOM      8  H5  UNL     1      33.292  21.785  35.202  1.00  0.00     0.203 HD
HETATM    9  C4  UNL     1      32.772  21.567  33.184  1.00  0.00     0.712 A 
HETATM   10  N6  UNL     1      31.692  22.136  33.379  1.00  0.00    -0.172 N 
ATOM     11  H6  UNL     1      31.641  22.391  34.365  1.00  0.00     0.181 HD
HETATM   12  C5  UNL     1      30.549  22.551  32.779  1.00  0.00     0.494 C 
HETATM   13  N7  UNL     1      30.562  23.989  32.451  1.00  0.00    -0.032 N 
ATOM     14  H71 UNL     1      29.702  24.301  31.999  1.00  0.00     0.278 HD
ATOM     15  H72 UNL     1      31.378  24.227  31.886  1.00  0.00     0.278 HD
ATOM     16  H73 UNL     1      30.764  24.550  33.278  1.00  0.00     0.278 HD
HETATM   17  N8  UNL     1      29.449  22.419  33.806  1.00  0.00    -0.032 N 
ATOM     18  H81 UNL     1      28.589  22.731  33.355  1.00  0.00     0.278 HD
ATOM     19  H82 UNL     1      29.649  22.911  34.676  1.00  0.00     0.278 HD
ATOM     20  H83 UNL     1      29.379  21.481  34.203  1.00  0.00     0.278 HD
ENDROOT
BRANCH   3  21
HETATM   21  N2  UNL     1      34.858  19.993  30.785  1.00  0.00    -0.233 N 
ATOM     22  H22 UNL     1      35.673  20.391  30.319  1.00  0.00     0.174 HD
ATOM     23  H21 UNL     1      34.347  19.222  30.355  1.00  0.00     0.174 HD
ENDBRANCH   3  21
BRANCH   6  24
HETATM   24  N4  UNL     1      35.574  20.686  35.249  1.00  0.00    -0.234 N 
ATOM     25  H42 UNL     1      35.622  19.820  35.785  1.00  0.00     0.174 HD
ATOM     26  H41 UNL     1      36.153  21.484  35.510  1.00  0.00     0.174 HD
ENDBRANCH   6  24
TORSDOF 2
ENDMDL
MODEL 3
REMARK VINA RESULT: -6.778150405      1.693      4.735
REMARK  2 active torsions:
REMARK  status: ('A' for Active; 'I' for Inactive)
REMARK    1  A    between atoms: C2_3  and  N2_4 
REMARK    2  A    between atoms: C3_9  and  N4_10 
REMARK       I    between atoms: N6_16  and  C5_18 
REMARK       I    between atoms: C5_18  and  N7_19 
REMARK       I    between atoms: C5_18  and  N8_23 
ROOT
HETATM    1  C1  UNL     1      34.973  21.591  31.426  1.00  0.00     0.195 C 
HETATM    2  N1  UNL     1      33.654  22.108  31.757  1.00  0.00    -0.018 N 
HETATM    3  C2  UNL     1      32.885  22.580  30.745  1.00  0.00     0.706 A 
HETATM    4  N3  UNL     1      31.666  23.066  30.999  1.00  0.00    -0.022 N 
ATOM      5  H3  UNL     1      31.089  23.420  30.235  1.00  0.00     0.203 HD
HETATM    6  C3  UNL     1      31.199  23.088  32.260  1.00  0.00     0.705 A 
HETATM    7  N5  UNL     1      31.944  22.630  33.255  1.00  0.00    -0.021 N 
ATOM      8  H5  UNL     1      31.575  22.654  34.205  1.00  0.00     0.203 HD
HETATM    9  C4  UNL     1      33.226  22.113  33.034  1.00  0.00     0.712 A 
HETATM   10  N6  UNL     1      33.833  21.714  34.035  1.00  0.00    -0.172 N 
ATOM     11  H6  UNL     1      33.232  21.857  34.847  1.00  0.00     0.181 HD
HETATM   12  C5  UNL     1      34.993  21.159  34.463  1.00  0.00     0.494 C 
HETATM   13  N7  UNL     1      34.884  19.705  34.690  1.00  0.00    -0.032 N 
ATOM     14  H71 UNL     1      35.757  19.287  35.012  1.00  0.00     0.278 HD
ATOM     15  H72 UNL     1      34.538  19.231  33.856  1.00  0.00     0.278 HD
ATOM     16  H73 UNL     1      34.119  19.492  35.330  1.00  0.00     0.278 HD
HETATM   17  N8  UNL     1      35.262  21.726  35.838  1.00  0.00    -0.032 N 
ATOM     18  H81 UNL     1      36.135  21.308  36.160  1.00  0.00     0.278 HD
ATOM     19  H82 UNL     1      34.488  21.592  36.487  1.00  0.00     0.278 HD
ATOM     20  H83 UNL     1      35.271  22.746  35.858  1.00  0.00     0.278 HD
ENDROOT
BRANCH   3  21
HETATM   21  N2  UNL     1      33.357  22.551  29.516  1.00  0.00    -0.233 N 
ATOM     22  H22 UNL     1      33.200  21.741  28.916  1.00  0.00     0.174 HD
ATOM     23  H21 UNL     1      33.883  23.352  29.168  1.00  0.00     0.174 HD
ENDBRANCH   3  21
BRANCH   6  24
HETATM   24  N4  UNL     1      29.999  23.574  32.448  1.00  0.00    -0.234 N 
ATOM     25  H42 UNL     1      29.605  24.304  31.854  1.00  0.00     0.174 HD
ATOM     26  H41 UNL     1      29.457  23.197  33.224  1.00  0.00     0.174 HD
ENDBRANCH   6  24
TORSDOF 2
ENDMDL
MODEL 4
REMARK VINA RESULT: -6.759131958      1.715      2.489
REMARK  2 active torsions:
REMARK  status: ('A' for Active; 'I' for Inactive)
REMARK    1  A    between atoms: C2_3  and  N2_4 
REMARK    2  A    between atoms: C3_9  and  N4_10 
REMARK       I    between atoms: N6_16  and  C5_18 
REMARK       I    between atoms: C5_18  and  N7_19 
REMARK       I    between atoms: C5_18  and  N8_23 
ROOT
HETATM    1  C1  UNL     1      32.381  21.651  31.345  1.00  0.00     0.195 C 
HETATM    2  N1  UNL     1      33.323  21.441  32.433  1.00  0.00    -0.018 N 
HETATM    3  C2  UNL     1      33.130  20.369  33.241  1.00  0.00     0.706 A 
HETATM    4  N3  UNL     1      33.969  20.133  34.255  1.00  0.00    -0.022 N 
ATOM      5  H3  UNL     1      33.822  19.327  34.861  1.00  0.00     0.203 HD
HETATM    6  C3  UNL     1      35.008  20.959  34.476  1.00  0.00     0.705 A 
HETATM    7  N5  UNL     1      35.204  22.009  33.691  1.00  0.00    -0.021 N 
ATOM      8  H5  UNL     1      35.996  22.625  33.873  1.00  0.00     0.203 HD
HETATM    9  C4  UNL     1      34.350  22.293  32.619  1.00  0.00     0.712 A 
HETATM   10  N6  UNL     1      34.626  23.298  31.954  1.00  0.00    -0.172 N 
ATOM     11  H6  UNL     1      35.463  23.722  32.355  1.00  0.00     0.181 HD
HETATM   12  C5  UNL     1      34.240  24.050  30.894  1.00  0.00     0.494 C 
HETATM   13  N7  UNL     1      35.019  23.765  29.674  1.00  0.00    -0.032 N 
ATOM     14  H71 UNL     1      34.729  24.331  28.877  1.00  0.00     0.278 HD
ATOM     15  H72 UNL     1      34.990  22.771  29.446  1.00  0.00     0.278 HD
ATOM     16  H73 UNL     1      36.019  23.866  29.848  1.00  0.00     0.278 HD
HETATM   17  N8  UNL     1      34.591  25.481  31.229  1.00  0.00    -0.032 N 
ATOM     18  H81 UNL     1      34.301  26.047  30.431  1.00  0.00     0.278 HD
ATOM     19  H82 UNL     1      35.572  25.608  31.476  1.00  0.00     0.278 HD
ATOM     20  H83 UNL     1      34.194  25.797  32.114  1.00  0.00     0.278 HD
ENDROOT
BRANCH   3  21
HETATM   21  N2  UNL     1      32.109  19.571  33.012  1.00  0.00    -0.233 N 
ATOM     22  H22 UNL     1      31.329  19.876  32.431  1.00  0.00     0.174 HD
ATOM     23  H21 UNL     1      32.107  18.638  33.424  1.00  0.00     0.174 HD
ENDBRANCH   3  21
BRANCH   6  24
HETATM   24  N4  UNL     1      35.796  20.679  35.482  1.00  0.00    -0.234 N 
ATOM     25  H42 UNL     1      35.783  21.212  36.351  1.00  0.00     0.174 HD
ATOM     26  H41 UNL     1      36.438  19.895  35.370  1.00  0.00     0.174 HD
ENDBRANCH   6  24
TORSDOF 2
ENDMDL
MODEL 5
REMARK VINA RESULT: -6.674894043      1.398      4.759
REMARK  2 active torsions:
REMARK  status: ('A' for Active; 'I' for Inactive)
REMARK    1  A    between atoms: C2_3  and  N2_4 
REMARK    2  A    between atoms: C3_9  and  N4_10 
REMARK       I    between atoms: N6_16  and  C5_18 
REMARK       I    between atoms: C5_18  and  N7_19 
REMARK       I    between atoms: C5_18  and  N8_23 
ROOT
HETATM    1  C1  UNL     1      32.142  21.835  33.440  1.00  0.00     0.195 C 
HETATM    2  N1  UNL     1      32.924  22.125  32.249  1.00  0.00    -0.018 N 
HETATM    3  C2  UNL     1      32.261  22.515  31.133  1.00  0.00     0.706 A 
HETATM    4  N3  UNL     1      32.936  22.792  30.013  1.00  0.00    -0.022 N 
ATOM      5  H3  UNL     1      32.435  23.085  29.175  1.00  0.00     0.203 HD
HETATM    6  C3  UNL     1      34.277  22.684  29.990  1.00  0.00     0.705 A 
HETATM    7  N5  UNL     1      34.934  22.303  31.077  1.00  0.00    -0.021 N 
ATOM      8  H5  UNL     1      35.949  22.226  31.042  1.00  0.00     0.203 HD
HETATM    9  C4  UNL     1      34.266  22.003  32.270  1.00  0.00     0.712 A 
HETATM   10  N6  UNL     1      34.978  21.657  33.220  1.00  0.00    -0.172 N 
ATOM     11  H6  UNL     1      35.949  21.667  32.908  1.00  0.00     0.181 HD
HETATM   12  C5  UNL     1      34.957  21.269  34.519  1.00  0.00     0.494 C 
HETATM   13  N7  UNL     1      35.288  22.365  35.450  1.00  0.00    -0.032 N 
ATOM     14  H71 UNL     1      35.273  22.073  36.427  1.00  0.00     0.278 HD
ATOM     15  H72 UNL     1      34.677  23.168  35.299  1.00  0.00     0.278 HD
ATOM     16  H73 UNL     1      36.184  22.790  35.210  1.00  0.00     0.278 HD
HETATM   17  N8  UNL     1      36.090  20.284  34.694  1.00  0.00    -0.032 N 
ATOM     18  H81 UNL     1      36.075  19.992  35.671  1.00  0.00     0.278 HD
ATOM     19  H82 UNL     1      36.993  20.652  34.397  1.00  0.00     0.278 HD
ATOM     20  H83 UNL     1      36.049  19.503  34.039  1.00  0.00     0.278 HD
ENDROOT
BRANCH   3  21
HETATM   21  N2  UNL     1      30.949  22.615  31.171  1.00  0.00    -0.233 N 
ATOM     22  H22 UNL     1      30.425  22.290  31.982  1.00  0.00     0.174 HD
ATOM     23  H21 UNL     1      30.460  23.025  30.375  1.00  0.00     0.174 HD
ENDBRANCH   3  21
BRANCH   6  24
HETATM   24  N4  UNL     1      34.884  22.968  28.867  1.00  0.00    -0.234 N 
ATOM     25  H42 UNL     1      34.767  23.864  28.394  1.00  0.00     0.174 HD
ATOM     26  H41 UNL     1      35.492  22.253  28.469  1.00  0.00     0.174 HD
ENDBRANCH   6  24
TORSDOF 2
ENDMDL
