MODEL 1
REMARK VINA RESULT: -8.941251486      0.000      0.000
REMARK  0 active torsions:
REMARK  status: ('A' for Active; 'I' for Inactive)
ROOT
HETATM    1  N1  UNL     1      35.730  20.673  35.426  1.00  0.00    -0.232 N 
ATOM      2  H11 UNL     1      35.496  21.139  36.302  1.00  0.00     0.174 HD
ATOM      3  H12 UNL     1      36.548  20.065  35.408  1.00  0.00     0.174 HD
HETATM    4  C1  UNL     1      34.998  20.864  34.374  1.00  0.00     0.706 A 
HETATM    5  N2  UNL     1      35.326  20.214  33.151  1.00  0.00    -0.129 N 
ATOM      6  H2  UNL     1      36.142  19.603  33.127  1.00  0.00     0.205 HD
HETATM    7  N3  UNL     1      34.579  20.377  31.982  1.00  0.00    -0.264 N 
ATOM      8  H3  UNL     1      34.844  19.896  31.123  1.00  0.00     0.189 HD
HETATM    9  C2  UNL     1      33.531  21.162  32.016  1.00  0.00     0.229 A 
HETATM   10  C3  UNL     1      32.789  21.290  30.753  1.00  0.00     0.298 A 
HETATM   11  O1  UNL     1      33.145  20.681  29.714  1.00  0.00    -0.264 OA
HETATM   12  N4  UNL     1      31.651  22.138  30.778  1.00  0.00    -0.271 N 
ATOM     13  H4  UNL     1      31.098  22.264  29.930  1.00  0.00     0.174 HD
HETATM   14  C4  UNL     1      31.271  22.816  31.969  1.00  0.00     0.343 A 
HETATM   15  O2  UNL     1      30.265  23.574  32.016  1.00  0.00    -0.245 OA
HETATM   16  N5  UNL     1      32.012  22.668  33.171  1.00  0.00    -0.228 N 
ATOM     17  H5  UNL     1      31.720  23.164  34.013  1.00  0.00     0.194 HD
HETATM   18  N6  UNL     1      33.143  21.844  33.205  1.00  0.00    -0.154 N 
HETATM   19  N7  UNL     1      33.860  21.712  34.398  1.00  0.00    -0.108 N 
ATOM     20  H7  UNL     1      33.577  22.202  35.247  1.00  0.00     0.208 HD
ENDROOT
TORSDOF 0
ENDMDL
MODEL 2
REMARK VINA RESULT: -8.673518891      2.035      2.886
REMARK  0 active torsions:
REMARK  status: ('A' for Active; 'I' for Inactive)
ROOT
HETATM    1  N1  UNL     1      35.896  20.368  35.693  1.00  0.00    -0.232 N 
ATOM      2  H11 UNL     1      35.849  19.349  35.690  1.00  0.00     0.174 HD
ATOM      3  H12 UNL     1      36.272  20.831  36.520  1.00  0.00     0.174 HD
HETATM    4  C1  UNL     1      35.483  21.038  34.664  1.00  0.00     0.706 A 
HETATM    5  N2  UNL     1      35.548  22.460  34.668  1.00  0.00    -0.129 N 
ATOM      6  H2  UNL     1      35.924  22.929  35.492  1.00  0.00     0.205 HD
HETATM    7  N3  UNL     1      35.119  23.241  33.592  1.00  0.00    -0.264 N 
ATOM      8  H3  UNL     1      35.180  24.258  33.629  1.00  0.00     0.189 HD
HETATM    9  C2  UNL     1      34.638  22.636  32.535  1.00  0.00     0.229 A 
HETATM   10  C3  UNL     1      34.204  23.515  31.439  1.00  0.00     0.298 A 
HETATM   11  O1  UNL     1      34.295  24.766  31.520  1.00  0.00    -0.264 OA
HETATM   12  N4  UNL     1      33.681  22.870  30.288  1.00  0.00    -0.271 N 
ATOM     13  H4  UNL     1      33.365  23.432  29.496  1.00  0.00     0.174 HD
HETATM   14  C4  UNL     1      33.589  21.453  30.222  1.00  0.00     0.343 A 
HETATM   15  O2  UNL     1      33.127  20.858  29.211  1.00  0.00    -0.245 OA
HETATM   16  N5  UNL     1      34.017  20.635  31.301  1.00  0.00    -0.228 N 
ATOM     17  H5  UNL     1      33.943  19.620  31.231  1.00  0.00     0.194 HD
HETATM   18  N6  UNL     1      34.543  21.217  32.461  1.00  0.00    -0.154 N 
HETATM   19  N7  UNL     1      34.959  20.394  33.512  1.00  0.00    -0.108 N 
ATOM     20  H7  UNL     1      34.889  19.378  33.454  1.00  0.00     0.208 HD
ENDROOT
TORSDOF 0
ENDMDL
MODEL 3
REMARK VINA RESULT: -8.053572490      1.974      4.195
REMARK  0 active torsions:
REMARK  status: ('A' for Active; 'I' for Inactive)
ROOT
HETATM    1  N1  UNL     1      29.205  23.722  32.884  1.00  0.00    -0.232 N 
ATOM      2  H11 UNL     1      28.753  23.510  33.774  1.00  0.00     0.174 HD
ATOM      3  H12 UNL     1      28.730  24.358  32.243  1.00  0.00     0.174 HD
HETATM    4  C1  UNL     1      30.349  23.188  32.594  1.00  0.00     0.706 A 
HETATM    5  N2  UNL     1      30.978  23.483  31.353  1.00  0.00    -0.129 N 
ATOM      6  H2  UNL     1      30.510  24.119  30.708  1.00  0.00     0.205 HD
HETATM    7  N3  UNL     1      32.210  22.940  30.980  1.00  0.00    -0.264 N 
ATOM      8  H3  UNL     1      32.633  23.174  30.082  1.00  0.00     0.189 HD
HETATM    9  C2  UNL     1      32.810  22.125  31.811  1.00  0.00     0.229 A 
HETATM   10  C3  UNL     1      34.102  21.589  31.358  1.00  0.00     0.298 A 
HETATM   11  O1  UNL     1      34.592  21.900  30.244  1.00  0.00    -0.264 OA
HETATM   12  N4  UNL     1      34.761  20.704  32.252  1.00  0.00    -0.271 N 
ATOM     13  H4  UNL     1      35.661  20.302  31.989  1.00  0.00     0.174 HD
HETATM   14  C4  UNL     1      34.184  20.369  33.508  1.00  0.00     0.343 A 
HETATM   15  O2  UNL     1      34.750  19.585  34.317  1.00  0.00    -0.245 OA
HETATM   16  N5  UNL     1      32.933  20.906  33.912  1.00  0.00    -0.228 N 
ATOM     17  H5  UNL     1      32.539  20.652  34.817  1.00  0.00     0.194 HD
HETATM   18  N6  UNL     1      32.239  21.784  33.071  1.00  0.00    -0.154 N 
HETATM   19  N7  UNL     1      31.009  22.302  33.487  1.00  0.00    -0.108 N 
ATOM     20  H7  UNL     1      30.604  22.055  34.391  1.00  0.00     0.208 HD
ENDROOT
TORSDOF 0
ENDMDL
MODEL 4
REMARK VINA RESULT: -8.036719122      0.970      2.742
REMARK  0 active torsions:
REMARK  status: ('A' for Active; 'I' for Inactive)
ROOT
HETATM    1  N1  UNL     1      36.131  20.306  35.548  1.00  0.00    -0.232 N 
ATOM      2  H11 UNL     1      36.801  19.590  35.267  1.00  0.00     0.174 HD
ATOM      3  H12 UNL     1      36.157  20.637  36.512  1.00  0.00     0.174 HD
HETATM    4  C1  UNL     1      35.279  20.769  34.689  1.00  0.00     0.706 A 
HETATM    5  N2  UNL     1      34.345  21.768  35.081  1.00  0.00    -0.129 N 
ATOM      6  H2  UNL     1      34.366  22.105  36.043  1.00  0.00     0.205 HD
HETATM    7  N3  UNL     1      33.401  22.309  34.204  1.00  0.00    -0.264 N 
ATOM      8  H3  UNL     1      32.746  23.024  34.519  1.00  0.00     0.189 HD
HETATM    9  C2  UNL     1      33.377  21.875  32.969  1.00  0.00     0.229 A 
HETATM   10  C3  UNL     1      32.360  22.484  32.098  1.00  0.00     0.298 A 
HETATM   11  O1  UNL     1      31.570  23.364  32.522  1.00  0.00    -0.264 OA
HETATM   12  N4  UNL     1      32.326  22.022  30.756  1.00  0.00    -0.271 N 
ATOM     13  H4  UNL     1      31.640  22.410  30.108  1.00  0.00     0.174 HD
HETATM   14  C4  UNL     1      33.232  21.025  30.303  1.00  0.00     0.343 A 
HETATM   15  O2  UNL     1      33.220  20.599  29.117  1.00  0.00    -0.245 OA
HETATM   16  N5  UNL     1      34.202  20.459  31.172  1.00  0.00    -0.228 N 
ATOM     17  H5  UNL     1      34.842  19.746  30.824  1.00  0.00     0.194 HD
HETATM   18  N6  UNL     1      34.282  20.877  32.506  1.00  0.00    -0.154 N 
HETATM   19  N7  UNL     1      35.244  20.308  33.346  1.00  0.00    -0.108 N 
ATOM     20  H7  UNL     1      35.890  19.593  33.010  1.00  0.00     0.208 HD
ENDROOT
TORSDOF 0
ENDMDL
MODEL 5
REMARK VINA RESULT: -7.917711380      2.301      3.411
REMARK  0 active torsions:
REMARK  status: ('A' for Active; 'I' for Inactive)
ROOT
HETATM    1  N1  UNL     1      35.059  22.729  28.852  1.00  0.00    -0.232 N 
ATOM      2  H11 UNL     1      34.764  23.406  28.149  1.00  0.00     0.174 HD
ATOM      3  H12 UNL     1      35.950  22.251  28.715  1.00  0.00     0.174 HD
HETATM    4  C1  UNL     1      34.309  22.494  29.882  1.00  0.00     0.706 A 
HETATM    5  N2  UNL     1      34.722  21.548  30.862  1.00  0.00    -0.129 N 
ATOM      6  H2  UNL     1      35.613  21.068  30.732  1.00  0.00     0.205 HD
HETATM    7  N3  UNL     1      33.961  21.249  31.994  1.00  0.00    -0.264 N 
ATOM      8  H3  UNL     1      34.287  20.564  32.676  1.00  0.00     0.189 HD
HETATM    9  C2  UNL     1      32.819  21.867  32.159  1.00  0.00     0.229 A 
HETATM   10  C3  UNL     1      32.067  21.507  33.370  1.00  0.00     0.298 A 
HETATM   11  O1  UNL     1      32.501  20.659  34.189  1.00  0.00    -0.264 OA
HETATM   12  N4  UNL     1      30.827  22.172  33.559  1.00  0.00    -0.271 N 
ATOM     13  H4  UNL     1      30.263  21.960  34.383  1.00  0.00     0.174 HD
HETATM   14  C4  UNL     1      30.358  23.127  32.616  1.00  0.00     0.343 A 
HETATM   15  O2  UNL     1      29.261  23.730  32.762  1.00  0.00    -0.245 OA
HETATM   16  N5  UNL     1      31.112  23.451  31.457  1.00  0.00    -0.228 N 
ATOM     17  H5  UNL     1      30.756  24.140  30.795  1.00  0.00     0.194 HD
HETATM   18  N6  UNL     1      32.342  22.826  31.220  1.00  0.00    -0.154 N 
HETATM   19  N7  UNL     1      33.069  23.158  30.072  1.00  0.00    -0.108 N 
ATOM     20  H7  UNL     1      32.724  23.846  29.402  1.00  0.00     0.208 HD
ENDROOT
TORSDOF 0
ENDMDL
