MODEL 1
REMARK VINA RESULT: -6.269209266      0.000      0.000
REMARK  4 active torsions:
REMARK  status: ('A' for Active; 'I' for Inactive)
REMARK    1  A    between atoms: C3_5  and  O1_6 
REMARK    2  A    between atoms: O1_6  and  N2_7 
REMARK    3  A    between atoms: N2_7  and  C4_9 
REMARK    4  A    between atoms: C4_9  and  N3_10 
ROOT
HETATM    1  C1  UNL     1     -39.614  -2.006   2.560  1.00  0.00     0.089 C 
HETATM    2  C2  UNL     1     -40.189  -1.382   3.780  1.00  0.00     0.096 A 
HETATM    3  N1  UNL     1     -40.907  -0.250   3.683  1.00  0.00    -0.309 N 
ATOM      4  H1  UNL     1     -41.044   0.164   2.761  1.00  0.00     0.170 HD
HETATM    5  C3  UNL     1     -41.453   0.362   4.752  1.00  0.00     0.263 A 
HETATM    6  N4  UNL     1     -41.243  -0.222   5.943  1.00  0.00    -0.153 N 
ATOM      7  H4  UNL     1     -41.636   0.203   6.782  1.00  0.00     0.188 HD
HETATM    8  C5  UNL     1     -40.526  -1.358   6.057  1.00  0.00     0.680 A 
HETATM    9  N5  UNL     1     -40.344  -1.893   7.217  1.00  0.00    -0.234 N 
ATOM     10  H51 UNL     1     -39.801  -2.753   7.303  1.00  0.00     0.174 HD
ATOM     11  H52 UNL     1     -40.751  -1.441   8.035  1.00  0.00     0.174 HD
HETATM   12  N6  UNL     1     -39.991  -1.952   4.981  1.00  0.00    -0.181 N 
ATOM     13  H6  UNL     1     -39.449  -2.811   5.071  1.00  0.00     0.185 HD
ENDROOT
BRANCH   5  14
HETATM   14  O1  UNL     1     -42.196   1.541   4.616  1.00  0.00    -0.199 OA
BRANCH  14  15
HETATM   15  N2  UNL     1     -42.317   2.392   5.688  1.00  0.00    -0.254 N 
ATOM     16  H2  UNL     1     -43.059   2.228   6.369  1.00  0.00     0.195 HD
BRANCH  15  17
HETATM   17  C4  UNL     1     -41.445   3.489   5.876  1.00  0.00     0.197 C 
BRANCH  17  18
HETATM   18  N3  UNL     1     -40.208   3.228   6.148  1.00  0.00    -0.394 N 
ATOM     19  H32 UNL     1     -39.746   3.688   6.933  1.00  0.00     0.156 HD
ATOM     20  H31 UNL     1     -39.726   2.554   5.554  1.00  0.00     0.156 HD
ENDBRANCH  17  18
ENDBRANCH  15  17
ENDBRANCH  14  15
ENDBRANCH   5  14
TORSDOF 4
ENDMDL
MODEL 2
REMARK VINA RESULT: -6.226224510      2.250      4.717
REMARK  4 active torsions:
REMARK  status: ('A' for Active; 'I' for Inactive)
REMARK    1  A    between atoms: C3_5  and  O1_6 
REMARK    2  A    between atoms: O1_6  and  N2_7 
REMARK    3  A    between atoms: N2_7  and  C4_9 
REMARK    4  A    between atoms: C4_9  and  N3_10 
ROOT
HETATM    1  C1  UNL     1     -42.238   1.811   4.968  1.00  0.00     0.089 C 
HETATM    2  C2  UNL     1     -41.516   0.512   4.951  1.00  0.00     0.096 A 
HETATM    3  N1  UNL     1     -41.147  -0.039   3.783  1.00  0.00    -0.309 N 
ATOM      4  H1  UNL     1     -41.373   0.453   2.918  1.00  0.00     0.170 HD
HETATM    5  C3  UNL     1     -40.492  -1.213   3.704  1.00  0.00     0.263 A 
HETATM    6  N4  UNL     1     -40.218  -1.821   4.870  1.00  0.00    -0.153 N 
ATOM      7  H4  UNL     1     -39.724  -2.713   4.862  1.00  0.00     0.188 HD
HETATM    8  C5  UNL     1     -40.582  -1.282   6.050  1.00  0.00     0.680 A 
HETATM    9  N5  UNL     1     -40.303  -1.892   7.153  1.00  0.00    -0.234 N 
ATOM     10  H51 UNL     1     -40.578  -1.483   8.047  1.00  0.00     0.174 HD
ATOM     11  H52 UNL     1     -39.807  -2.782   7.108  1.00  0.00     0.174 HD
HETATM   12  N6  UNL     1     -41.233  -0.112   6.108  1.00  0.00    -0.181 N 
ATOM     13  H6  UNL     1     -41.506   0.293   7.003  1.00  0.00     0.185 HD
ENDROOT
BRANCH   5  14
HETATM   14  O1  UNL     1     -40.122  -1.760   2.469  1.00  0.00    -0.199 OA
BRANCH  14  15
HETATM   15  N2  UNL     1     -38.978  -2.516   2.379  1.00  0.00    -0.254 N 
ATOM     16  H2  UNL     1     -38.685  -3.070   3.184  1.00  0.00     0.195 HD
BRANCH  15  17
HETATM   17  C4  UNL     1     -38.194  -2.550   1.203  1.00  0.00     0.197 C 
BRANCH  17  18
HETATM   18  N3  UNL     1     -37.749  -3.701   0.814  1.00  0.00    -0.394 N 
ATOM     19  H32 UNL     1     -38.363  -4.350   0.323  1.00  0.00     0.156 HD
ATOM     20  H31 UNL     1     -36.775  -3.923   1.018  1.00  0.00     0.156 HD
ENDBRANCH  17  18
ENDBRANCH  15  17
ENDBRANCH  14  15
ENDBRANCH   5  14
TORSDOF 4
ENDMDL
MODEL 3
REMARK VINA RESULT: -6.109294406      3.100      4.758
REMARK  4 active torsions:
REMARK  status: ('A' for Active; 'I' for Inactive)
REMARK    1  A    between atoms: C3_5  and  O1_6 
REMARK    2  A    between atoms: O1_6  and  N2_7 
REMARK    3  A    between atoms: N2_7  and  C4_9 
REMARK    4  A    between atoms: C4_9  and  N3_10 
ROOT
HETATM    1  C1  UNL     1     -36.547  -4.891   3.877  1.00  0.00     0.089 C 
HETATM    2  C2  UNL     1     -37.477  -3.963   3.182  1.00  0.00     0.096 A 
HETATM    3  N1  UNL     1     -38.462  -3.357   3.866  1.00  0.00    -0.309 N 
ATOM      4  H1  UNL     1     -38.553  -3.550   4.864  1.00  0.00     0.170 HD
HETATM    5  C3  UNL     1     -39.334  -2.507   3.291  1.00  0.00     0.263 A 
HETATM    6  N4  UNL     1     -39.172  -2.287   1.976  1.00  0.00    -0.153 N 
ATOM      7  H4  UNL     1     -39.808  -1.651   1.496  1.00  0.00     0.188 HD
HETATM    8  C5  UNL     1     -38.189  -2.887   1.276  1.00  0.00     0.680 A 
HETATM    9  N5  UNL     1     -38.061  -2.653   0.013  1.00  0.00    -0.234 N 
ATOM     10  H51 UNL     1     -37.316  -3.107  -0.518  1.00  0.00     0.174 HD
ATOM     11  H52 UNL     1     -38.715  -2.012  -0.436  1.00  0.00     0.174 HD
HETATM   12  N6  UNL     1     -37.330  -3.730   1.866  1.00  0.00    -0.181 N 
ATOM     13  H6  UNL     1     -36.588  -4.181   1.332  1.00  0.00     0.185 HD
ENDROOT
BRANCH   5  14
HETATM   14  O1  UNL     1     -40.349  -1.892   4.034  1.00  0.00    -0.199 OA
BRANCH  14  15
HETATM   15  N2  UNL     1     -40.018  -1.010   5.035  1.00  0.00    -0.254 N 
ATOM     16  H2  UNL     1     -39.070  -0.634   5.069  1.00  0.00     0.195 HD
BRANCH  15  17
HETATM   17  C4  UNL     1     -40.950  -0.610   6.019  1.00  0.00     0.197 C 
BRANCH  17  18
HETATM   18  N3  UNL     1     -41.566  -1.541   6.673  1.00  0.00    -0.394 N 
ATOM     19  H32 UNL     1     -41.827  -1.398   7.648  1.00  0.00     0.156 HD
ATOM     20  H31 UNL     1     -41.774  -2.407   6.176  1.00  0.00     0.156 HD
ENDBRANCH  17  18
ENDBRANCH  15  17
ENDBRANCH  14  15
ENDBRANCH   5  14
TORSDOF 4
ENDMDL
MODEL 4
REMARK VINA RESULT: -5.837972683      2.189      4.440
REMARK  4 active torsions:
REMARK  status: ('A' for Active; 'I' for Inactive)
REMARK    1  A    between atoms: C3_5  and  O1_6 
REMARK    2  A    between atoms: O1_6  and  N2_7 
REMARK    3  A    between atoms: N2_7  and  C4_9 
REMARK    4  A    between atoms: C4_9  and  N3_10 
ROOT
HETATM    1  C1  UNL     1     -42.445   2.355   4.882  1.00  0.00     0.089 C 
HETATM    2  C2  UNL     1     -41.980   0.972   5.166  1.00  0.00     0.096 A 
HETATM    3  N1  UNL     1     -41.059   0.395   4.376  1.00  0.00    -0.309 N 
ATOM      4  H1  UNL     1     -40.693   0.925   3.585  1.00  0.00     0.170 HD
HETATM    5  C3  UNL     1     -40.600  -0.854   4.584  1.00  0.00     0.263 A 
HETATM    6  N4  UNL     1     -41.113  -1.510   5.637  1.00  0.00    -0.153 N 
ATOM      7  H4  UNL     1     -40.797  -2.459   5.835  1.00  0.00     0.188 HD
HETATM    8  C5  UNL     1     -42.037  -0.945   6.439  1.00  0.00     0.680 A 
HETATM    9  N5  UNL     1     -42.510  -1.603   7.444  1.00  0.00    -0.234 N 
ATOM     10  H51 UNL     1     -43.209  -1.175   8.051  1.00  0.00     0.174 HD
ATOM     11  H52 UNL     1     -42.171  -2.550   7.612  1.00  0.00     0.174 HD
HETATM   12  N6  UNL     1     -42.482   0.300   6.217  1.00  0.00    -0.181 N 
ATOM     13  H6  UNL     1     -43.181   0.724   6.826  1.00  0.00     0.185 HD
ENDROOT
BRANCH   5  14
HETATM   14  O1  UNL     1     -39.640  -1.426   3.740  1.00  0.00    -0.199 OA
BRANCH  14  15
HETATM   15  N2  UNL     1     -39.901  -1.541   2.395  1.00  0.00    -0.254 N 
ATOM     16  H2  UNL     1     -40.540  -0.877   1.957  1.00  0.00     0.195 HD
BRANCH  15  17
HETATM   17  C4  UNL     1     -39.312  -2.551   1.601  1.00  0.00     0.197 C 
BRANCH  17  18
HETATM   18  N3  UNL     1     -38.196  -2.271   1.010  1.00  0.00    -0.394 N 
ATOM     19  H32 UNL     1     -37.949  -1.302   0.810  1.00  0.00     0.156 HD
ATOM     20  H31 UNL     1     -37.587  -3.049   0.758  1.00  0.00     0.156 HD
ENDBRANCH  17  18
ENDBRANCH  15  17
ENDBRANCH  14  15
ENDBRANCH   5  14
TORSDOF 4
ENDMDL
MODEL 5
REMARK VINA RESULT: -5.701677204      1.563      1.672
REMARK  4 active torsions:
REMARK  status: ('A' for Active; 'I' for Inactive)
REMARK    1  A    between atoms: C3_5  and  O1_6 
REMARK    2  A    between atoms: O1_6  and  N2_7 
REMARK    3  A    between atoms: N2_7  and  C4_9 
REMARK    4  A    between atoms: C4_9  and  N3_10 
ROOT
HETATM    1  C1  UNL     1     -39.651  -2.038   3.839  1.00  0.00     0.089 C 
HETATM    2  C2  UNL     1     -40.633  -1.232   4.611  1.00  0.00     0.096 A 
HETATM    3  N1  UNL     1     -40.957   0.007   4.203  1.00  0.00    -0.309 N 
ATOM      4  H1  UNL     1     -40.516   0.375   3.360  1.00  0.00     0.170 HD
HETATM    5  C3  UNL     1     -41.840   0.784   4.860  1.00  0.00     0.263 A 
HETATM    6  N4  UNL     1     -42.393   0.255   5.964  1.00  0.00    -0.153 N 
ATOM      7  H4  UNL     1     -43.067   0.805   6.496  1.00  0.00     0.188 HD
HETATM    8  C5  UNL     1     -42.078  -0.986   6.385  1.00  0.00     0.680 A 
HETATM    9  N5  UNL     1     -42.628  -1.465   7.450  1.00  0.00    -0.234 N 
ATOM     10  H51 UNL     1     -42.391  -2.405   7.770  1.00  0.00     0.174 HD
ATOM     11  H52 UNL     1     -43.298  -0.888   7.958  1.00  0.00     0.174 HD
HETATM   12  N6  UNL     1     -41.198  -1.745   5.718  1.00  0.00    -0.181 N 
ATOM     13  H6  UNL     1     -40.963  -2.683   6.040  1.00  0.00     0.185 HD
ENDROOT
BRANCH   5  14
HETATM   14  O1  UNL     1     -42.155   2.072   4.408  1.00  0.00    -0.199 OA
BRANCH  14  15
HETATM   15  N2  UNL     1     -42.770   2.957   5.260  1.00  0.00    -0.254 N 
ATOM     16  H2  UNL     1     -42.779   2.757   6.260  1.00  0.00     0.195 HD
BRANCH  15  17
HETATM   17  C4  UNL     1     -43.393   4.137   4.791  1.00  0.00     0.197 C 
BRANCH  17  18
HETATM   18  N3  UNL     1     -42.843   5.266   5.101  1.00  0.00    -0.394 N 
ATOM     19  H32 UNL     1     -42.833   6.034   4.430  1.00  0.00     0.156 HD
ATOM     20  H31 UNL     1     -42.429   5.350   6.029  1.00  0.00     0.156 HD
ENDBRANCH  17  18
ENDBRANCH  15  17
ENDBRANCH  14  15
ENDBRANCH   5  14
TORSDOF 4
ENDMDL
