MODEL 1
REMARK VINA RESULT: -6.094548129      0.000      0.000
REMARK  4 active torsions:
REMARK  status: ('A' for Active; 'I' for Inactive)
REMARK    1  A    between atoms: N1_2  and  C2_5 
REMARK    2  A    between atoms: C2_5  and  C3_6 
REMARK    3  A    between atoms: C3_6  and  N2_7 
REMARK    4  A    between atoms: C3_6  and  C5_11 
ROOT
HETATM    1  N2  UNL     1     -41.883  -1.615   5.779  1.00  0.00    -0.315 N 
ATOM      2  H2  UNL     1     -42.745  -2.157   5.828  1.00  0.00     0.172 HD
HETATM    3  C4  UNL     1     -40.857  -1.845   6.685  1.00  0.00     0.178 C 
HETATM    4  N3  UNL     1     -39.995  -2.042   7.436  1.00  0.00    -0.172 NA
ENDROOT
BRANCH   1   5
HETATM    5  C3  UNL     1     -41.715  -0.598   4.767  1.00  0.00     0.188 C 
BRANCH   5   6
HETATM    6  C2  UNL     1     -40.430  -0.870   4.074  1.00  0.00     0.265 C 
BRANCH   6   7
HETATM    7  N1  UNL     1     -40.465  -0.934   2.649  1.00  0.00    -0.077 N 
HETATM    8  C1  UNL     1     -39.539  -1.995   2.228  1.00  0.00     0.267 C 
ATOM      9  H12 UNL     1     -40.267  -0.037   2.206  1.00  0.00     0.276 HD
ATOM     10  H11 UNL     1     -41.408  -1.062   2.281  1.00  0.00     0.276 HD
ENDBRANCH   6   7
ENDBRANCH   5   6
BRANCH   5  11
HETATM   11  C5  UNL     1     -41.815   0.702   5.440  1.00  0.00     0.138 A 
HETATM   12  N4  UNL     1     -42.944   1.047   6.130  1.00  0.00    -0.270 N 
HETATM   13  N5  UNL     1     -42.797   2.250   6.648  1.00  0.00    -0.227 N 
ATOM     14  H4  UNL     1     -43.775   0.462   6.228  1.00  0.00     0.190 HD
HETATM   15  N6  UNL     1     -41.602   2.695   6.312  1.00  0.00    -0.227 N 
ATOM     16  H5  UNL     1     -43.486   2.750   7.209  1.00  0.00     0.210 HD
HETATM   17  N7  UNL     1     -41.027   1.752   5.588  1.00  0.00    -0.270 N 
ATOM     18  H6  UNL     1     -41.198   3.597   6.564  1.00  0.00     0.210 HD
ATOM     19  H7  UNL     1     -40.090   1.825   5.193  1.00  0.00     0.190 HD
ENDBRANCH   5  11
ENDBRANCH   1   5
TORSDOF 4
ENDMDL
MODEL 2
REMARK VINA RESULT: -5.762984852      2.244      4.692
REMARK  4 active torsions:
REMARK  status: ('A' for Active; 'I' for Inactive)
REMARK    1  A    between atoms: N1_2  and  C2_5 
REMARK    2  A    between atoms: C2_5  and  C3_6 
REMARK    3  A    between atoms: C3_6  and  N2_7 
REMARK    4  A    between atoms: C3_6  and  C5_11 
ROOT
HETATM    1  N2  UNL     1     -41.101   2.746   5.988  1.00  0.00    -0.315 N 
ATOM      2  H2  UNL     1     -40.148   2.985   5.714  1.00  0.00     0.172 HD
HETATM    3  C4  UNL     1     -41.670   3.314   7.119  1.00  0.00     0.178 C 
HETATM    4  N3  UNL     1     -42.150   3.796   8.059  1.00  0.00    -0.172 NA
ENDROOT
BRANCH   1   5
HETATM    5  C3  UNL     1     -41.875   1.811   5.204  1.00  0.00     0.188 C 
BRANCH   5   6
HETATM    6  C2  UNL     1     -43.277   2.299   5.188  1.00  0.00     0.265 C 
BRANCH   6   7
HETATM    7  N1  UNL     1     -43.543   3.479   4.432  1.00  0.00    -0.077 N 
HETATM    8  C1  UNL     1     -44.930   3.880   4.704  1.00  0.00     0.267 C 
ATOM      9  H12 UNL     1     -43.352   3.364   3.436  1.00  0.00     0.276 HD
ATOM     10  H11 UNL     1     -42.872   4.226   4.612  1.00  0.00     0.276 HD
ENDBRANCH   6   7
ENDBRANCH   5   6
BRANCH   5  11
HETATM   11  C5  UNL     1     -41.668   0.481   5.788  1.00  0.00     0.138 A 
HETATM   12  N4  UNL     1     -40.414  -0.057   5.874  1.00  0.00    -0.270 N 
HETATM   13  N5  UNL     1     -40.480  -1.248   6.436  1.00  0.00    -0.227 N 
ATOM     14  H4  UNL     1     -39.557   0.394   5.552  1.00  0.00     0.190 HD
HETATM   15  N6  UNL     1     -41.744  -1.496   6.716  1.00  0.00    -0.227 N 
ATOM     16  H5  UNL     1     -39.692  -1.868   6.621  1.00  0.00     0.210 HD
HETATM   17  N7  UNL     1     -42.442  -0.447   6.321  1.00  0.00    -0.270 N 
ATOM     18  H6  UNL     1     -42.113  -2.339   7.155  1.00  0.00     0.210 HD
ATOM     19  H7  UNL     1     -43.453  -0.363   6.416  1.00  0.00     0.190 HD
ENDBRANCH   5  11
ENDBRANCH   1   5
TORSDOF 4
ENDMDL
MODEL 3
REMARK VINA RESULT: -5.478633048      1.293      2.848
REMARK  4 active torsions:
REMARK  status: ('A' for Active; 'I' for Inactive)
REMARK    1  A    between atoms: N1_2  and  C2_5 
REMARK    2  A    between atoms: C2_5  and  C3_6 
REMARK    3  A    between atoms: C3_6  and  N2_7 
REMARK    4  A    between atoms: C3_6  and  C5_11 
ROOT
HETATM    1  N2  UNL     1     -41.060  -0.024   3.878  1.00  0.00    -0.315 N 
ATOM      2  H2  UNL     1     -41.515   0.590   3.202  1.00  0.00     0.172 HD
HETATM    3  C4  UNL     1     -40.300  -1.102   3.446  1.00  0.00     0.178 C 
HETATM    4  N3  UNL     1     -39.657  -1.998   3.086  1.00  0.00    -0.172 NA
ENDROOT
BRANCH   1   5
HETATM    5  C3  UNL     1     -41.199   0.218   5.295  1.00  0.00     0.188 C 
BRANCH   5   6
HETATM    6  C2  UNL     1     -42.261  -0.691   5.798  1.00  0.00     0.265 C 
BRANCH   6   7
HETATM    7  N1  UNL     1     -41.942  -1.491   6.935  1.00  0.00    -0.077 N 
HETATM    8  C1  UNL     1     -40.527  -1.871   6.830  1.00  0.00     0.267 C 
ATOM      9  H12 UNL     1     -42.562  -2.295   7.041  1.00  0.00     0.276 HD
ATOM     10  H11 UNL     1     -42.165  -1.032   7.818  1.00  0.00     0.276 HD
ENDBRANCH   6   7
ENDBRANCH   5   6
BRANCH   5  11
HETATM   11  C5  UNL     1     -41.452   1.653   5.466  1.00  0.00     0.138 A 
HETATM   12  N4  UNL     1     -42.627   2.210   5.043  1.00  0.00    -0.270 N 
HETATM   13  N5  UNL     1     -42.625   3.502   5.307  1.00  0.00    -0.227 N 
ATOM     14  H4  UNL     1     -43.389   1.704   4.592  1.00  0.00     0.190 HD
HETATM   15  N6  UNL     1     -41.480   3.797   5.890  1.00  0.00    -0.227 N 
ATOM     16  H5  UNL     1     -43.377   4.158   5.098  1.00  0.00     0.210 HD
HETATM   17  N7  UNL     1     -40.789   2.674   5.977  1.00  0.00    -0.270 N 
ATOM     18  H6  UNL     1     -41.183   4.718   6.212  1.00  0.00     0.210 HD
ATOM     19  H7  UNL     1     -39.859   2.605   6.388  1.00  0.00     0.190 HD
ENDBRANCH   5  11
ENDBRANCH   1   5
TORSDOF 4
ENDMDL
MODEL 4
REMARK VINA RESULT: -5.474323181      1.221      4.221
REMARK  4 active torsions:
REMARK  status: ('A' for Active; 'I' for Inactive)
REMARK    1  A    between atoms: N1_2  and  C2_5 
REMARK    2  A    between atoms: C2_5  and  C3_6 
REMARK    3  A    between atoms: C3_6  and  N2_7 
REMARK    4  A    between atoms: C3_6  and  C5_11 
ROOT
HETATM    1  N2  UNL     1     -41.395  -1.453   5.954  1.00  0.00    -0.315 N 
ATOM      2  H2  UNL     1     -42.303  -1.883   5.776  1.00  0.00     0.172 HD
HETATM    3  C4  UNL     1     -40.604  -1.895   7.006  1.00  0.00     0.178 C 
HETATM    4  N3  UNL     1     -39.938  -2.268   7.879  1.00  0.00    -0.172 NA
ENDROOT
BRANCH   1   5
HETATM    5  C3  UNL     1     -40.917  -0.378   5.116  1.00  0.00     0.188 C 
BRANCH   5   6
HETATM    6  C2  UNL     1     -42.030   0.592   4.961  1.00  0.00     0.265 C 
BRANCH   6   7
HETATM    7  N1  UNL     1     -42.821   0.859   6.118  1.00  0.00    -0.077 N 
HETATM    8  C1  UNL     1     -42.667   2.283   6.444  1.00  0.00     0.267 C 
ATOM      9  H12 UNL     1     -42.597   0.246   6.902  1.00  0.00     0.276 HD
ATOM     10  H11 UNL     1     -43.797   0.582   6.004  1.00  0.00     0.276 HD
ENDBRANCH   6   7
ENDBRANCH   5   6
BRANCH   5  11
HETATM   11  C5  UNL     1     -40.421  -0.986   3.875  1.00  0.00     0.138 A 
HETATM   12  N4  UNL     1     -39.591  -2.072   3.911  1.00  0.00    -0.270 N 
HETATM   13  N5  UNL     1     -39.287  -2.438   2.682  1.00  0.00    -0.227 N 
ATOM     14  H4  UNL     1     -39.258  -2.528   4.761  1.00  0.00     0.190 HD
HETATM   15  N6  UNL     1     -39.898  -1.619   1.850  1.00  0.00    -0.227 N 
ATOM     16  H5  UNL     1     -38.685  -3.219   2.421  1.00  0.00     0.210 HD
HETATM   17  N7  UNL     1     -40.574  -0.754   2.584  1.00  0.00    -0.270 N 
ATOM     18  H6  UNL     1     -39.856  -1.647   0.831  1.00  0.00     0.210 HD
ATOM     19  H7  UNL     1     -41.145  -0.001   2.201  1.00  0.00     0.190 HD
ENDBRANCH   5  11
ENDBRANCH   1   5
TORSDOF 4
ENDMDL
MODEL 5
REMARK VINA RESULT: -5.422832908      2.245      4.515
REMARK  4 active torsions:
REMARK  status: ('A' for Active; 'I' for Inactive)
REMARK    1  A    between atoms: N1_2  and  C2_5 
REMARK    2  A    between atoms: C2_5  and  C3_6 
REMARK    3  A    between atoms: C3_6  and  N2_7 
REMARK    4  A    between atoms: C3_6  and  C5_11 
ROOT
HETATM    1  N2  UNL     1     -41.100   2.234   5.052  1.00  0.00    -0.315 N 
ATOM      2  H2  UNL     1     -40.714   2.211   4.108  1.00  0.00     0.172 HD
HETATM    3  C4  UNL     1     -40.572   3.093   6.006  1.00  0.00     0.178 C 
HETATM    4  N3  UNL     1     -40.137   3.816   6.801  1.00  0.00    -0.172 NA
ENDROOT
BRANCH   1   5
HETATM    5  C3  UNL     1     -42.202   1.372   5.413  1.00  0.00     0.188 C 
BRANCH   5   6
HETATM    6  C2  UNL     1     -43.085   2.140   6.326  1.00  0.00     0.265 C 
BRANCH   6   7
HETATM    7  N1  UNL     1     -44.365   2.519   5.822  1.00  0.00    -0.077 N 
HETATM    8  C1  UNL     1     -44.156   3.584   4.831  1.00  0.00     0.267 C 
ATOM      9  H12 UNL     1     -45.019   2.786   6.558  1.00  0.00     0.276 HD
ATOM     10  H11 UNL     1     -44.895   1.730   5.450  1.00  0.00     0.276 HD
ENDBRANCH   6   7
ENDBRANCH   5   6
BRANCH   5  11
HETATM   11  C5  UNL     1     -41.625   0.142   5.967  1.00  0.00     0.138 A 
HETATM   12  N4  UNL     1     -42.414  -0.772   6.609  1.00  0.00    -0.270 N 
HETATM   13  N5  UNL     1     -41.677  -1.789   7.011  1.00  0.00    -0.227 N 
ATOM     14  H4  UNL     1     -43.419  -0.681   6.755  1.00  0.00     0.190 HD
HETATM   15  N6  UNL     1     -40.431  -1.558   6.647  1.00  0.00    -0.227 N 
ATOM     16  H5  UNL     1     -42.011  -2.609   7.515  1.00  0.00     0.210 HD
HETATM   17  N7  UNL     1     -40.420  -0.395   6.020  1.00  0.00    -0.270 N 
ATOM     18  H6  UNL     1     -39.628  -2.163   6.816  1.00  0.00     0.210 HD
ATOM     19  H7  UNL     1     -39.584   0.036   5.627  1.00  0.00     0.190 HD
ENDBRANCH   5  11
ENDBRANCH   1   5
TORSDOF 4
ENDMDL
