MODEL 1
REMARK VINA RESULT: -5.637207783      0.000      0.000
REMARK  5 active torsions:
REMARK  status: ('A' for Active; 'I' for Inactive)
REMARK    1  A    between atoms: S1_2  and  C2_3 
REMARK    2  A    between atoms: C3_9  and  C4_10 
REMARK    3  A    between atoms: C4_10  and  N4_11 
REMARK    4  A    between atoms: N4_11  and  N5_12 
REMARK    5  A    between atoms: N5_12  and  N6_13 
ROOT
HETATM    1  C2  UNL     1     -41.204  -0.516   5.475  1.00  0.00     0.107 A 
HETATM    2  N1  UNL     1     -41.123  -1.019   6.624  1.00  0.00    -0.276 N 
ATOM      3  H1  UNL     1     -41.602  -0.620   7.431  1.00  0.00     0.185 HD
HETATM    4  N2  UNL     1     -40.360  -2.119   6.712  1.00  0.00    -0.021 NA
HETATM    5  N3  UNL     1     -39.964  -2.299   5.441  1.00  0.00    -0.284 N 
ATOM      6  H3  UNL     1     -39.355  -3.061   5.143  1.00  0.00     0.184 HD
HETATM    7  C3  UNL     1     -40.447  -1.386   4.616  1.00  0.00     0.074 A 
ENDROOT
BRANCH   7   8
HETATM    8  C4  UNL     1     -40.323  -1.047   3.185  1.00  0.00     0.193 C 
BRANCH   8   9
HETATM    9  N4  UNL     1     -40.085  -2.271   2.423  1.00  0.00    -0.121 NA
BRANCH   9  10
HETATM   10  N5  UNL     1     -38.642  -2.432   2.420  1.00  0.00    -0.038 NA
BRANCH  10  11
HETATM   11  N6  UNL     1     -38.253  -2.361   1.077  1.00  0.00    -0.332 N 
ATOM     12  H62 UNL     1     -38.727  -1.843   0.337  1.00  0.00     0.173 HD
ATOM     13  H61 UNL     1     -37.410  -2.930   1.002  1.00  0.00     0.173 HD
ENDBRANCH  10  11
ENDBRANCH   9  10
ENDBRANCH   8   9
ENDBRANCH   7   8
BRANCH   1  14
HETATM   14  S1  UNL     1     -41.773   1.108   4.957  1.00  0.00    -0.114 SA
HETATM   15  C1  UNL     1     -42.918   1.639   6.327  1.00  0.00     0.097 C 
ENDBRANCH   1  14
TORSDOF 5
ENDMDL
MODEL 2
REMARK VINA RESULT: -5.347315157      4.336      5.994
REMARK  5 active torsions:
REMARK  status: ('A' for Active; 'I' for Inactive)
REMARK    1  A    between atoms: S1_2  and  C2_3 
REMARK    2  A    between atoms: C3_9  and  C4_10 
REMARK    3  A    between atoms: C4_10  and  N4_11 
REMARK    4  A    between atoms: N4_11  and  N5_12 
REMARK    5  A    between atoms: N5_12  and  N6_13 
ROOT
HETATM    1  C2  UNL     1     -41.508   1.814   5.881  1.00  0.00     0.107 A 
HETATM    2  N1  UNL     1     -40.307   2.103   6.115  1.00  0.00    -0.276 N 
ATOM      3  H1  UNL     1     -39.582   1.393   6.210  1.00  0.00     0.185 HD
HETATM    4  N2  UNL     1     -40.049   3.414   6.233  1.00  0.00    -0.021 NA
HETATM    5  N3  UNL     1     -41.253   3.967   6.010  1.00  0.00    -0.284 N 
ATOM      6  H3  UNL     1     -41.423   4.972   6.028  1.00  0.00     0.184 HD
HETATM    7  C3  UNL     1     -42.194   3.072   5.765  1.00  0.00     0.074 A 
ENDROOT
BRANCH   7   8
HETATM    8  C4  UNL     1     -43.649   3.072   5.515  1.00  0.00     0.193 C 
BRANCH   8   9
HETATM    9  N4  UNL     1     -43.898   3.492   4.138  1.00  0.00    -0.121 NA
BRANCH   9  10
HETATM   10  N5  UNL     1     -43.184   4.749   3.999  1.00  0.00    -0.038 NA
BRANCH  10  11
HETATM   11  N6  UNL     1     -44.103   5.749   4.338  1.00  0.00    -0.332 N 
ATOM     12  H62 UNL     1     -45.092   5.614   4.552  1.00  0.00     0.173 HD
ATOM     13  H61 UNL     1     -43.579   6.624   4.325  1.00  0.00     0.173 HD
ENDBRANCH  10  11
ENDBRANCH   9  10
ENDBRANCH   8   9
ENDBRANCH   7   8
BRANCH   1  14
HETATM   14  S1  UNL     1     -42.371   0.244   6.016  1.00  0.00    -0.114 SA
HETATM   15  C1  UNL     1     -40.999  -1.013   6.122  1.00  0.00     0.097 C 
ENDBRANCH   1  14
TORSDOF 5
ENDMDL
MODEL 3
REMARK VINA RESULT: -5.126352585      2.291      2.865
REMARK  5 active torsions:
REMARK  status: ('A' for Active; 'I' for Inactive)
REMARK    1  A    between atoms: S1_2  and  C2_3 
REMARK    2  A    between atoms: C3_9  and  C4_10 
REMARK    3  A    between atoms: C4_10  and  N4_11 
REMARK    4  A    between atoms: N4_11  and  N5_12 
REMARK    5  A    between atoms: N5_12  and  N6_13 
ROOT
HETATM    1  C2  UNL     1     -40.322  -1.325   4.219  1.00  0.00     0.107 A 
HETATM    2  N1  UNL     1     -40.853  -0.278   3.768  1.00  0.00    -0.276 N 
ATOM      3  H1  UNL     1     -41.350   0.384   4.364  1.00  0.00     0.185 HD
HETATM    4  N2  UNL     1     -40.719  -0.094   2.446  1.00  0.00    -0.021 NA
HETATM    5  N3  UNL     1     -39.989  -1.161   2.079  1.00  0.00    -0.284 N 
ATOM      6  H3  UNL     1     -39.702  -1.342   1.117  1.00  0.00     0.184 HD
HETATM    7  C3  UNL     1     -39.683  -1.950   3.094  1.00  0.00     0.074 A 
ENDROOT
BRANCH   7   8
HETATM    8  C4  UNL     1     -38.984  -3.236   3.292  1.00  0.00     0.193 C 
BRANCH   8   9
HETATM    9  N4  UNL     1     -37.600  -3.101   2.844  1.00  0.00    -0.121 NA
BRANCH   9  10
HETATM   10  N5  UNL     1     -37.697  -2.695   1.454  1.00  0.00    -0.038 NA
BRANCH  10  11
HETATM   11  N6  UNL     1     -37.552  -3.867   0.702  1.00  0.00    -0.332 N 
ATOM     12  H62 UNL     1     -38.027  -4.086  -0.174  1.00  0.00     0.173 HD
ATOM     13  H61 UNL     1     -36.881  -4.442   1.212  1.00  0.00     0.173 HD
ENDBRANCH  10  11
ENDBRANCH   9  10
ENDBRANCH   8   9
ENDBRANCH   7   8
BRANCH   1  14
HETATM   14  S1  UNL     1     -40.555  -2.159   5.793  1.00  0.00    -0.114 SA
HETATM   15  C1  UNL     1     -41.864  -1.145   6.647  1.00  0.00     0.097 C 
ENDBRANCH   1  14
TORSDOF 5
ENDMDL
MODEL 4
REMARK VINA RESULT: -5.099765641      2.937      4.459
REMARK  5 active torsions:
REMARK  status: ('A' for Active; 'I' for Inactive)
REMARK    1  A    between atoms: S1_2  and  C2_3 
REMARK    2  A    between atoms: C3_9  and  C4_10 
REMARK    3  A    between atoms: C4_10  and  N4_11 
REMARK    4  A    between atoms: N4_11  and  N5_12 
REMARK    5  A    between atoms: N5_12  and  N6_13 
ROOT
HETATM    1  C2  UNL     1     -42.227   3.057   5.681  1.00  0.00     0.107 A 
HETATM    2  N1  UNL     1     -41.444   3.984   6.012  1.00  0.00    -0.276 N 
ATOM      3  H1  UNL     1     -41.745   4.956   6.078  1.00  0.00     0.185 HD
HETATM    4  N2  UNL     1     -40.185   3.601   6.270  1.00  0.00    -0.021 NA
HETATM    5  N3  UNL     1     -40.245   2.271   6.094  1.00  0.00    -0.284 N 
ATOM      6  H3  UNL     1     -39.444   1.651   6.209  1.00  0.00     0.184 HD
HETATM    7  C3  UNL     1     -41.452   1.849   5.758  1.00  0.00     0.074 A 
ENDROOT
BRANCH   7   8
HETATM    8  C4  UNL     1     -42.088   0.567   5.395  1.00  0.00     0.193 C 
BRANCH   8   9
HETATM    9  N4  UNL     1     -41.049  -0.403   5.056  1.00  0.00    -0.121 NA
BRANCH   9  10
HETATM   10  N5  UNL     1     -40.542  -0.867   6.334  1.00  0.00    -0.038 NA
BRANCH  10  11
HETATM   11  N6  UNL     1     -41.557  -1.661   6.882  1.00  0.00    -0.332 N 
ATOM     12  H62 UNL     1     -42.404  -1.326   7.341  1.00  0.00     0.173 HD
ATOM     13  H61 UNL     1     -41.270  -2.627   6.724  1.00  0.00     0.173 HD
ENDBRANCH  10  11
ENDBRANCH   9  10
ENDBRANCH   8   9
ENDBRANCH   7   8
BRANCH   1  14
HETATM   14  S1  UNL     1     -43.845   3.127   4.902  1.00  0.00    -0.114 SA
HETATM   15  C1  UNL     1     -44.090   4.938   4.542  1.00  0.00     0.097 C 
ENDBRANCH   1  14
TORSDOF 5
ENDMDL
MODEL 5
REMARK VINA RESULT: -5.016912293      2.302      4.665
REMARK  5 active torsions:
REMARK  status: ('A' for Active; 'I' for Inactive)
REMARK    1  A    between atoms: S1_2  and  C2_3 
REMARK    2  A    between atoms: C3_9  and  C4_10 
REMARK    3  A    between atoms: C4_10  and  N4_11 
REMARK    4  A    between atoms: N4_11  and  N5_12 
REMARK    5  A    between atoms: N5_12  and  N6_13 
ROOT
HETATM    1  C2  UNL     1     -40.395  -1.204   4.648  1.00  0.00     0.107 A 
HETATM    2  N1  UNL     1     -39.999  -2.142   5.386  1.00  0.00    -0.276 N 
ATOM      3  H1  UNL     1     -39.385  -2.883   5.047  1.00  0.00     0.185 HD
HETATM    4  N2  UNL     1     -40.443  -2.099   6.651  1.00  0.00    -0.021 NA
HETATM    5  N3  UNL     1     -41.173  -0.971   6.663  1.00  0.00    -0.284 N 
ATOM      6  H3  UNL     1     -41.669  -0.630   7.486  1.00  0.00     0.184 HD
HETATM    7  C3  UNL     1     -41.181  -0.350   5.496  1.00  0.00     0.074 A 
ENDROOT
BRANCH   7   8
HETATM    8  C4  UNL     1     -41.821   0.844   4.911  1.00  0.00     0.193 C 
BRANCH   8   9
HETATM    9  N4  UNL     1     -41.467   2.016   5.710  1.00  0.00    -0.121 NA
BRANCH   9  10
HETATM   10  N5  UNL     1     -42.472   2.069   6.756  1.00  0.00    -0.038 NA
BRANCH  10  11
HETATM   11  N6  UNL     1     -43.702   2.191   6.099  1.00  0.00    -0.332 N 
ATOM     12  H62 UNL     1     -43.922   2.843   5.345  1.00  0.00     0.173 HD
ATOM     13  H61 UNL     1     -44.316   1.499   6.528  1.00  0.00     0.173 HD
ENDBRANCH  10  11
ENDBRANCH   9  10
ENDBRANCH   8   9
ENDBRANCH   7   8
BRANCH   1  14
HETATM   14  S1  UNL     1     -40.377  -1.049   2.858  1.00  0.00    -0.114 SA
HETATM   15  C1  UNL     1     -39.238  -2.414   2.302  1.00  0.00     0.097 C 
ENDBRANCH   1  14
TORSDOF 5
ENDMDL
