MODEL 1
REMARK VINA RESULT: -7.956846911      0.000      0.000
REMARK  13 active torsions:
REMARK  status: ('A' for Active; 'I' for Inactive)
REMARK    1  A    between atoms: N3_6  and  C3_8 
REMARK    2  A    between atoms: C3_8  and  C4_9 
REMARK    3  A    between atoms: C3_8  and  C6_20 
REMARK    4  A    between atoms: C4_9  and  O1_10 
REMARK    5  A    between atoms: O1_10  and  C5_11 
REMARK    6  A    between atoms: C5_11  and  N4_12 
REMARK    7  A    between atoms: C5_11  and  N5_16 
REMARK    8  A    between atoms: C6_20  and  O2_21 
REMARK    9  A    between atoms: C6_20  and  N6_23 
REMARK   10  A    between atoms: N6_23  and  O3_24 
REMARK       I    between atoms: N6_23  and  C7_26 
REMARK       I    between atoms: C7_26  and  N7_27 
REMARK       I    between atoms: C7_26  and  N8_31 
REMARK   11  A    between atoms: C8_36  and  C9_37 
REMARK   12  A    between atoms: C9_37  and  N9_38 
REMARK   13  A    between atoms: C9_37  and  O4_42 
ROOT
HETATM    1  C3  UNL     1      10.231   1.045   0.162  1.00  0.00     0.109 C 
ENDROOT
BRANCH   1   2
HETATM    2  N3  UNL     1      10.187   1.258   1.530  1.00  0.00    -0.331 N 
HETATM    3  C2  UNL     1      10.712   0.705   2.552  1.00  0.00     0.151 A 
HETATM    4  N2  UNL     1      11.532  -0.328   2.714  1.00  0.00    -0.324 N 
HETATM    5  S1  UNL     1      10.459   1.218   4.179  1.00  0.00    -0.051 SA
HETATM    6  C1  UNL     1      11.907  -0.670   3.909  1.00  0.00     0.136 A 
ATOM      7  H2  UNL     1      11.865  -0.850   1.904  1.00  0.00     0.169 HD
HETATM    8  N1  UNL     1      12.803  -1.788   4.176  1.00  0.00    -0.081 NA
HETATM    9  C8  UNL     1      11.436   0.058   4.969  1.00  0.00     0.082 A 
ATOM     10  H3  UNL     1       9.591   2.047   1.780  1.00  0.00     0.168 HD
BRANCH   9  11
HETATM   11  C9  UNL     1      11.712  -0.126   6.441  1.00  0.00     0.361 C 
BRANCH  11  12
HETATM   12  N9  UNL     1      13.138  -0.176   6.687  1.00  0.00    -0.048 N 
ATOM     13  H93 UNL     1      13.562  -1.016   6.292  1.00  0.00     0.277 HD
ATOM     14  H92 UNL     1      13.642   0.520   6.138  1.00  0.00     0.277 HD
ATOM     15  H91 UNL     1      13.332  -0.086   7.684  1.00  0.00     0.277 HD
ENDBRANCH  11  12
BRANCH  11  16
HETATM   16  O4  UNL     1      11.211   0.986   7.085  1.00  0.00    -0.366 OA
ATOM     17  H4  UNL     1      11.345   0.850   8.016  1.00  0.00     0.212 HD
ENDBRANCH  11  16
ENDBRANCH   9  11
ENDBRANCH   1   2
BRANCH   1  18
HETATM   18  C4  UNL     1       9.028   1.412  -0.657  1.00  0.00     0.173 C 
BRANCH  18  19
HETATM   19  O1  UNL     1       7.958   1.954  -0.135  1.00  0.00    -0.306 OA
BRANCH  19  20
HETATM   20  C5  UNL     1       7.556   3.190   0.009  1.00  0.00     0.523 C 
BRANCH  20  21
HETATM   21  N4  UNL     1       6.081   3.273  -0.101  1.00  0.00    -0.027 N 
ATOM     22  H43 UNL     1       5.721   2.663  -0.836  1.00  0.00     0.279 HD
ATOM     23  H42 UNL     1       5.617   2.840   0.697  1.00  0.00     0.279 HD
ATOM     24  H41 UNL     1       5.786   4.241  -0.233  1.00  0.00     0.279 HD
ENDBRANCH  20  21
BRANCH  20  25
HETATM   25  N5  UNL     1       8.000   4.081  -1.102  1.00  0.00    -0.027 N 
ATOM     26  H53 UNL     1       7.950   5.061  -0.825  1.00  0.00     0.279 HD
ATOM     27  H52 UNL     1       9.005   4.001  -1.254  1.00  0.00     0.279 HD
ATOM     28  H51 UNL     1       7.486   3.922  -1.970  1.00  0.00     0.279 HD
ENDBRANCH  20  25
ENDBRANCH  19  20
ENDBRANCH  18  19
ENDBRANCH   1  18
BRANCH   1  29
HETATM   29  C6  UNL     1      11.497   1.142  -0.589  1.00  0.00     0.195 C 
BRANCH  29  30
HETATM   30  O2  UNL     1      12.480   0.350  -0.229  1.00  0.00    -0.343 OA
ATOM     31  H2  UNL     1      13.312   0.753  -0.008  1.00  0.00     0.219 HD
ENDBRANCH  29  30
BRANCH  29  32
HETATM   32  N6  UNL     1      11.832   1.967  -1.653  1.00  0.00    -0.180 N 
HETATM   33  C7  UNL     1      11.703   1.642  -3.031  1.00  0.00     0.508 C 
HETATM   34  N7  UNL     1      12.970   1.773  -3.746  1.00  0.00    -0.031 N 
HETATM   35  N8  UNL     1      10.745   2.573  -3.655  1.00  0.00    -0.031 N 
ATOM     36  H73 UNL     1      13.370   2.703  -3.621  1.00  0.00     0.279 HD
ATOM     37  H72 UNL     1      13.704   1.221  -3.303  1.00  0.00     0.279 HD
ATOM     38  H71 UNL     1      12.877   1.540  -4.734  1.00  0.00     0.279 HD
ATOM     39  H83 UNL     1       9.846   2.588  -3.174  1.00  0.00     0.279 HD
ATOM     40  H82 UNL     1      11.000   3.550  -3.509  1.00  0.00     0.279 HD
ATOM     41  H81 UNL     1      10.652   2.340  -4.644  1.00  0.00     0.279 HD
BRANCH  32  42
HETATM   42  O3  UNL     1      12.251   3.255  -1.400  1.00  0.00    -0.282 OA
ATOM     43  H3  UNL     1      11.699   3.831  -0.884  1.00  0.00     0.245 HD
ENDBRANCH  32  42
ENDBRANCH  29  32
ENDBRANCH   1  29
TORSDOF 13
ENDMDL
MODEL 2
REMARK VINA RESULT: -7.889932399      0.717      1.106
REMARK  13 active torsions:
REMARK  status: ('A' for Active; 'I' for Inactive)
REMARK    1  A    between atoms: N3_6  and  C3_8 
REMARK    2  A    between atoms: C3_8  and  C4_9 
REMARK    3  A    between atoms: C3_8  and  C6_20 
REMARK    4  A    between atoms: C4_9  and  O1_10 
REMARK    5  A    between atoms: O1_10  and  C5_11 
REMARK    6  A    between atoms: C5_11  and  N4_12 
REMARK    7  A    between atoms: C5_11  and  N5_16 
REMARK    8  A    between atoms: C6_20  and  O2_21 
REMARK    9  A    between atoms: C6_20  and  N6_23 
REMARK   10  A    between atoms: N6_23  and  O3_24 
REMARK       I    between atoms: N6_23  and  C7_26 
REMARK       I    between atoms: C7_26  and  N7_27 
REMARK       I    between atoms: C7_26  and  N8_31 
REMARK   11  A    between atoms: C8_36  and  C9_37 
REMARK   12  A    between atoms: C9_37  and  N9_38 
REMARK   13  A    between atoms: C9_37  and  O4_42 
ROOT
HETATM    1  C3  UNL     1       9.997   1.003   0.451  1.00  0.00     0.109 C 
ENDROOT
BRANCH   1   2
HETATM    2  N3  UNL     1      10.058   1.220   1.818  1.00  0.00    -0.331 N 
HETATM    3  C2  UNL     1      10.653   0.662   2.799  1.00  0.00     0.151 A 
HETATM    4  N2  UNL     1      11.471  -0.379   2.901  1.00  0.00    -0.324 N 
HETATM    5  S1  UNL     1      10.530   1.182   4.439  1.00  0.00    -0.051 SA
HETATM    6  C1  UNL     1      11.932  -0.723   4.065  1.00  0.00     0.136 A 
ATOM      7  H2  UNL     1      11.736  -0.906   2.070  1.00  0.00     0.169 HD
HETATM    8  N1  UNL     1      12.833  -1.850   4.268  1.00  0.00    -0.081 NA
HETATM    9  C8  UNL     1      11.551   0.012   5.156  1.00  0.00     0.082 A 
ATOM     10  H3  UNL     1       9.492   2.016   2.110  1.00  0.00     0.168 HD
BRANCH   9  11
HETATM   11  C9  UNL     1      11.935  -0.171   6.603  1.00  0.00     0.361 C 
BRANCH  11  12
HETATM   12  N9  UNL     1      13.367  -0.029   6.770  1.00  0.00    -0.048 N 
ATOM     13  H93 UNL     1      13.880  -0.388   5.964  1.00  0.00     0.277 HD
ATOM     14  H92 UNL     1      13.659   0.947   6.713  1.00  0.00     0.277 HD
ATOM     15  H91 UNL     1      13.670  -0.466   7.639  1.00  0.00     0.277 HD
ENDBRANCH  11  12
BRANCH  11  16
HETATM   16  O4  UNL     1      11.323   0.840   7.313  1.00  0.00    -0.366 OA
ATOM     17  H4  UNL     1      10.801   0.427   7.990  1.00  0.00     0.212 HD
ENDBRANCH  11  16
ENDBRANCH   9  11
ENDBRANCH   1   2
BRANCH   1  18
HETATM   18  C4  UNL     1       8.704   1.280  -0.258  1.00  0.00     0.173 C 
BRANCH  18  19
HETATM   19  O1  UNL     1       7.772   2.047   0.247  1.00  0.00    -0.306 OA
BRANCH  19  20
HETATM   20  C5  UNL     1       7.487   3.317   0.123  1.00  0.00     0.523 C 
BRANCH  20  21
HETATM   21  N4  UNL     1       6.033   3.504  -0.091  1.00  0.00    -0.027 N 
ATOM     22  H43 UNL     1       5.571   2.631  -0.349  1.00  0.00     0.279 HD
ATOM     23  H42 UNL     1       5.541   3.683   0.785  1.00  0.00     0.279 HD
ATOM     24  H41 UNL     1       5.864   4.240  -0.777  1.00  0.00     0.279 HD
ENDBRANCH  20  21
BRANCH  20  25
HETATM   25  N5  UNL     1       8.061   3.925  -1.113  1.00  0.00    -0.027 N 
ATOM     26  H53 UNL     1       9.079   3.957  -1.064  1.00  0.00     0.279 HD
ATOM     27  H52 UNL     1       7.952   3.298  -1.911  1.00  0.00     0.279 HD
ATOM     28  H51 UNL     1       7.677   4.847  -1.319  1.00  0.00     0.279 HD
ENDBRANCH  20  25
ENDBRANCH  19  20
ENDBRANCH  18  19
ENDBRANCH   1  18
BRANCH   1  29
HETATM   29  C6  UNL     1      11.181   1.185  -0.408  1.00  0.00     0.195 C 
BRANCH  29  30
HETATM   30  O2  UNL     1      12.345   1.327   0.182  1.00  0.00    -0.343 OA
ATOM     31  H2  UNL     1      12.954   1.954  -0.191  1.00  0.00     0.219 HD
ENDBRANCH  29  30
BRANCH  29  32
HETATM   32  N6  UNL     1      11.270   1.234  -1.793  1.00  0.00    -0.180 N 
HETATM   33  C7  UNL     1      11.388   2.415  -2.577  1.00  0.00     0.508 C 
HETATM   34  N7  UNL     1      10.327   2.517  -3.575  1.00  0.00    -0.031 N 
HETATM   35  N8  UNL     1      12.673   2.382  -3.300  1.00  0.00    -0.031 N 
ATOM     36  H73 UNL     1      10.290   1.685  -4.164  1.00  0.00     0.279 HD
ATOM     37  H72 UNL     1       9.406   2.451  -3.144  1.00  0.00     0.279 HD
ATOM     38  H71 UNL     1      10.413   3.364  -4.138  1.00  0.00     0.279 HD
ATOM     39  H83 UNL     1      13.468   2.250  -2.675  1.00  0.00     0.279 HD
ATOM     40  H82 UNL     1      12.786   1.534  -3.854  1.00  0.00     0.279 HD
ATOM     41  H81 UNL     1      12.759   3.228  -3.862  1.00  0.00     0.279 HD
BRANCH  32  42
HETATM   42  O3  UNL     1      11.337   0.057  -2.506  1.00  0.00    -0.282 OA
ATOM     43  H3  UNL     1      10.597  -0.539  -2.490  1.00  0.00     0.245 HD
ENDBRANCH  32  42
ENDBRANCH  29  32
ENDBRANCH   1  29
TORSDOF 13
ENDMDL
MODEL 3
REMARK VINA RESULT: -7.683717573      1.459      1.820
REMARK  13 active torsions:
REMARK  status: ('A' for Active; 'I' for Inactive)
REMARK    1  A    between atoms: N3_6  and  C3_8 
REMARK    2  A    between atoms: C3_8  and  C4_9 
REMARK    3  A    between atoms: C3_8  and  C6_20 
REMARK    4  A    between atoms: C4_9  and  O1_10 
REMARK    5  A    between atoms: O1_10  and  C5_11 
REMARK    6  A    between atoms: C5_11  and  N4_12 
REMARK    7  A    between atoms: C5_11  and  N5_16 
REMARK    8  A    between atoms: C6_20  and  O2_21 
REMARK    9  A    between atoms: C6_20  and  N6_23 
REMARK   10  A    between atoms: N6_23  and  O3_24 
REMARK       I    between atoms: N6_23  and  C7_26 
REMARK       I    between atoms: C7_26  and  N7_27 
REMARK       I    between atoms: C7_26  and  N8_31 
REMARK   11  A    between atoms: C8_36  and  C9_37 
REMARK   12  A    between atoms: C9_37  and  N9_38 
REMARK   13  A    between atoms: C9_37  and  O4_42 
ROOT
HETATM    1  C3  UNL     1       9.413   0.966   0.244  1.00  0.00     0.109 C 
ENDROOT
BRANCH   1   2
HETATM    2  N3  UNL     1      10.266   0.281   1.095  1.00  0.00    -0.331 N 
HETATM    3  C2  UNL     1      10.625   0.407   2.313  1.00  0.00     0.151 A 
HETATM    4  N2  UNL     1      10.316   1.270   3.274  1.00  0.00    -0.324 N 
HETATM    5  S1  UNL     1      11.737  -0.638   3.116  1.00  0.00    -0.051 SA
HETATM    6  C1  UNL     1      10.855   1.145   4.448  1.00  0.00     0.136 A 
ATOM      7  H2  UNL     1       9.659   2.028   3.090  1.00  0.00     0.169 HD
HETATM    8  N1  UNL     1      10.572   2.046   5.558  1.00  0.00    -0.081 NA
HETATM    9  C8  UNL     1      11.731   0.113   4.653  1.00  0.00     0.082 A 
ATOM     10  H3  UNL     1      10.714  -0.513   0.639  1.00  0.00     0.168 HD
BRANCH   9  11
HETATM   11  C9  UNL     1      12.487  -0.255   5.905  1.00  0.00     0.361 C 
BRANCH  11  12
HETATM   12  N9  UNL     1      13.832  -0.683   5.579  1.00  0.00    -0.048 N 
ATOM     13  H93 UNL     1      14.234  -0.127   4.825  1.00  0.00     0.277 HD
ATOM     14  H92 UNL     1      14.495  -0.443   6.316  1.00  0.00     0.277 HD
ATOM     15  H91 UNL     1      13.846  -1.680   5.365  1.00  0.00     0.277 HD
ENDBRANCH  11  12
BRANCH  11  16
HETATM   16  O4  UNL     1      12.581   0.890   6.668  1.00  0.00    -0.366 OA
ATOM     17  H4  UNL     1      13.440   0.882   7.075  1.00  0.00     0.212 HD
ENDBRANCH  11  16
ENDBRANCH   9  11
ENDBRANCH   1   2
BRANCH   1  18
HETATM   18  C4  UNL     1       8.314   1.790   0.847  1.00  0.00     0.173 C 
BRANCH  18  19
HETATM   19  O1  UNL     1       8.286   3.096   0.766  1.00  0.00    -0.306 OA
BRANCH  19  20
HETATM   20  C5  UNL     1       7.490   3.942   0.165  1.00  0.00     0.523 C 
BRANCH  20  21
HETATM   21  N4  UNL     1       6.188   3.305  -0.138  1.00  0.00    -0.027 N 
ATOM     22  H43 UNL     1       5.905   3.460  -1.107  1.00  0.00     0.279 HD
ATOM     23  H42 UNL     1       6.260   2.288  -0.162  1.00  0.00     0.279 HD
ATOM     24  H41 UNL     1       5.474   3.619   0.520  1.00  0.00     0.279 HD
ENDBRANCH  20  21
BRANCH  20  25
HETATM   25  N5  UNL     1       7.969   4.327  -1.195  1.00  0.00    -0.027 N 
ATOM     26  H53 UNL     1       8.868   4.806  -1.142  1.00  0.00     0.279 HD
ATOM     27  H52 UNL     1       8.250   3.504  -1.728  1.00  0.00     0.279 HD
ATOM     28  H51 UNL     1       7.290   4.883  -1.715  1.00  0.00     0.279 HD
ENDBRANCH  20  25
ENDBRANCH  19  20
ENDBRANCH  18  19
ENDBRANCH   1  18
BRANCH   1  29
HETATM   29  C6  UNL     1       9.879   1.480  -1.057  1.00  0.00     0.195 C 
BRANCH  29  30
HETATM   30  O2  UNL     1       8.991   1.602  -2.016  1.00  0.00    -0.343 OA
ATOM     31  H2  UNL     1       8.661   2.473  -2.203  1.00  0.00     0.219 HD
ENDBRANCH  29  30
BRANCH  29  32
HETATM   32  N6  UNL     1      11.152   1.869  -1.449  1.00  0.00    -0.180 N 
HETATM   33  C7  UNL     1      11.571   2.120  -2.785  1.00  0.00     0.508 C 
HETATM   34  N7  UNL     1      12.721   1.301  -3.161  1.00  0.00    -0.031 N 
HETATM   35  N8  UNL     1      11.977   3.532  -2.902  1.00  0.00    -0.031 N 
ATOM     36  H73 UNL     1      13.492   1.421  -2.503  1.00  0.00     0.279 HD
ATOM     37  H72 UNL     1      12.534   0.310  -3.012  1.00  0.00     0.279 HD
ATOM     38  H71 UNL     1      13.021   1.482  -4.119  1.00  0.00     0.279 HD
ATOM     39  H83 UNL     1      11.246   4.174  -2.597  1.00  0.00     0.279 HD
ATOM     40  H82 UNL     1      12.687   3.791  -2.217  1.00  0.00     0.279 HD
ATOM     41  H81 UNL     1      12.277   3.712  -3.860  1.00  0.00     0.279 HD
BRANCH  32  42
HETATM   42  O3  UNL     1      12.103   2.128  -0.487  1.00  0.00    -0.282 OA
ATOM     43  H3  UNL     1      12.398   1.423   0.078  1.00  0.00     0.245 HD
ENDBRANCH  32  42
ENDBRANCH  29  32
ENDBRANCH   1  29
TORSDOF 13
ENDMDL
MODEL 4
REMARK VINA RESULT: -7.601935871      1.680      2.236
REMARK  13 active torsions:
REMARK  status: ('A' for Active; 'I' for Inactive)
REMARK    1  A    between atoms: N3_6  and  C3_8 
REMARK    2  A    between atoms: C3_8  and  C4_9 
REMARK    3  A    between atoms: C3_8  and  C6_20 
REMARK    4  A    between atoms: C4_9  and  O1_10 
REMARK    5  A    between atoms: O1_10  and  C5_11 
REMARK    6  A    between atoms: C5_11  and  N4_12 
REMARK    7  A    between atoms: C5_11  and  N5_16 
REMARK    8  A    between atoms: C6_20  and  O2_21 
REMARK    9  A    between atoms: C6_20  and  N6_23 
REMARK   10  A    between atoms: N6_23  and  O3_24 
REMARK       I    between atoms: N6_23  and  C7_26 
REMARK       I    between atoms: C7_26  and  N7_27 
REMARK       I    between atoms: C7_26  and  N8_31 
REMARK   11  A    between atoms: C8_36  and  C9_37 
REMARK   12  A    between atoms: C9_37  and  N9_38 
REMARK   13  A    between atoms: C9_37  and  O4_42 
ROOT
HETATM    1  C3  UNL     1      10.107   1.280  -0.794  1.00  0.00     0.109 C 
ENDROOT
BRANCH   1   2
HETATM    2  N3  UNL     1      10.601   0.630   0.325  1.00  0.00    -0.331 N 
HETATM    3  C2  UNL     1      10.575   0.841   1.582  1.00  0.00     0.151 A 
HETATM    4  N2  UNL     1      10.051   1.800   2.339  1.00  0.00    -0.324 N 
HETATM    5  S1  UNL     1      11.302  -0.186   2.761  1.00  0.00    -0.051 SA
HETATM    6  C1  UNL     1      10.190   1.749   3.628  1.00  0.00     0.136 A 
ATOM      7  H2  UNL     1       9.543   2.572   1.909  1.00  0.00     0.169 HD
HETATM    8  N1  UNL     1       9.648   2.756   4.532  1.00  0.00    -0.081 NA
HETATM    9  C8  UNL     1      10.879   0.695   4.165  1.00  0.00     0.082 A 
ATOM     10  H3  UNL     1      11.106  -0.223   0.086  1.00  0.00     0.168 HD
BRANCH   9  11
HETATM   11  C9  UNL     1      11.181   0.399   5.614  1.00  0.00     0.361 C 
BRANCH  11  12
HETATM   12  N9  UNL     1      11.691  -0.949   5.760  1.00  0.00    -0.048 N 
ATOM     13  H93 UNL     1      12.182  -1.262   4.922  1.00  0.00     0.277 HD
ATOM     14  H92 UNL     1      12.471  -0.990   6.417  1.00  0.00     0.277 HD
ATOM     15  H91 UNL     1      10.941  -1.588   6.021  1.00  0.00     0.277 HD
ENDBRANCH  11  12
BRANCH  11  16
HETATM   16  O4  UNL     1      12.175   1.272   6.004  1.00  0.00    -0.366 OA
ATOM     17  H4  UNL     1      12.408   1.045   6.896  1.00  0.00     0.212 HD
ENDBRANCH  11  16
ENDBRANCH   9  11
ENDBRANCH   1   2
BRANCH   1  18
HETATM   18  C4  UNL     1       8.638   1.581  -0.854  1.00  0.00     0.173 C 
BRANCH  18  19
HETATM   19  O1  UNL     1       8.029   2.308   0.047  1.00  0.00    -0.306 OA
BRANCH  19  20
HETATM   20  C5  UNL     1       7.551   3.525   0.047  1.00  0.00     0.523 C 
BRANCH  20  21
HETATM   21  N4  UNL     1       6.074   3.503  -0.070  1.00  0.00    -0.027 N 
ATOM     22  H43 UNL     1       5.770   3.109  -0.960  1.00  0.00     0.279 HD
ATOM     23  H42 UNL     1       5.655   2.812   0.553  1.00  0.00     0.279 HD
ATOM     24  H41 UNL     1       5.689   4.435   0.084  1.00  0.00     0.279 HD
ENDBRANCH  20  21
BRANCH  20  25
HETATM   25  N5  UNL     1       7.944   4.306  -1.162  1.00  0.00    -0.027 N 
ATOM     26  H53 UNL     1       8.224   3.686  -1.921  1.00  0.00     0.279 HD
ATOM     27  H52 UNL     1       7.130   4.743  -1.594  1.00  0.00     0.279 HD
ATOM     28  H51 UNL     1       8.670   4.998  -0.971  1.00  0.00     0.279 HD
ENDBRANCH  20  25
ENDBRANCH  19  20
ENDBRANCH  18  19
ENDBRANCH   1  18
BRANCH   1  29
HETATM   29  C6  UNL     1      10.930   2.248  -1.544  1.00  0.00     0.195 C 
BRANCH  29  30
HETATM   30  O2  UNL     1      12.140   2.492  -1.099  1.00  0.00    -0.343 OA
ATOM     31  H2  UNL     1      12.566   1.814  -0.587  1.00  0.00     0.219 HD
ENDBRANCH  29  30
BRANCH  29  32
HETATM   32  N6  UNL     1      10.620   2.973  -2.686  1.00  0.00    -0.180 N 
HETATM   33  C7  UNL     1      11.373   4.059  -3.212  1.00  0.00     0.508 C 
HETATM   34  N7  UNL     1      10.564   5.266  -3.359  1.00  0.00    -0.031 N 
HETATM   35  N8  UNL     1      11.867   3.693  -4.553  1.00  0.00    -0.031 N 
ATOM     36  H73 UNL     1       9.731   5.088  -3.920  1.00  0.00     0.279 HD
ATOM     37  H72 UNL     1      10.116   5.520  -2.479  1.00  0.00     0.279 HD
ATOM     38  H71 UNL     1      11.105   6.044  -3.737  1.00  0.00     0.279 HD
ATOM     39  H83 UNL     1      12.394   2.820  -4.548  1.00  0.00     0.279 HD
ATOM     40  H82 UNL     1      11.116   3.401  -5.178  1.00  0.00     0.279 HD
ATOM     41  H81 UNL     1      12.408   4.470  -4.930  1.00  0.00     0.279 HD
BRANCH  32  42
HETATM   42  O3  UNL     1       9.543   2.589  -3.456  1.00  0.00    -0.282 OA
ATOM     43  H3  UNL     1       9.569   1.754  -3.908  1.00  0.00     0.245 HD
ENDBRANCH  32  42
ENDBRANCH  29  32
ENDBRANCH   1  29
TORSDOF 13
ENDMDL
MODEL 5
REMARK VINA RESULT: -7.594050058      1.598      1.859
REMARK  13 active torsions:
REMARK  status: ('A' for Active; 'I' for Inactive)
REMARK    1  A    between atoms: N3_6  and  C3_8 
REMARK    2  A    between atoms: C3_8  and  C4_9 
REMARK    3  A    between atoms: C3_8  and  C6_20 
REMARK    4  A    between atoms: C4_9  and  O1_10 
REMARK    5  A    between atoms: O1_10  and  C5_11 
REMARK    6  A    between atoms: C5_11  and  N4_12 
REMARK    7  A    between atoms: C5_11  and  N5_16 
REMARK    8  A    between atoms: C6_20  and  O2_21 
REMARK    9  A    between atoms: C6_20  and  N6_23 
REMARK   10  A    between atoms: N6_23  and  O3_24 
REMARK       I    between atoms: N6_23  and  C7_26 
REMARK       I    between atoms: C7_26  and  N7_27 
REMARK       I    between atoms: C7_26  and  N8_31 
REMARK   11  A    between atoms: C8_36  and  C9_37 
REMARK   12  A    between atoms: C9_37  and  N9_38 
REMARK   13  A    between atoms: C9_37  and  O4_42 
ROOT
HETATM    1  C3  UNL     1       9.972   0.607   0.391  1.00  0.00     0.109 C 
ENDROOT
BRANCH   1   2
HETATM    2  N3  UNL     1      10.727  -0.045   1.352  1.00  0.00    -0.331 N 
HETATM    3  C2  UNL     1      10.978   0.142   2.589  1.00  0.00     0.151 A 
HETATM    4  N2  UNL     1      10.605   1.064   3.469  1.00  0.00    -0.324 N 
HETATM    5  S1  UNL     1      11.986  -0.879   3.546  1.00  0.00    -0.051 SA
HETATM    6  C1  UNL     1      11.032   0.994   4.693  1.00  0.00     0.136 A 
ATOM      7  H2  UNL     1       9.987   1.823   3.185  1.00  0.00     0.169 HD
HETATM    8  N1  UNL     1      10.674   1.962   5.722  1.00  0.00    -0.081 NA
HETATM    9  C8  UNL     1      11.861  -0.042   5.032  1.00  0.00     0.082 A 
ATOM     10  H3  UNL     1      11.194  -0.873   0.983  1.00  0.00     0.168 HD
BRANCH   9  11
HETATM   11  C9  UNL     1      12.491  -0.354   6.367  1.00  0.00     0.361 C 
BRANCH  11  12
HETATM   12  N9  UNL     1      13.850  -0.821   6.190  1.00  0.00    -0.048 N 
ATOM     13  H93 UNL     1      13.909  -1.558   5.486  1.00  0.00     0.277 HD
ATOM     14  H92 UNL     1      14.433  -0.123   5.728  1.00  0.00     0.277 HD
ATOM     15  H91 UNL     1      14.246  -1.116   7.082  1.00  0.00     0.277 HD
ENDBRANCH  11  12
BRANCH  11  16
HETATM   16  O4  UNL     1      12.539   0.829   7.075  1.00  0.00    -0.366 OA
ATOM     17  H4  UNL     1      12.830   0.615   7.953  1.00  0.00     0.212 HD
ENDBRANCH  11  16
ENDBRANCH   9  11
ENDBRANCH   1   2
BRANCH   1  18
HETATM   18  C4  UNL     1       8.650   1.190   0.796  1.00  0.00     0.173 C 
BRANCH  18  19
HETATM   19  O1  UNL     1       7.933   1.937  -0.004  1.00  0.00    -0.306 OA
BRANCH  19  20
HETATM   20  C5  UNL     1       7.604   3.202   0.003  1.00  0.00     0.523 C 
BRANCH  20  21
HETATM   21  N4  UNL     1       6.134   3.357  -0.103  1.00  0.00    -0.027 N 
ATOM     22  H43 UNL     1       5.877   4.198  -0.620  1.00  0.00     0.279 HD
ATOM     23  H42 UNL     1       5.724   2.663  -0.728  1.00  0.00     0.279 HD
ATOM     24  H41 UNL     1       5.704   3.334   0.823  1.00  0.00     0.279 HD
ENDBRANCH  20  21
BRANCH  20  25
HETATM   25  N5  UNL     1       8.079   3.935  -1.206  1.00  0.00    -0.027 N 
ATOM     26  H53 UNL     1       8.227   4.923  -0.998  1.00  0.00     0.279 HD
ATOM     27  H52 UNL     1       9.035   3.669  -1.440  1.00  0.00     0.279 HD
ATOM     28  H51 UNL     1       7.461   3.821  -2.010  1.00  0.00     0.279 HD
ENDBRANCH  20  25
ENDBRANCH  19  20
ENDBRANCH  18  19
ENDBRANCH   1  18
BRANCH   1  29
HETATM   29  C6  UNL     1      10.610   1.333  -0.723  1.00  0.00     0.195 C 
BRANCH  29  30
HETATM   30  O2  UNL     1      11.491   2.258  -0.421  1.00  0.00    -0.343 OA
ATOM     31  H2  UNL     1      12.086   2.539  -1.106  1.00  0.00     0.219 HD
ENDBRANCH  29  30
BRANCH  29  32
HETATM   32  N6  UNL     1      10.422   1.194  -2.091  1.00  0.00    -0.180 N 
HETATM   33  C7  UNL     1      11.381   0.701  -3.018  1.00  0.00     0.508 C 
HETATM   34  N7  UNL     1      11.641   1.652  -4.095  1.00  0.00    -0.031 N 
HETATM   35  N8  UNL     1      10.861  -0.533  -3.634  1.00  0.00    -0.031 N 
ATOM     36  H73 UNL     1      10.778   1.923  -4.566  1.00  0.00     0.279 HD
ATOM     37  H72 UNL     1      11.917   2.562  -3.727  1.00  0.00     0.279 HD
ATOM     38  H71 UNL     1      12.329   1.298  -4.759  1.00  0.00     0.279 HD
ATOM     39  H83 UNL     1      10.596  -1.232  -2.941  1.00  0.00     0.279 HD
ATOM     40  H82 UNL     1       9.944  -0.400  -4.059  1.00  0.00     0.279 HD
ATOM     41  H81 UNL     1      11.549  -0.887  -4.298  1.00  0.00     0.279 HD
BRANCH  32  42
HETATM   42  O3  UNL     1       9.184   1.467  -2.631  1.00  0.00    -0.282 OA
ATOM     43  H3  UNL     1       8.484   0.832  -2.533  1.00  0.00     0.245 HD
ENDBRANCH  32  42
ENDBRANCH  29  32
ENDBRANCH   1  29
TORSDOF 13
ENDMDL
