MODEL 1
REMARK VINA RESULT: -6.508906458      0.000      0.000
REMARK  11 active torsions:
REMARK  status: ('A' for Active; 'I' for Inactive)
REMARK    1  A    between atoms: C2_2  and  C3_3 
REMARK    2  A    between atoms: C2_2  and  C5_11 
REMARK    3  A    between atoms: C3_3  and  N1_4 
REMARK    4  A    between atoms: C3_3  and  C4_8 
REMARK    5  A    between atoms: C5_11  and  C6_12 
REMARK    6  A    between atoms: C5_11  and  N3_19 
REMARK    7  A    between atoms: C6_12  and  N2_13 
REMARK    8  A    between atoms: C6_12  and  O3_17 
REMARK    9  A    between atoms: C9_25  and  N6_26 
REMARK   10  A    between atoms: N7_29  and  N8_30 
REMARK   11  A    between atoms: C10_33  and  N9_34 
ROOT
HETATM    1  N3  UNL     1      11.303   3.618  -2.857  1.00  0.00    -0.295 N 
HETATM    2  C7  UNL     1      10.072   4.055  -3.122  1.00  0.00     0.197 A 
HETATM    3  N4  UNL     1       9.632   5.007  -4.085  1.00  0.00    -0.063 NA
HETATM    4  N5  UNL     1       9.154   3.450  -2.307  1.00  0.00    -0.324 N 
ATOM      5  H5  UNL     1       8.145   3.600  -2.299  1.00  0.00     0.169 HD
HETATM    6  C8  UNL     1       9.849   2.625  -1.528  1.00  0.00     0.126 A 
HETATM    7  C9  UNL     1       9.425   1.757  -0.513  1.00  0.00     0.169 A 
HETATM    8  N7  UNL     1      10.333   1.022   0.132  1.00  0.00    -0.075 N 
HETATM    9  C10 UNL     1      11.637   1.133  -0.212  1.00  0.00     0.700 A 
HETATM   10  N10 UNL     1      12.054   1.958  -1.180  1.00  0.00    -0.172 N 
ATOM     11  H10 UNL     1      13.046   2.011  -1.410  1.00  0.00     0.186 HD
HETATM   12  C11 UNL     1      11.164   2.720  -1.856  1.00  0.00     0.157 A 
ENDROOT
BRANCH   1  13
HETATM   13  C5  UNL     1      12.559   3.964  -3.454  1.00  0.00     0.156 C 
BRANCH  13  14
HETATM   14  C2  UNL     1      12.703   5.378  -3.857  1.00  0.00     0.050 C 
HETATM   15  C1  UNL     1      13.902   5.658  -4.706  1.00  0.00     0.015 C 
BRANCH  14  16
HETATM   16  C3  UNL     1      12.764   6.361  -2.699  1.00  0.00     0.289 C 
BRANCH  16  17
HETATM   17  N1  UNL     1      13.160   7.640  -3.332  1.00  0.00    -0.065 N 
ATOM     18  H13 UNL     1      12.886   8.470  -2.808  1.00  0.00     0.275 HD
ATOM     19  H12 UNL     1      14.163   7.824  -3.314  1.00  0.00     0.275 HD
ATOM     20  H11 UNL     1      12.760   7.586  -4.269  1.00  0.00     0.275 HD
ENDBRANCH  16  17
BRANCH  16  21
HETATM   21  C4  UNL     1      13.778   6.001  -1.686  1.00  0.00     0.204 C 
HETATM   22  O1  UNL     1      13.446   5.348  -0.678  1.00  0.00    -0.646 OA
HETATM   23  O2  UNL     1      15.101   6.376  -1.833  1.00  0.00    -0.646 OA
ENDBRANCH  16  21
ENDBRANCH  14  16
ENDBRANCH  13  14
BRANCH  13  24
HETATM   24  C6  UNL     1      12.764   3.023  -4.618  1.00  0.00     0.340 C 
BRANCH  24  25
HETATM   25  N2  UNL     1      11.712   3.086  -5.596  1.00  0.00    -0.051 N 
ATOM     26  H23 UNL     1      10.798   3.073  -5.144  1.00  0.00     0.277 HD
ATOM     27  H22 UNL     1      11.675   4.009  -6.028  1.00  0.00     0.277 HD
ATOM     28  H21 UNL     1      11.775   2.357  -6.306  1.00  0.00     0.277 HD
ENDBRANCH  24  25
BRANCH  24  29
HETATM   29  O3  UNL     1      12.962   1.703  -4.217  1.00  0.00    -0.368 OA
ATOM     30  H3  UNL     1      13.810   1.363  -4.475  1.00  0.00     0.212 HD
ENDBRANCH  24  29
ENDBRANCH  13  24
ENDBRANCH   1  13
BRANCH   7  31
HETATM   31  N6  UNL     1       8.172   1.689  -0.224  1.00  0.00    -0.382 N 
ATOM     32  H62 UNL     1       7.732   2.357   0.409  1.00  0.00     0.157 HD
ATOM     33  H61 UNL     1       7.604   0.949  -0.638  1.00  0.00     0.157 HD
ENDBRANCH   7  31
BRANCH   9  34
HETATM   34  N9  UNL     1      12.496   0.394   0.444  1.00  0.00    -0.233 N 
ATOM     35  H92 UNL     1      12.464   0.347   1.463  1.00  0.00     0.174 HD
ATOM     36  H91 UNL     1      13.185  -0.122  -0.104  1.00  0.00     0.174 HD
ENDBRANCH   9  34
BRANCH   8  37
HETATM   37  N8  UNL     1       9.891   0.164   1.139  1.00  0.00    -0.322 N 
ATOM     38  H82 UNL     1       9.689   0.485   2.086  1.00  0.00     0.178 HD
ATOM     39  H81 UNL     1       9.768  -0.823   0.912  1.00  0.00     0.178 HD
ENDBRANCH   8  37
TORSDOF 11
ENDMDL
MODEL 2
REMARK VINA RESULT: -6.484246636      2.073      2.735
REMARK  11 active torsions:
REMARK  status: ('A' for Active; 'I' for Inactive)
REMARK    1  A    between atoms: C2_2  and  C3_3 
REMARK    2  A    between atoms: C2_2  and  C5_11 
REMARK    3  A    between atoms: C3_3  and  N1_4 
REMARK    4  A    between atoms: C3_3  and  C4_8 
REMARK    5  A    between atoms: C5_11  and  C6_12 
REMARK    6  A    between atoms: C5_11  and  N3_19 
REMARK    7  A    between atoms: C6_12  and  N2_13 
REMARK    8  A    between atoms: C6_12  and  O3_17 
REMARK    9  A    between atoms: C9_25  and  N6_26 
REMARK   10  A    between atoms: N7_29  and  N8_30 
REMARK   11  A    between atoms: C10_33  and  N9_34 
ROOT
HETATM    1  N3  UNL     1      10.363   2.617  -2.143  1.00  0.00    -0.295 N 
HETATM    2  C7  UNL     1       9.397   3.387  -2.643  1.00  0.00     0.197 A 
HETATM    3  N4  UNL     1       9.290   3.996  -3.925  1.00  0.00    -0.063 NA
HETATM    4  N5  UNL     1       8.396   3.569  -1.727  1.00  0.00    -0.324 N 
ATOM      5  H5  UNL     1       7.541   4.112  -1.850  1.00  0.00     0.169 HD
HETATM    6  C8  UNL     1       8.767   2.892  -0.644  1.00  0.00     0.126 A 
HETATM    7  C9  UNL     1       8.129   2.728   0.592  1.00  0.00     0.169 A 
HETATM    8  N7  UNL     1       8.717   1.987   1.533  1.00  0.00    -0.075 N 
HETATM    9  C10 UNL     1       9.913   1.413   1.268  1.00  0.00     0.700 A 
HETATM   10  N10 UNL     1      10.533   1.561   0.091  1.00  0.00    -0.172 N 
ATOM     11  H10 UNL     1      11.434   1.111  -0.069  1.00  0.00     0.186 HD
HETATM   12  C11 UNL     1       9.969   2.305  -0.887  1.00  0.00     0.157 A 
ENDROOT
BRANCH   1  13
HETATM   13  C5  UNL     1      11.587   2.162  -2.734  1.00  0.00     0.156 C 
BRANCH  13  14
HETATM   14  C2  UNL     1      12.037   2.917  -3.922  1.00  0.00     0.050 C 
HETATM   15  C1  UNL     1      12.544   2.062  -5.039  1.00  0.00     0.015 C 
BRANCH  14  16
HETATM   16  C3  UNL     1      13.125   3.941  -3.644  1.00  0.00     0.289 C 
BRANCH  16  17
HETATM   17  N1  UNL     1      12.773   4.487  -2.313  1.00  0.00    -0.065 N 
ATOM     18  H13 UNL     1      13.424   5.189  -1.963  1.00  0.00     0.275 HD
ATOM     19  H12 UNL     1      11.950   5.090  -2.311  1.00  0.00     0.275 HD
ATOM     20  H11 UNL     1      12.689   3.661  -1.720  1.00  0.00     0.275 HD
ENDBRANCH  16  17
BRANCH  16  21
HETATM   21  C4  UNL     1      13.140   5.050  -4.621  1.00  0.00     0.204 C 
HETATM   22  O1  UNL     1      14.206   5.649  -4.865  1.00  0.00    -0.646 OA
HETATM   23  O2  UNL     1      11.988   5.442  -5.277  1.00  0.00    -0.646 OA
ENDBRANCH  16  21
ENDBRANCH  14  16
ENDBRANCH  13  14
BRANCH  13  24
HETATM   24  C6  UNL     1      11.407   0.693  -3.035  1.00  0.00     0.340 C 
BRANCH  24  25
HETATM   25  N2  UNL     1      10.033   0.307  -3.201  1.00  0.00    -0.051 N 
ATOM     26  H23 UNL     1       9.761  -0.373  -2.491  1.00  0.00     0.277 HD
ATOM     27  H22 UNL     1       9.409   1.073  -2.949  1.00  0.00     0.277 HD
ATOM     28  H21 UNL     1       9.820  -0.041  -4.135  1.00  0.00     0.277 HD
ENDBRANCH  24  25
BRANCH  24  29
HETATM   29  O3  UNL     1      12.021  -0.130  -2.092  1.00  0.00    -0.368 OA
ATOM     30  H3  UNL     1      11.614  -0.986  -2.029  1.00  0.00     0.212 HD
ENDBRANCH  24  29
ENDBRANCH  13  24
ENDBRANCH   1  13
BRANCH   7  31
HETATM   31  N6  UNL     1       6.991   3.296   0.794  1.00  0.00    -0.382 N 
ATOM     32  H62 UNL     1       6.741   4.172   0.335  1.00  0.00     0.157 HD
ATOM     33  H61 UNL     1       6.320   2.860   1.428  1.00  0.00     0.157 HD
ENDBRANCH   7  31
BRANCH   9  34
HETATM   34  N9  UNL     1      10.457   0.692   2.217  1.00  0.00    -0.233 N 
ATOM     35  H92 UNL     1      10.522  -0.321   2.122  1.00  0.00     0.174 HD
ATOM     36  H91 UNL     1      10.805   1.187   3.039  1.00  0.00     0.174 HD
ENDBRANCH   9  34
BRANCH   8  37
HETATM   37  N8  UNL     1       8.064   1.836   2.757  1.00  0.00    -0.322 N 
ATOM     38  H82 UNL     1       7.741   2.630   3.310  1.00  0.00     0.178 HD
ATOM     39  H81 UNL     1       7.909   0.891   3.106  1.00  0.00     0.178 HD
ENDBRANCH   8  37
TORSDOF 11
ENDMDL
MODEL 3
REMARK VINA RESULT: -6.477643771      2.614      3.412
REMARK  11 active torsions:
REMARK  status: ('A' for Active; 'I' for Inactive)
REMARK    1  A    between atoms: C2_2  and  C3_3 
REMARK    2  A    between atoms: C2_2  and  C5_11 
REMARK    3  A    between atoms: C3_3  and  N1_4 
REMARK    4  A    between atoms: C3_3  and  C4_8 
REMARK    5  A    between atoms: C5_11  and  C6_12 
REMARK    6  A    between atoms: C5_11  and  N3_19 
REMARK    7  A    between atoms: C6_12  and  N2_13 
REMARK    8  A    between atoms: C6_12  and  O3_17 
REMARK    9  A    between atoms: C9_25  and  N6_26 
REMARK   10  A    between atoms: N7_29  and  N8_30 
REMARK   11  A    between atoms: C10_33  and  N9_34 
ROOT
HETATM    1  N3  UNL     1      12.385   4.919  -3.574  1.00  0.00    -0.295 N 
HETATM    2  C7  UNL     1      11.246   5.009  -2.887  1.00  0.00     0.197 A 
HETATM    3  N4  UNL     1      10.623   6.149  -2.304  1.00  0.00    -0.063 NA
HETATM    4  N5  UNL     1      10.649   3.783  -2.770  1.00  0.00    -0.324 N 
ATOM      5  H5  UNL     1       9.771   3.569  -2.296  1.00  0.00     0.169 HD
HETATM    6  C8  UNL     1      11.448   2.929  -3.404  1.00  0.00     0.126 A 
HETATM    7  C9  UNL     1      11.331   1.546  -3.601  1.00  0.00     0.169 A 
HETATM    8  N7  UNL     1      12.282   0.906  -4.282  1.00  0.00    -0.075 N 
HETATM    9  C10 UNL     1      13.333   1.608  -4.766  1.00  0.00     0.700 A 
HETATM   10  N10 UNL     1      13.456   2.928  -4.585  1.00  0.00    -0.172 N 
ATOM     11  H10 UNL     1      14.264   3.421  -4.967  1.00  0.00     0.186 HD
HETATM   12  C11 UNL     1      12.513   3.613  -3.899  1.00  0.00     0.157 A 
ENDROOT
BRANCH   1  13
HETATM   13  C5  UNL     1      13.330   5.932  -3.941  1.00  0.00     0.156 C 
BRANCH  13  14
HETATM   14  C2  UNL     1      13.556   6.986  -2.930  1.00  0.00     0.050 C 
HETATM   15  C1  UNL     1      13.066   8.340  -3.333  1.00  0.00     0.015 C 
BRANCH  14  16
HETATM   16  C3  UNL     1      15.008   7.164  -2.517  1.00  0.00     0.289 C 
BRANCH  16  17
HETATM   17  N1  UNL     1      15.776   6.603  -3.652  1.00  0.00    -0.065 N 
ATOM     18  H13 UNL     1      16.194   5.692  -3.465  1.00  0.00     0.275 HD
ATOM     19  H12 UNL     1      15.201   6.300  -4.438  1.00  0.00     0.275 HD
ATOM     20  H11 UNL     1      16.449   7.334  -3.881  1.00  0.00     0.275 HD
ENDBRANCH  16  17
BRANCH  16  21
HETATM   21  C4  UNL     1      15.358   6.416  -1.292  1.00  0.00     0.204 C 
HETATM   22  O1  UNL     1      14.475   5.796  -0.668  1.00  0.00    -0.646 OA
HETATM   23  O2  UNL     1      16.657   6.385  -0.818  1.00  0.00    -0.646 OA
ENDBRANCH  16  21
ENDBRANCH  14  16
ENDBRANCH  13  14
BRANCH  13  24
HETATM   24  C6  UNL     1      12.867   6.505  -5.259  1.00  0.00     0.340 C 
BRANCH  24  25
HETATM   25  N2  UNL     1      11.862   5.708  -5.908  1.00  0.00    -0.051 N 
ATOM     26  H23 UNL     1      10.973   5.775  -5.413  1.00  0.00     0.277 HD
ATOM     27  H22 UNL     1      11.592   6.123  -6.799  1.00  0.00     0.277 HD
ATOM     28  H21 UNL     1      12.135   4.734  -6.031  1.00  0.00     0.277 HD
ENDBRANCH  24  25
BRANCH  24  29
HETATM   29  O3  UNL     1      13.919   6.752  -6.140  1.00  0.00    -0.368 OA
ATOM     30  H3  UNL     1      13.624   7.042  -6.995  1.00  0.00     0.212 HD
ENDBRANCH  24  29
ENDBRANCH  13  24
ENDBRANCH   1  13
BRANCH   7  31
HETATM   31  N6  UNL     1      10.311   0.925  -3.119  1.00  0.00    -0.382 N 
ATOM     32  H62 UNL     1      10.027   1.037  -2.146  1.00  0.00     0.157 HD
ATOM     33  H61 UNL     1       9.772   0.306  -3.725  1.00  0.00     0.157 HD
ENDBRANCH   7  31
BRANCH   9  34
HETATM   34  N9  UNL     1      14.246   0.942  -5.431  1.00  0.00    -0.233 N 
ATOM     35  H92 UNL     1      14.026   0.535  -6.340  1.00  0.00     0.174 HD
ATOM     36  H91 UNL     1      15.166   0.854  -5.000  1.00  0.00     0.174 HD
ENDBRANCH   9  34
BRANCH   8  37
HETATM   37  N8  UNL     1      12.147  -0.470  -4.468  1.00  0.00    -0.322 N 
ATOM     38  H82 UNL     1      11.240  -0.933  -4.510  1.00  0.00     0.178 HD
ATOM     39  H81 UNL     1      12.995  -1.029  -4.562  1.00  0.00     0.178 HD
ENDBRANCH   8  37
TORSDOF 11
ENDMDL
MODEL 4
REMARK VINA RESULT: -6.338076912      2.805      3.964
REMARK  11 active torsions:
REMARK  status: ('A' for Active; 'I' for Inactive)
REMARK    1  A    between atoms: C2_2  and  C3_3 
REMARK    2  A    between atoms: C2_2  and  C5_11 
REMARK    3  A    between atoms: C3_3  and  N1_4 
REMARK    4  A    between atoms: C3_3  and  C4_8 
REMARK    5  A    between atoms: C5_11  and  C6_12 
REMARK    6  A    between atoms: C5_11  and  N3_19 
REMARK    7  A    between atoms: C6_12  and  N2_13 
REMARK    8  A    between atoms: C6_12  and  O3_17 
REMARK    9  A    between atoms: C9_25  and  N6_26 
REMARK   10  A    between atoms: N7_29  and  N8_30 
REMARK   11  A    between atoms: C10_33  and  N9_34 
ROOT
HETATM    1  N3  UNL     1      11.859   5.013  -3.830  1.00  0.00    -0.295 N 
HETATM    2  C7  UNL     1      10.883   4.779  -2.953  1.00  0.00     0.197 A 
HETATM    3  N4  UNL     1      10.126   5.694  -2.167  1.00  0.00    -0.063 NA
HETATM    4  N5  UNL     1      10.631   3.438  -2.851  1.00  0.00    -0.324 N 
ATOM      5  H5  UNL     1       9.937   2.986  -2.256  1.00  0.00     0.169 HD
HETATM    6  C8  UNL     1      11.478   2.845  -3.689  1.00  0.00     0.126 A 
HETATM    7  C9  UNL     1      11.661   1.489  -3.992  1.00  0.00     0.169 A 
HETATM    8  N7  UNL     1      12.592   1.144  -4.883  1.00  0.00    -0.075 N 
HETATM    9  C10 UNL     1      13.333   2.112  -5.471  1.00  0.00     0.700 A 
HETATM   10  N10 UNL     1      13.166   3.411  -5.191  1.00  0.00    -0.172 N 
ATOM     11  H10 UNL     1      13.745   4.109  -5.658  1.00  0.00     0.186 HD
HETATM   12  C11 UNL     1      12.233   3.799  -4.293  1.00  0.00     0.157 A 
ENDROOT
BRANCH   1  13
HETATM   13  C5  UNL     1      12.446   6.249  -4.256  1.00  0.00     0.156 C 
BRANCH  13  14
HETATM   14  C2  UNL     1      13.282   6.936  -3.249  1.00  0.00     0.050 C 
HETATM   15  C1  UNL     1      14.130   8.038  -3.801  1.00  0.00     0.015 C 
BRANCH  14  16
HETATM   16  C3  UNL     1      14.221   6.023  -2.479  1.00  0.00     0.289 C 
BRANCH  16  17
HETATM   17  N1  UNL     1      13.635   5.967  -1.120  1.00  0.00    -0.065 N 
ATOM     18  H13 UNL     1      14.258   6.294  -0.382  1.00  0.00     0.275 HD
ATOM     19  H12 UNL     1      12.898   6.652  -0.954  1.00  0.00     0.275 HD
ATOM     20  H11 UNL     1      13.338   4.997  -1.018  1.00  0.00     0.275 HD
ENDBRANCH  16  17
BRANCH  16  21
HETATM   21  C4  UNL     1      15.596   6.556  -2.380  1.00  0.00     0.204 C 
HETATM   22  O1  UNL     1      16.483   6.136  -3.149  1.00  0.00    -0.646 OA
HETATM   23  O2  UNL     1      15.924   7.520  -1.445  1.00  0.00    -0.646 OA
ENDBRANCH  16  21
ENDBRANCH  14  16
ENDBRANCH  13  14
BRANCH  13  24
HETATM   24  C6  UNL     1      11.317   7.125  -4.744  1.00  0.00     0.340 C 
BRANCH  24  25
HETATM   25  N2  UNL     1      11.607   7.797  -5.981  1.00  0.00    -0.051 N 
ATOM     26  H23 UNL     1      12.132   8.654  -5.811  1.00  0.00     0.277 HD
ATOM     27  H22 UNL     1      12.299   7.277  -6.521  1.00  0.00     0.277 HD
ATOM     28  H21 UNL     1      10.778   7.986  -6.543  1.00  0.00     0.277 HD
ENDBRANCH  24  25
BRANCH  24  29
HETATM   29  O3  UNL     1      10.899   8.050  -3.788  1.00  0.00    -0.368 OA
ATOM     30  H3  UNL     1      11.594   8.305  -3.193  1.00  0.00     0.212 HD
ENDBRANCH  24  29
ENDBRANCH  13  24
ENDBRANCH   1  13
BRANCH   7  31
HETATM   31  N6  UNL     1      10.930   0.607  -3.404  1.00  0.00    -0.382 N 
ATOM     32  H62 UNL     1      10.364   0.840  -2.588  1.00  0.00     0.157 HD
ATOM     33  H61 UNL     1      10.916  -0.348  -3.761  1.00  0.00     0.157 HD
ENDBRANCH   7  31
BRANCH   9  34
HETATM   34  N9  UNL     1      14.236   1.732  -6.341  1.00  0.00    -0.233 N 
ATOM     35  H92 UNL     1      14.134   0.846  -6.836  1.00  0.00     0.174 HD
ATOM     36  H91 UNL     1      15.029   2.355  -6.494  1.00  0.00     0.174 HD
ENDBRANCH   9  34
BRANCH   8  37
HETATM   37  N8  UNL     1      12.759  -0.210  -5.170  1.00  0.00    -0.322 N 
ATOM     38  H82 UNL     1      13.675  -0.659  -5.195  1.00  0.00     0.178 HD
ATOM     39  H81 UNL     1      11.927  -0.768  -5.364  1.00  0.00     0.178 HD
ENDBRANCH   8  37
TORSDOF 11
ENDMDL
MODEL 5
REMARK VINA RESULT: -6.334369641      1.614      1.785
REMARK  11 active torsions:
REMARK  status: ('A' for Active; 'I' for Inactive)
REMARK    1  A    between atoms: C2_2  and  C3_3 
REMARK    2  A    between atoms: C2_2  and  C5_11 
REMARK    3  A    between atoms: C3_3  and  N1_4 
REMARK    4  A    between atoms: C3_3  and  C4_8 
REMARK    5  A    between atoms: C5_11  and  C6_12 
REMARK    6  A    between atoms: C5_11  and  N3_19 
REMARK    7  A    between atoms: C6_12  and  N2_13 
REMARK    8  A    between atoms: C6_12  and  O3_17 
REMARK    9  A    between atoms: C9_25  and  N6_26 
REMARK   10  A    between atoms: N7_29  and  N8_30 
REMARK   11  A    between atoms: C10_33  and  N9_34 
ROOT
HETATM    1  N3  UNL     1      11.059   2.759  -2.511  1.00  0.00    -0.295 N 
HETATM    2  C7  UNL     1       9.802   3.158  -2.705  1.00  0.00     0.197 A 
HETATM    3  N4  UNL     1       9.249   3.952  -3.750  1.00  0.00    -0.063 NA
HETATM    4  N5  UNL     1       8.985   2.693  -1.710  1.00  0.00    -0.324 N 
ATOM      5  H5  UNL     1       7.981   2.849  -1.615  1.00  0.00     0.169 HD
HETATM    6  C8  UNL     1       9.769   1.994  -0.893  1.00  0.00     0.126 A 
HETATM    7  C9  UNL     1       9.468   1.297   0.284  1.00  0.00     0.169 A 
HETATM    8  N7  UNL     1      10.448   0.666   0.933  1.00  0.00    -0.075 N 
HETATM    9  C10 UNL     1      11.706   0.714   0.435  1.00  0.00     0.700 A 
HETATM   10  N10 UNL     1      12.006   1.375  -0.689  1.00  0.00    -0.172 N 
ATOM     11  H10 UNL     1      12.967   1.386  -1.031  1.00  0.00     0.186 HD
HETATM   12  C11 UNL     1      11.040   2.028  -1.374  1.00  0.00     0.157 A 
ENDROOT
BRANCH   1  13
HETATM   13  C5  UNL     1      12.239   3.000  -3.289  1.00  0.00     0.156 C 
BRANCH  13  14
HETATM   14  C2  UNL     1      12.189   4.187  -4.167  1.00  0.00     0.050 C 
HETATM   15  C1  UNL     1      12.958   4.042  -5.442  1.00  0.00     0.015 C 
BRANCH  14  16
HETATM   16  C3  UNL     1      12.679   5.472  -3.519  1.00  0.00     0.289 C 
BRANCH  16  17
HETATM   17  N1  UNL     1      13.292   5.024  -2.248  1.00  0.00    -0.065 N 
ATOM     18  H13 UNL     1      14.177   4.529  -2.362  1.00  0.00     0.275 HD
ATOM     19  H12 UNL     1      13.662   5.779  -1.672  1.00  0.00     0.275 HD
ATOM     20  H11 UNL     1      12.559   4.474  -1.800  1.00  0.00     0.275 HD
ENDBRANCH  16  17
BRANCH  16  21
HETATM   21  C4  UNL     1      11.586   6.418  -3.210  1.00  0.00     0.204 C 
HETATM   22  O1  UNL     1      11.151   6.505  -2.045  1.00  0.00    -0.646 OA
HETATM   23  O2  UNL     1      11.030   7.216  -4.192  1.00  0.00    -0.646 OA
ENDBRANCH  16  21
ENDBRANCH  14  16
ENDBRANCH  13  14
BRANCH  13  24
HETATM   24  C6  UNL     1      12.516   1.735  -4.066  1.00  0.00     0.340 C 
BRANCH  24  25
HETATM   25  N2  UNL     1      11.360   0.894  -4.221  1.00  0.00    -0.051 N 
ATOM     26  H23 UNL     1      10.572   1.261  -3.688  1.00  0.00     0.277 HD
ATOM     27  H22 UNL     1      10.979   0.974  -5.164  1.00  0.00     0.277 HD
ATOM     28  H21 UNL     1      11.534  -0.082  -3.984  1.00  0.00     0.277 HD
ENDBRANCH  24  25
BRANCH  24  29
HETATM   29  O3  UNL     1      13.573   0.996  -3.537  1.00  0.00    -0.368 OA
ATOM     30  H3  UNL     1      14.219   0.757  -4.191  1.00  0.00     0.212 HD
ENDBRANCH  24  29
ENDBRANCH  13  24
ENDBRANCH   1  13
BRANCH   7  31
HETATM   31  N6  UNL     1       8.255   1.283   0.716  1.00  0.00    -0.382 N 
ATOM     32  H62 UNL     1       7.872   2.055   1.263  1.00  0.00     0.157 HD
ATOM     33  H61 UNL     1       7.659   0.482   0.506  1.00  0.00     0.157 HD
ENDBRANCH   7  31
BRANCH   9  34
HETATM   34  N9  UNL     1      12.640   0.080   1.101  1.00  0.00    -0.233 N 
ATOM     35  H92 UNL     1      12.565  -0.924   1.264  1.00  0.00     0.174 HD
ATOM     36  H91 UNL     1      13.428   0.631   1.439  1.00  0.00     0.174 HD
ENDBRANCH   9  34
BRANCH   8  37
HETATM   37  N8  UNL     1      10.128  -0.022   2.103  1.00  0.00    -0.322 N 
ATOM     38  H82 UNL     1      10.820  -0.245   2.818  1.00  0.00     0.178 HD
ATOM     39  H81 UNL     1       9.160  -0.311   2.242  1.00  0.00     0.178 HD
ENDBRANCH   8  37
TORSDOF 11
ENDMDL
