MODEL 1
REMARK VINA RESULT: -7.680226777      0.000      0.000
REMARK  12 active torsions:
REMARK  status: ('A' for Active; 'I' for Inactive)
REMARK    1  A    between atoms: N1_2  and  N2_3 
REMARK    2  A    between atoms: N1_2  and  N3_6 
REMARK       I    between atoms: N3_6  and  C2_8 
REMARK       I    between atoms: C2_8  and  N4_9 
REMARK       I    between atoms: C2_8  and  N13_32 
REMARK    3  A    between atoms: N4_9  and  N5_11 
REMARK    4  A    between atoms: N6_13  and  C3_15 
REMARK    5  A    between atoms: C4_18  and  N8_19 
REMARK    6  A    between atoms: N8_19  and  N9_21 
REMARK    7  A    between atoms: C5_26  and  N11_27 
REMARK       I    between atoms: N13_32  and  C6_34 
REMARK    8  A    between atoms: C6_34  and  C7_36 
REMARK    9  A    between atoms: C7_36  and  N14_37 
REMARK   10  A    between atoms: C7_36  and  C8_41 
REMARK   11  A    between atoms: C8_41  and  C9_42 
REMARK   12  A    between atoms: C9_42  and  N15_43 
ROOT
HETATM    1  N3  UNL     1      12.495   1.648  -3.411  1.00  0.00    -0.115 N 
ATOM      2  H3  UNL     1      12.180   2.336  -4.095  1.00  0.00     0.207 HD
HETATM    3  C2  UNL     1      11.999   1.754  -2.346  1.00  0.00     0.716 C 
HETATM    4  N4  UNL     1      11.104   3.137  -3.018  1.00  0.00    -0.116 N 
ATOM      5  H4  UNL     1      10.161   3.131  -3.408  1.00  0.00     0.207 HD
HETATM    6  N13 UNL     1      11.414   1.887  -1.108  1.00  0.00    -0.155 N 
ATOM      7  H13 UNL     1      10.763   2.645  -0.906  1.00  0.00     0.187 HD
HETATM    8  C6  UNL     1      11.762   0.905  -0.107  1.00  0.00     0.266 C 
HETATM    9  O1  UNL     1      12.560  -0.007  -0.405  1.00  0.00    -0.270 OA
ENDROOT
BRANCH   1  10
HETATM   10  N1  UNL     1      13.428   0.754  -3.888  1.00  0.00    -0.231 N 
HETATM   11  C1  UNL     1      13.871   0.822  -5.288  1.00  0.00     0.200 C 
BRANCH  10  12
HETATM   12  N2  UNL     1      13.980  -0.225  -3.084  1.00  0.00    -0.329 N 
ATOM     13  H22 UNL     1      14.635  -0.917  -3.449  1.00  0.00     0.178 HD
ATOM     14  H21 UNL     1      13.710  -0.241  -2.101  1.00  0.00     0.178 HD
ENDBRANCH  10  12
ENDBRANCH   1  10
BRANCH   4  15
HETATM   15  N5  UNL     1      11.883   4.130  -2.910  1.00  0.00    -0.214 N 
HETATM   16  N6  UNL     1      12.342   5.061  -2.269  1.00  0.00    -0.116 N 
ATOM     17  H6  UNL     1      12.033   5.265  -1.319  1.00  0.00     0.207 HD
ATOM     18  H5  UNL     1      12.369   4.172  -3.806  1.00  0.00     0.209 HD
BRANCH  16  19
HETATM   19  C3  UNL     1      13.351   5.860  -2.935  1.00  0.00     0.727 A 
HETATM   20  N7  UNL     1      14.428   6.201  -2.203  1.00  0.00    -0.018 N 
HETATM   21  C4  UNL     1      15.420   6.954  -2.724  1.00  0.00     0.725 A 
ATOM     22  H7  UNL     1      14.497   5.885  -1.235  1.00  0.00     0.203 HD
HETATM   23  N10 UNL     1      15.297   7.352  -3.996  1.00  0.00    -0.020 N 
HETATM   24  C5  UNL     1      14.211   7.014  -4.751  1.00  0.00     0.705 A 
ATOM     25  H10 UNL     1      16.034   7.921  -4.412  1.00  0.00     0.203 HD
HETATM   26  N12 UNL     1      13.221   6.255  -4.210  1.00  0.00    -0.020 N 
ATOM     27  H12 UNL     1      12.403   5.993  -4.759  1.00  0.00     0.203 HD
BRANCH  21  28
HETATM   28  N8  UNL     1      16.528   7.274  -1.905  1.00  0.00    -0.138 N 
ATOM     29  H8  UNL     1      17.062   8.111  -2.137  1.00  0.00     0.205 HD
BRANCH  28  30
HETATM   30  N9  UNL     1      16.941   6.528  -0.804  1.00  0.00    -0.331 N 
ATOM     31  H92 UNL     1      17.518   5.710  -0.997  1.00  0.00     0.177 HD
ATOM     32  H91 UNL     1      16.706   6.745   0.165  1.00  0.00     0.177 HD
ENDBRANCH  28  30
ENDBRANCH  21  28
BRANCH  24  33
HETATM   33  N11 UNL     1      14.113   7.404  -5.973  1.00  0.00    -0.234 N 
ATOM     34 2H11 UNL     1      14.931   7.794  -6.442  1.00  0.00     0.174 HD
ATOM     35 1H11 UNL     1      13.228   7.329  -6.475  1.00  0.00     0.174 HD
ENDBRANCH  24  33
ENDBRANCH  16  19
ENDBRANCH   4  15
BRANCH   8  36
HETATM   36  C7  UNL     1      11.194   0.963   1.244  1.00  0.00     0.277 C 
BRANCH  36  37
HETATM   37  N14 UNL     1       9.894   1.597   1.286  1.00  0.00    -0.066 N 
ATOM     38 3H14 UNL     1       9.376   1.422   0.425  1.00  0.00     0.275 HD
ATOM     39 2H14 UNL     1       9.280   1.124   1.949  1.00  0.00     0.275 HD
ATOM     40 1H14 UNL     1       9.943   2.597   1.484  1.00  0.00     0.275 HD
ENDBRANCH  36  37
BRANCH  36  41
HETATM   41  C8  UNL     1      11.075  -0.390   1.893  1.00  0.00     0.069 C 
BRANCH  41  42
HETATM   42  C9  UNL     1      11.945  -0.405   3.123  1.00  0.00     0.232 C 
BRANCH  42  43
HETATM   43  N15 UNL     1      11.101  -0.383   4.272  1.00  0.00    -0.079 N 
ATOM     44 3H15 UNL     1      11.504   0.147   5.045  1.00  0.00     0.274 HD
ATOM     45 2H15 UNL     1      10.265   0.186   4.134  1.00  0.00     0.274 HD
ATOM     46 1H15 UNL     1      10.882  -1.345   4.529  1.00  0.00     0.274 HD
ENDBRANCH  42  43
ENDBRANCH  41  42
ENDBRANCH  36  41
ENDBRANCH   8  36
TORSDOF 12
ENDMDL
MODEL 2
REMARK VINA RESULT: -7.544038570      1.928      2.482
REMARK  12 active torsions:
REMARK  status: ('A' for Active; 'I' for Inactive)
REMARK    1  A    between atoms: N1_2  and  N2_3 
REMARK    2  A    between atoms: N1_2  and  N3_6 
REMARK       I    between atoms: N3_6  and  C2_8 
REMARK       I    between atoms: C2_8  and  N4_9 
REMARK       I    between atoms: C2_8  and  N13_32 
REMARK    3  A    between atoms: N4_9  and  N5_11 
REMARK    4  A    between atoms: N6_13  and  C3_15 
REMARK    5  A    between atoms: C4_18  and  N8_19 
REMARK    6  A    between atoms: N8_19  and  N9_21 
REMARK    7  A    between atoms: C5_26  and  N11_27 
REMARK       I    between atoms: N13_32  and  C6_34 
REMARK    8  A    between atoms: C6_34  and  C7_36 
REMARK    9  A    between atoms: C7_36  and  N14_37 
REMARK   10  A    between atoms: C7_36  and  C8_41 
REMARK   11  A    between atoms: C8_41  and  C9_42 
REMARK   12  A    between atoms: C9_42  and  N15_43 
ROOT
HETATM    1  N3  UNL     1      12.459   1.935  -4.603  1.00  0.00    -0.115 N 
ATOM      2  H3  UNL     1      12.482   2.632  -5.347  1.00  0.00     0.207 HD
HETATM    3  C2  UNL     1      11.599   2.091  -3.811  1.00  0.00     0.716 C 
HETATM    4  N4  UNL     1      11.132   3.521  -4.759  1.00  0.00    -0.116 N 
ATOM      5  H4  UNL     1      10.415   3.575  -5.483  1.00  0.00     0.207 HD
HETATM    6  N13 UNL     1      10.592   2.283  -2.893  1.00  0.00    -0.155 N 
ATOM      7  H13 UNL     1       9.968   3.087  -2.949  1.00  0.00     0.187 HD
HETATM    8  C6  UNL     1      10.457   1.295  -1.848  1.00  0.00     0.266 C 
HETATM    9  O1  UNL     1      11.243   0.325  -1.826  1.00  0.00    -0.270 OA
ENDROOT
BRANCH   1  10
HETATM   10  N1  UNL     1      13.439   0.971  -4.693  1.00  0.00    -0.231 N 
HETATM   11  C1  UNL     1      14.207   0.810  -5.936  1.00  0.00     0.200 C 
BRANCH  10  12
HETATM   12  N2  UNL     1      13.739   0.131  -3.638  1.00  0.00    -0.329 N 
ATOM     13  H22 UNL     1      13.390   0.302  -2.695  1.00  0.00     0.178 HD
ATOM     14  H21 UNL     1      14.332  -0.677  -3.828  1.00  0.00     0.178 HD
ENDBRANCH  10  12
ENDBRANCH   1  10
BRANCH   4  15
HETATM   15  N5  UNL     1      11.876   4.460  -4.346  1.00  0.00    -0.214 N 
HETATM   16  N6  UNL     1      12.272   5.195  -3.456  1.00  0.00    -0.116 N 
ATOM     17  H6  UNL     1      11.904   5.138  -2.507  1.00  0.00     0.207 HD
ATOM     18  H5  UNL     1      12.410   4.743  -5.168  1.00  0.00     0.209 HD
BRANCH  16  19
HETATM   19  C3  UNL     1      13.294   6.152  -3.825  1.00  0.00     0.727 A 
HETATM   20  N7  UNL     1      14.291   6.339  -2.940  1.00  0.00    -0.018 N 
HETATM   21  C4  UNL     1      15.288   7.217  -3.181  1.00  0.00     0.725 A 
ATOM     22  H7  UNL     1      14.295   5.807  -2.070  1.00  0.00     0.203 HD
HETATM   23  N10 UNL     1      15.251   7.900  -4.333  1.00  0.00    -0.020 N 
HETATM   24  C5  UNL     1      14.247   7.722  -5.240  1.00  0.00     0.705 A 
ATOM     25  H10 UNL     1      15.993   8.569  -4.538  1.00  0.00     0.203 HD
HETATM   26  N12 UNL     1      13.252   6.832  -4.980  1.00  0.00    -0.020 N 
ATOM     27  H12 UNL     1      12.493   6.686  -5.646  1.00  0.00     0.203 HD
BRANCH  21  28
HETATM   28  N8  UNL     1      16.309   7.364  -2.214  1.00  0.00    -0.138 N 
ATOM     29  H8  UNL     1      16.950   8.151  -2.318  1.00  0.00     0.205 HD
BRANCH  28  30
HETATM   30  N9  UNL     1      16.502   6.511  -1.130  1.00  0.00    -0.331 N 
ATOM     31  H92 UNL     1      15.674   6.039  -0.768  1.00  0.00     0.177 HD
ATOM     32  H91 UNL     1      17.403   6.333  -0.686  1.00  0.00     0.177 HD
ENDBRANCH  28  30
ENDBRANCH  21  28
BRANCH  24  33
HETATM   33  N11 UNL     1      14.232   8.384  -6.342  1.00  0.00    -0.234 N 
ATOM     34 2H11 UNL     1      14.233   9.404  -6.315  1.00  0.00     0.174 HD
ATOM     35 1H11 UNL     1      14.217   7.901  -7.240  1.00  0.00     0.174 HD
ENDBRANCH  24  33
ENDBRANCH  16  19
ENDBRANCH   4  15
BRANCH   8  36
HETATM   36  C7  UNL     1       9.418   1.413  -0.820  1.00  0.00     0.277 C 
BRANCH  36  37
HETATM   37  N14 UNL     1       9.944   1.352   0.527  1.00  0.00    -0.066 N 
ATOM     38 3H14 UNL     1       9.605   0.522   1.013  1.00  0.00     0.275 HD
ATOM     39 2H14 UNL     1      10.942   1.145   0.518  1.00  0.00     0.275 HD
ATOM     40 1H14 UNL     1       9.751   2.195   1.069  1.00  0.00     0.275 HD
ENDBRANCH  36  37
BRANCH  36  41
HETATM   41  C8  UNL     1       8.602   2.672  -0.946  1.00  0.00     0.069 C 
BRANCH  41  42
HETATM   42  C9  UNL     1       7.617   2.714   0.193  1.00  0.00     0.232 C 
BRANCH  42  43
HETATM   43  N15 UNL     1       6.798   3.872   0.037  1.00  0.00    -0.079 N 
ATOM     44 3H15 UNL     1       6.825   4.485   0.853  1.00  0.00     0.274 HD
ATOM     45 2H15 UNL     1       7.177   4.531  -0.643  1.00  0.00     0.274 HD
ATOM     46 1H15 UNL     1       5.852   3.569  -0.194  1.00  0.00     0.274 HD
ENDBRANCH  42  43
ENDBRANCH  41  42
ENDBRANCH  36  41
ENDBRANCH   8  36
TORSDOF 12
ENDMDL
MODEL 3
REMARK VINA RESULT: -7.533491093      3.038      8.346
REMARK  12 active torsions:
REMARK  status: ('A' for Active; 'I' for Inactive)
REMARK    1  A    between atoms: N1_2  and  N2_3 
REMARK    2  A    between atoms: N1_2  and  N3_6 
REMARK       I    between atoms: N3_6  and  C2_8 
REMARK       I    between atoms: C2_8  and  N4_9 
REMARK       I    between atoms: C2_8  and  N13_32 
REMARK    3  A    between atoms: N4_9  and  N5_11 
REMARK    4  A    between atoms: N6_13  and  C3_15 
REMARK    5  A    between atoms: C4_18  and  N8_19 
REMARK    6  A    between atoms: N8_19  and  N9_21 
REMARK    7  A    between atoms: C5_26  and  N11_27 
REMARK       I    between atoms: N13_32  and  C6_34 
REMARK    8  A    between atoms: C6_34  and  C7_36 
REMARK    9  A    between atoms: C7_36  and  N14_37 
REMARK   10  A    between atoms: C7_36  and  C8_41 
REMARK   11  A    between atoms: C8_41  and  C9_42 
REMARK   12  A    between atoms: C9_42  and  N15_43 
ROOT
HETATM    1  N3  UNL     1       9.191   2.411  -1.252  1.00  0.00    -0.115 N 
ATOM      2  H3  UNL     1       8.946   1.468  -0.952  1.00  0.00     0.207 HD
HETATM    3  C2  UNL     1      10.237   2.497  -1.792  1.00  0.00     0.716 C 
HETATM    4  N4  UNL     1      10.394   0.744  -1.533  1.00  0.00    -0.116 N 
ATOM      5  H4  UNL     1      10.166   0.000  -2.193  1.00  0.00     0.207 HD
HETATM    6  N13 UNL     1      11.459   2.586  -2.418  1.00  0.00    -0.155 N 
ATOM      7  H13 UNL     1      12.066   1.773  -2.516  1.00  0.00     0.187 HD
HETATM    8  C6  UNL     1      11.843   3.880  -2.931  1.00  0.00     0.266 C 
HETATM    9  O1  UNL     1      11.062   4.844  -2.790  1.00  0.00    -0.270 OA
ENDROOT
BRANCH   1  10
HETATM   10  N1  UNL     1       8.245   3.368  -0.960  1.00  0.00    -0.231 N 
HETATM   11  C1  UNL     1       7.187   3.088   0.022  1.00  0.00     0.200 C 
BRANCH  10  12
HETATM   12  N2  UNL     1       8.251   4.612  -1.563  1.00  0.00    -0.329 N 
ATOM     13  H22 UNL     1       9.020   5.269  -1.436  1.00  0.00     0.178 HD
ATOM     14  H21 UNL     1       7.451   4.861  -2.145  1.00  0.00     0.178 HD
ENDBRANCH  10  12
ENDBRANCH   1  10
BRANCH   4  15
HETATM   15  N5  UNL     1      10.851   0.614  -0.359  1.00  0.00    -0.214 N 
HETATM   16  N6  UNL     1      11.787   0.502   0.416  1.00  0.00    -0.116 N 
ATOM     17  H6  UNL     1      12.755   0.492   0.094  1.00  0.00     0.207 HD
ATOM     18  H5  UNL     1      10.023   0.590   0.236  1.00  0.00     0.209 HD
BRANCH  16  19
HETATM   19  C3  UNL     1      11.445   0.385   1.819  1.00  0.00     0.727 A 
HETATM   20  N7  UNL     1      10.558   1.276   2.299  1.00  0.00    -0.018 N 
HETATM   21  C4  UNL     1      10.180   1.263   3.595  1.00  0.00     0.725 A 
ATOM     22  H7  UNL     1      10.162   1.977   1.671  1.00  0.00     0.203 HD
HETATM   23  N10 UNL     1      10.720   0.331   4.390  1.00  0.00    -0.020 N 
HETATM   24  C5  UNL     1      11.621  -0.579   3.919  1.00  0.00     0.705 A 
ATOM     25  H10 UNL     1      10.450   0.300   5.373  1.00  0.00     0.203 HD
HETATM   26  N12 UNL     1      11.989  -0.551   2.611  1.00  0.00    -0.020 N 
ATOM     27  H12 UNL     1      12.661  -1.223   2.241  1.00  0.00     0.203 HD
BRANCH  21  28
HETATM   28  N8  UNL     1       9.240   2.223   4.036  1.00  0.00    -0.138 N 
ATOM     29  H8  UNL     1       9.533   2.870   4.767  1.00  0.00     0.205 HD
BRANCH  28  30
HETATM   30  N9  UNL     1       7.944   2.347   3.542  1.00  0.00    -0.331 N 
ATOM     31  H92 UNL     1       7.584   1.562   3.001  1.00  0.00     0.177 HD
ATOM     32  H91 UNL     1       7.344   3.160   3.686  1.00  0.00     0.177 HD
ENDBRANCH  28  30
ENDBRANCH  21  28
BRANCH  24  33
HETATM   33  N11 UNL     1      12.125  -1.469   4.699  1.00  0.00    -0.234 N 
ATOM     34 2H11 UNL     1      12.881  -1.211   5.333  1.00  0.00     0.174 HD
ATOM     35 1H11 UNL     1      11.779  -2.429   4.688  1.00  0.00     0.174 HD
ENDBRANCH  24  33
ENDBRANCH  16  19
ENDBRANCH   4  15
BRANCH   8  36
HETATM   36  C7  UNL     1      13.127   4.078  -3.611  1.00  0.00     0.277 C 
BRANCH  36  37
HETATM   37  N14 UNL     1      13.349   3.136  -4.688  1.00  0.00    -0.066 N 
ATOM     38 3H14 UNL     1      12.801   2.288  -4.548  1.00  0.00     0.275 HD
ATOM     39 2H14 UNL     1      12.925   3.467  -5.554  1.00  0.00     0.275 HD
ATOM     40 1H14 UNL     1      14.335   2.913  -4.827  1.00  0.00     0.275 HD
ENDBRANCH  36  37
BRANCH  36  41
HETATM   41  C8  UNL     1      13.294   5.467  -4.166  1.00  0.00     0.069 C 
BRANCH  41  42
HETATM   42  C9  UNL     1      12.945   5.438  -5.632  1.00  0.00     0.232 C 
BRANCH  42  43
HETATM   43  N15 UNL     1      11.658   6.030  -5.800  1.00  0.00    -0.079 N 
ATOM     44 3H15 UNL     1      10.994   5.404  -6.256  1.00  0.00     0.274 HD
ATOM     45 2H15 UNL     1      11.159   6.142  -4.917  1.00  0.00     0.274 HD
ATOM     46 1H15 UNL     1      11.773   6.911  -6.300  1.00  0.00     0.274 HD
ENDBRANCH  42  43
ENDBRANCH  41  42
ENDBRANCH  36  41
ENDBRANCH   8  36
TORSDOF 12
ENDMDL
MODEL 4
REMARK VINA RESULT: -7.529119124      3.030      8.374
REMARK  12 active torsions:
REMARK  status: ('A' for Active; 'I' for Inactive)
REMARK    1  A    between atoms: N1_2  and  N2_3 
REMARK    2  A    between atoms: N1_2  and  N3_6 
REMARK       I    between atoms: N3_6  and  C2_8 
REMARK       I    between atoms: C2_8  and  N4_9 
REMARK       I    between atoms: C2_8  and  N13_32 
REMARK    3  A    between atoms: N4_9  and  N5_11 
REMARK    4  A    between atoms: N6_13  and  C3_15 
REMARK    5  A    between atoms: C4_18  and  N8_19 
REMARK    6  A    between atoms: N8_19  and  N9_21 
REMARK    7  A    between atoms: C5_26  and  N11_27 
REMARK       I    between atoms: N13_32  and  C6_34 
REMARK    8  A    between atoms: C6_34  and  C7_36 
REMARK    9  A    between atoms: C7_36  and  N14_37 
REMARK   10  A    between atoms: C7_36  and  C8_41 
REMARK   11  A    between atoms: C8_41  and  C9_42 
REMARK   12  A    between atoms: C9_42  and  N15_43 
ROOT
HETATM    1  N3  UNL     1       9.160   2.408  -1.267  1.00  0.00    -0.115 N 
ATOM      2  H3  UNL     1       8.917   1.461  -0.978  1.00  0.00     0.207 HD
HETATM    3  C2  UNL     1      10.209   2.504  -1.797  1.00  0.00     0.716 C 
HETATM    4  N4  UNL     1      10.372   0.749  -1.556  1.00  0.00    -0.116 N 
ATOM      5  H4  UNL     1      10.151   0.011  -2.225  1.00  0.00     0.207 HD
HETATM    6  N13 UNL     1      11.435   2.604  -2.414  1.00  0.00    -0.155 N 
ATOM      7  H13 UNL     1      12.046   1.795  -2.516  1.00  0.00     0.187 HD
HETATM    8  C6  UNL     1      11.818   3.905  -2.911  1.00  0.00     0.266 C 
HETATM    9  O1  UNL     1      11.032   4.864  -2.766  1.00  0.00    -0.270 OA
ENDROOT
BRANCH   1  10
HETATM   10  N1  UNL     1       8.208   3.358  -0.972  1.00  0.00    -0.231 N 
HETATM   11  C1  UNL     1       7.123   3.051  -0.028  1.00  0.00     0.200 C 
BRANCH  10  12
HETATM   12  N2  UNL     1       8.232   4.619  -1.536  1.00  0.00    -0.329 N 
ATOM     13  H22 UNL     1       8.000   5.455  -1.000  1.00  0.00     0.178 HD
ATOM     14  H21 UNL     1       8.490   4.694  -2.520  1.00  0.00     0.178 HD
ENDBRANCH  10  12
ENDBRANCH   1  10
BRANCH   4  15
HETATM   15  N5  UNL     1      10.820   0.609  -0.379  1.00  0.00    -0.214 N 
HETATM   16  N6  UNL     1      11.745   0.425   0.395  1.00  0.00    -0.116 N 
ATOM     17  H6  UNL     1      12.705   0.305   0.070  1.00  0.00     0.207 HD
ATOM     18  H5  UNL     1       9.998   0.689   0.219  1.00  0.00     0.209 HD
BRANCH  16  19
HETATM   19  C3  UNL     1      11.403   0.387   1.802  1.00  0.00     0.727 A 
HETATM   20  N7  UNL     1      11.945  -0.610   2.527  1.00  0.00    -0.018 N 
HETATM   21  C4  UNL     1      11.680  -0.744   3.844  1.00  0.00     0.725 A 
ATOM     22  H7  UNL     1      12.568  -1.278   2.072  1.00  0.00     0.203 HD
HETATM   23  N10 UNL     1      10.858   0.150   4.407  1.00  0.00    -0.020 N 
HETATM   24  C5  UNL     1      10.300   1.166   3.686  1.00  0.00     0.705 A 
ATOM     25  H10 UNL     1      10.644   0.070   5.401  1.00  0.00     0.203 HD
HETATM   26  N12 UNL     1      10.578   1.285   2.361  1.00  0.00    -0.020 N 
ATOM     27  H12 UNL     1      10.171   2.038   1.806  1.00  0.00     0.203 HD
BRANCH  21  28
HETATM   28  N8  UNL     1      12.285  -1.809   4.550  1.00  0.00    -0.138 N 
ATOM     29  H8  UNL     1      13.066  -2.290   4.104  1.00  0.00     0.205 HD
BRANCH  28  30
HETATM   30  N9  UNL     1      11.890  -2.248   5.812  1.00  0.00    -0.331 N 
ATOM     31  H92 UNL     1      11.417  -3.151   5.853  1.00  0.00     0.177 HD
ATOM     32  H91 UNL     1      12.042  -1.734   6.679  1.00  0.00     0.177 HD
ENDBRANCH  28  30
ENDBRANCH  21  28
BRANCH  24  33
HETATM   33  N11 UNL     1       9.516   2.016   4.248  1.00  0.00    -0.234 N 
ATOM     34 2H11 UNL     1       9.561   2.998   3.974  1.00  0.00     0.174 HD
ATOM     35 1H11 UNL     1       8.853   1.720   4.964  1.00  0.00     0.174 HD
ENDBRANCH  24  33
ENDBRANCH  16  19
ENDBRANCH   4  15
BRANCH   8  36
HETATM   36  C7  UNL     1      13.106   4.115  -3.580  1.00  0.00     0.277 C 
BRANCH  36  37
HETATM   37  N14 UNL     1      13.335   3.192  -4.670  1.00  0.00    -0.066 N 
ATOM     38 3H14 UNL     1      13.896   2.398  -4.363  1.00  0.00     0.275 HD
ATOM     39 2H14 UNL     1      12.476   2.702  -4.919  1.00  0.00     0.275 HD
ATOM     40 1H14 UNL     1      13.751   3.637  -5.489  1.00  0.00     0.275 HD
ENDBRANCH  36  37
BRANCH  36  41
HETATM   41  C8  UNL     1      13.275   5.514  -4.109  1.00  0.00     0.069 C 
BRANCH  41  42
HETATM   42  C9  UNL     1      12.976   5.501  -5.586  1.00  0.00     0.232 C 
BRANCH  42  43
HETATM   43  N15 UNL     1      11.671   6.043  -5.786  1.00  0.00    -0.079 N 
ATOM     44 3H15 UNL     1      11.568   6.976  -5.387  1.00  0.00     0.274 HD
ATOM     45 2H15 UNL     1      11.493   6.287  -6.760  1.00  0.00     0.274 HD
ATOM     46 1H15 UNL     1      10.988   5.381  -5.416  1.00  0.00     0.274 HD
ENDBRANCH  42  43
ENDBRANCH  41  42
ENDBRANCH  36  41
ENDBRANCH   8  36
TORSDOF 12
ENDMDL
MODEL 5
REMARK VINA RESULT: -7.484749423      1.796      2.445
REMARK  12 active torsions:
REMARK  status: ('A' for Active; 'I' for Inactive)
REMARK    1  A    between atoms: N1_2  and  N2_3 
REMARK    2  A    between atoms: N1_2  and  N3_6 
REMARK       I    between atoms: N3_6  and  C2_8 
REMARK       I    between atoms: C2_8  and  N4_9 
REMARK       I    between atoms: C2_8  and  N13_32 
REMARK    3  A    between atoms: N4_9  and  N5_11 
REMARK    4  A    between atoms: N6_13  and  C3_15 
REMARK    5  A    between atoms: C4_18  and  N8_19 
REMARK    6  A    between atoms: N8_19  and  N9_21 
REMARK    7  A    between atoms: C5_26  and  N11_27 
REMARK       I    between atoms: N13_32  and  C6_34 
REMARK    8  A    between atoms: C6_34  and  C7_36 
REMARK    9  A    between atoms: C7_36  and  N14_37 
REMARK   10  A    between atoms: C7_36  and  C8_41 
REMARK   11  A    between atoms: C8_41  and  C9_42 
REMARK   12  A    between atoms: C9_42  and  N15_43 
ROOT
HETATM    1  N3  UNL     1      12.073   1.180  -3.187  1.00  0.00    -0.115 N 
ATOM      2  H3  UNL     1      12.068   1.670  -4.082  1.00  0.00     0.207 HD
HETATM    3  C2  UNL     1      11.167   1.444  -2.480  1.00  0.00     0.716 C 
HETATM    4  N4  UNL     1      10.620   2.543  -3.767  1.00  0.00    -0.116 N 
ATOM      5  H4  UNL     1       9.935   2.346  -4.497  1.00  0.00     0.207 HD
HETATM    6  N13 UNL     1      10.106   1.760  -1.662  1.00  0.00    -0.155 N 
ATOM      7  H13 UNL     1       9.418   2.461  -1.932  1.00  0.00     0.187 HD
HETATM    8  C6  UNL     1      10.010   1.054  -0.406  1.00  0.00     0.266 C 
HETATM    9  O1  UNL     1      10.877   0.200  -0.123  1.00  0.00    -0.270 OA
ENDROOT
BRANCH   1  10
HETATM   10  N1  UNL     1      13.136   0.323  -3.012  1.00  0.00    -0.231 N 
HETATM   11  C1  UNL     1      13.971  -0.066  -4.157  1.00  0.00     0.200 C 
BRANCH  10  12
HETATM   12  N2  UNL     1      13.461  -0.196  -1.773  1.00  0.00    -0.329 N 
ATOM     13  H22 UNL     1      12.748  -0.514  -1.116  1.00  0.00     0.178 HD
ATOM     14  H21 UNL     1      14.449  -0.252  -1.525  1.00  0.00     0.178 HD
ENDBRANCH  10  12
ENDBRANCH   1  10
BRANCH   4  15
HETATM   15  N5  UNL     1      11.259   3.622  -3.586  1.00  0.00    -0.214 N 
HETATM   16  N6  UNL     1      11.386   4.709  -3.048  1.00  0.00    -0.116 N 
ATOM     17  H6  UNL     1      10.704   5.061  -2.376  1.00  0.00     0.207 HD
ATOM     18  H5  UNL     1      12.073   3.541  -4.195  1.00  0.00     0.209 HD
BRANCH  16  19
HETATM   19  C3  UNL     1      12.562   5.471  -3.416  1.00  0.00     0.727 A 
HETATM   20  N7  UNL     1      13.473   5.678  -2.447  1.00  0.00    -0.018 N 
HETATM   21  C4  UNL     1      14.599   6.386  -2.682  1.00  0.00     0.725 A 
ATOM     22  H7  UNL     1      13.311   5.293  -1.517  1.00  0.00     0.203 HD
HETATM   23  N10 UNL     1      14.779   6.878  -3.914  1.00  0.00    -0.020 N 
HETATM   24  C5  UNL     1      13.864   6.677  -4.907  1.00  0.00     0.705 A 
ATOM     25  H10 UNL     1      15.622   7.416  -4.116  1.00  0.00     0.203 HD
HETATM   26  N12 UNL     1      12.736   5.961  -4.652  1.00  0.00    -0.020 N 
ATOM     27  H12 UNL     1      12.042   5.801  -5.382  1.00  0.00     0.203 HD
BRANCH  21  28
HETATM   28  N8  UNL     1      15.520   6.563  -1.623  1.00  0.00    -0.138 N 
ATOM     29  H8  UNL     1      15.327   6.085  -0.743  1.00  0.00     0.205 HD
BRANCH  28  30
HETATM   30  N9  UNL     1      16.670   7.345  -1.697  1.00  0.00    -0.331 N 
ATOM     31  H92 UNL     1      17.119   7.412  -2.610  1.00  0.00     0.177 HD
ATOM     32  H91 UNL     1      17.083   7.844  -0.909  1.00  0.00     0.177 HD
ENDBRANCH  28  30
ENDBRANCH  21  28
BRANCH  24  33
HETATM   33  N11 UNL     1      14.058   7.155  -6.085  1.00  0.00    -0.234 N 
ATOM     34 2H11 UNL     1      14.984   7.088  -6.508  1.00  0.00     0.174 HD
ATOM     35 1H11 UNL     1      13.297   7.601  -6.598  1.00  0.00     0.174 HD
ENDBRANCH  24  33
ENDBRANCH  16  19
ENDBRANCH   4  15
BRANCH   8  36
HETATM   36  C7  UNL     1       8.919   1.322   0.536  1.00  0.00     0.277 C 
BRANCH  36  37
HETATM   37  N14 UNL     1       9.353   2.038   1.717  1.00  0.00    -0.066 N 
ATOM     38 3H14 UNL     1      10.180   2.600   1.518  1.00  0.00     0.275 HD
ATOM     39 2H14 UNL     1       8.698   2.783   1.952  1.00  0.00     0.275 HD
ATOM     40 1H14 UNL     1       9.512   1.426   2.519  1.00  0.00     0.275 HD
ENDBRANCH  36  37
BRANCH  36  41
HETATM   41  C8  UNL     1       7.781   2.088  -0.082  1.00  0.00     0.069 C 
BRANCH  41  42
HETATM   42  C9  UNL     1       7.485   3.282   0.789  1.00  0.00     0.232 C 
BRANCH  42  43
HETATM   43  N15 UNL     1       7.168   4.388  -0.054  1.00  0.00    -0.079 N 
ATOM     44 3H15 UNL     1       6.193   4.676   0.026  1.00  0.00     0.274 HD
ATOM     45 2H15 UNL     1       7.597   5.258   0.263  1.00  0.00     0.274 HD
ATOM     46 1H15 UNL     1       7.429   4.148  -1.010  1.00  0.00     0.274 HD
ENDBRANCH  42  43
ENDBRANCH  41  42
ENDBRANCH  36  41
ENDBRANCH   8  36
TORSDOF 12
ENDMDL
