MODEL 1
REMARK VINA RESULT: -6.896151040      0.000      0.000
REMARK  15 active torsions:
REMARK  status: ('A' for Active; 'I' for Inactive)
REMARK    1  A    between atoms: N1_1  and  C1_4 
REMARK    2  A    between atoms: C2_9  and  N4_10 
REMARK    3  A    between atoms: N4_10  and  N5_12 
REMARK    4  A    between atoms: N5_12  and  C3_13 
REMARK    5  A    between atoms: C3_13  and  N6_14 
REMARK    6  A    between atoms: C3_13  and  C4_18 
REMARK    7  A    between atoms: C4_18  and  N9_24 
REMARK    8  A    between atoms: N7_19  and  N8_21 
REMARK    9  A    between atoms: N9_24  and  O1_25 
REMARK   10  A    between atoms: N9_24  and  C5_27 
REMARK   11  A    between atoms: C5_27  and  O2_28 
REMARK   12  A    between atoms: O2_28  and  C6_29 
REMARK   13  A    between atoms: C6_29  and  C7_31 
REMARK   14  A    between atoms: C7_31  and  N10_32 
REMARK   15  A    between atoms: C7_31  and  O4_36 
ROOT
HETATM    1  C4  UNL     1      11.597   0.759   0.560  1.00  0.00     0.169 C 
HETATM    2  N7  UNL     1      12.309  -0.005   1.305  1.00  0.00    -0.291 N 
ATOM      3  H7  UNL     1      13.187  -0.385   0.952  1.00  0.00     0.188 HD
ENDROOT
BRANCH   1   4
HETATM    4  C3  UNL     1      12.032   1.100  -0.821  1.00  0.00     0.365 C 
BRANCH   4   5
HETATM    5  N5  UNL     1      11.970   2.521  -1.068  1.00  0.00    -0.098 NA
BRANCH   5   6
HETATM    6  N4  UNL     1      11.934   2.718  -2.449  1.00  0.00    -0.280 N 
ATOM      7  H4  UNL     1      12.213   1.975  -3.089  1.00  0.00     0.184 HD
BRANCH   6   8
HETATM    8  C2  UNL     1      11.493   4.000  -2.949  1.00  0.00     0.178 A 
HETATM    9  N3  UNL     1      10.302   4.344  -3.414  1.00  0.00    -0.277 N 
HETATM   10  N2  UNL     1      10.089   5.526  -3.817  1.00  0.00    -0.278 N 
ATOM     11  H3  UNL     1       9.553   3.654  -3.450  1.00  0.00     0.189 HD
HETATM   12  C1  UNL     1      11.086   6.414  -3.760  1.00  0.00     0.160 A 
ATOM     13  H2  UNL     1       9.173   5.795  -4.177  1.00  0.00     0.189 HD
HETATM   14  S1  UNL     1      12.352   5.468  -3.100  1.00  0.00    -0.015 SA
BRANCH  12  15
HETATM   15  N1  UNL     1      11.056   7.677  -4.128  1.00  0.00    -0.378 N 
ATOM     16  H12 UNL     1      10.578   8.480  -3.720  1.00  0.00     0.158 HD
ATOM     17  H11 UNL     1      11.530   8.103  -4.924  1.00  0.00     0.158 HD
ENDBRANCH  12  15
ENDBRANCH   6   8
ENDBRANCH   5   6
ENDBRANCH   4   5
BRANCH   4  18
HETATM   18  N6  UNL     1      11.282   0.414  -1.834  1.00  0.00    -0.052 N 
ATOM     19  H63 UNL     1      11.857   0.159  -2.636  1.00  0.00     0.276 HD
ATOM     20  H62 UNL     1      11.012  -0.527  -1.545  1.00  0.00     0.276 HD
ATOM     21  H61 UNL     1      10.478   0.984  -2.099  1.00  0.00     0.276 HD
ENDBRANCH   4  18
ENDBRANCH   1   4
BRANCH   1  22
HETATM   22  N9  UNL     1      10.380   1.271   1.086  1.00  0.00    -0.219 N 
BRANCH  22  23
HETATM   23  O1  UNL     1      10.454   2.376   1.867  1.00  0.00    -0.284 OA
ATOM     24  H1  UNL     1      10.452   3.221   1.432  1.00  0.00     0.245 HD
ENDBRANCH  22  23
BRANCH  22  25
HETATM   25  C5  UNL     1       9.160   0.588   0.748  1.00  0.00     0.336 C 
BRANCH  25  26
HETATM   26  O2  UNL     1       8.137   1.428   0.266  1.00  0.00    -0.296 OA
BRANCH  26  27
HETATM   27  C6  UNL     1       8.295   2.417  -0.689  1.00  0.00     0.317 C 
HETATM   28  O3  UNL     1       8.777   2.098  -1.797  1.00  0.00    -0.260 OA
BRANCH  27  29
HETATM   29  C7  UNL     1       7.887   3.800  -0.354  1.00  0.00     0.417 C 
BRANCH  29  30
HETATM   30  N10 UNL     1       6.463   3.918  -0.156  1.00  0.00    -0.043 N 
ATOM     31 3H10 UNL     1       6.019   4.385  -0.947  1.00  0.00     0.278 HD
ATOM     32 2H10 UNL     1       6.006   3.010  -0.225  1.00  0.00     0.278 HD
ATOM     33 1H10 UNL     1       6.231   4.381   0.723  1.00  0.00     0.278 HD
ENDBRANCH  29  30
BRANCH  29  34
HETATM   34  O4  UNL     1       8.298   4.707  -1.313  1.00  0.00    -0.363 OA
ATOM     35  H4  UNL     1       8.698   5.478  -0.926  1.00  0.00     0.212 HD
ENDBRANCH  29  34
ENDBRANCH  27  29
ENDBRANCH  26  27
ENDBRANCH  25  26
ENDBRANCH  22  25
ENDBRANCH   1  22
BRANCH   2  36
HETATM   36  N8  UNL     1      11.894  -0.312   2.580  1.00  0.00    -0.344 N 
ATOM     37  H82 UNL     1      12.592  -0.562   3.280  1.00  0.00     0.176 HD
ATOM     38  H81 UNL     1      10.902  -0.289   2.817  1.00  0.00     0.176 HD
ENDBRANCH   2  36
TORSDOF 15
ENDMDL
MODEL 2
REMARK VINA RESULT: -6.817972795      6.794      9.714
REMARK  15 active torsions:
REMARK  status: ('A' for Active; 'I' for Inactive)
REMARK    1  A    between atoms: N1_1  and  C1_4 
REMARK    2  A    between atoms: C2_9  and  N4_10 
REMARK    3  A    between atoms: N4_10  and  N5_12 
REMARK    4  A    between atoms: N5_12  and  C3_13 
REMARK    5  A    between atoms: C3_13  and  N6_14 
REMARK    6  A    between atoms: C3_13  and  C4_18 
REMARK    7  A    between atoms: C4_18  and  N9_24 
REMARK    8  A    between atoms: N7_19  and  N8_21 
REMARK    9  A    between atoms: N9_24  and  O1_25 
REMARK   10  A    between atoms: N9_24  and  C5_27 
REMARK   11  A    between atoms: C5_27  and  O2_28 
REMARK   12  A    between atoms: O2_28  and  C6_29 
REMARK   13  A    between atoms: C6_29  and  C7_31 
REMARK   14  A    between atoms: C7_31  and  N10_32 
REMARK   15  A    between atoms: C7_31  and  O4_36 
ROOT
HETATM    1  C4  UNL     1      12.987  -2.534   6.161  1.00  0.00     0.169 C 
HETATM    2  N7  UNL     1      11.793  -2.956   5.959  1.00  0.00    -0.291 N 
ATOM      3  H7  UNL     1      11.038  -2.289   5.804  1.00  0.00     0.188 HD
ENDROOT
BRANCH   1   4
HETATM    4  C3  UNL     1      13.292  -1.078   6.174  1.00  0.00     0.365 C 
BRANCH   4   5
HETATM    5  N5  UNL     1      12.115  -0.285   6.429  1.00  0.00    -0.098 NA
BRANCH   5   6
HETATM    6  N4  UNL     1      12.227   0.902   5.704  1.00  0.00    -0.280 N 
ATOM      7  H4  UNL     1      13.057   1.489   5.789  1.00  0.00     0.184 HD
BRANCH   6   8
HETATM    8  C2  UNL     1      11.141   1.278   4.829  1.00  0.00     0.178 A 
HETATM    9  N3  UNL     1      10.268   2.264   4.965  1.00  0.00    -0.277 N 
HETATM   10  N2  UNL     1       9.370   2.451   4.091  1.00  0.00    -0.278 N 
ATOM     11  H3  UNL     1      10.317   2.876   5.779  1.00  0.00     0.189 HD
HETATM   12  C1  UNL     1       9.325   1.637   3.032  1.00  0.00     0.160 A 
ATOM     13  H2  UNL     1       8.695   3.209   4.194  1.00  0.00     0.189 HD
HETATM   14  S1  UNL     1      10.637   0.583   3.352  1.00  0.00    -0.015 SA
BRANCH  12  15
HETATM   15  N1  UNL     1       8.475   1.673   2.029  1.00  0.00    -0.378 N 
ATOM     16  H12 UNL     1       7.878   2.426   1.687  1.00  0.00     0.158 HD
ATOM     17  H11 UNL     1       8.248   0.920   1.380  1.00  0.00     0.158 HD
ENDBRANCH  12  15
ENDBRANCH   6   8
ENDBRANCH   5   6
ENDBRANCH   4   5
BRANCH   4  18
HETATM   18  N6  UNL     1      13.913  -0.623   4.963  1.00  0.00    -0.052 N 
ATOM     19  H63 UNL     1      14.351  -1.382   4.443  1.00  0.00     0.276 HD
ATOM     20  H62 UNL     1      13.230  -0.341   4.259  1.00  0.00     0.276 HD
ATOM     21  H61 UNL     1      14.571   0.125   5.185  1.00  0.00     0.276 HD
ENDBRANCH   4  18
ENDBRANCH   1   4
BRANCH   1  22
HETATM   22  N9  UNL     1      14.015  -3.493   6.374  1.00  0.00    -0.219 N 
BRANCH  22  23
HETATM   23  O1  UNL     1      13.960  -4.226   7.513  1.00  0.00    -0.284 OA
ATOM     24  H1  UNL     1      14.201  -3.793   8.324  1.00  0.00     0.245 HD
ENDBRANCH  22  23
BRANCH  22  25
HETATM   25  C5  UNL     1      15.035  -3.622   5.367  1.00  0.00     0.336 C 
BRANCH  25  26
HETATM   26  O2  UNL     1      14.803  -4.650   4.432  1.00  0.00    -0.296 OA
BRANCH  26  27
HETATM   27  C6  UNL     1      14.524  -5.969   4.744  1.00  0.00     0.317 C 
HETATM   28  O3  UNL     1      13.342  -6.278   5.008  1.00  0.00    -0.260 OA
BRANCH  27  29
HETATM   29  C7  UNL     1      15.634  -6.948   4.749  1.00  0.00     0.417 C 
BRANCH  29  30
HETATM   30  N10 UNL     1      15.849  -7.538   3.450  1.00  0.00    -0.043 N 
ATOM     31 3H10 UNL     1      15.107  -8.199   3.219  1.00  0.00     0.278 HD
ATOM     32 2H10 UNL     1      15.699  -6.857   2.707  1.00  0.00     0.278 HD
ATOM     33 1H10 UNL     1      16.768  -7.974   3.370  1.00  0.00     0.278 HD
ENDBRANCH  29  30
BRANCH  29  34
HETATM   34  O4  UNL     1      15.440  -7.947   5.685  1.00  0.00    -0.363 OA
ATOM     35  H4  UNL     1      16.243  -8.168   6.142  1.00  0.00     0.212 HD
ENDBRANCH  29  34
ENDBRANCH  27  29
ENDBRANCH  26  27
ENDBRANCH  25  26
ENDBRANCH  22  25
ENDBRANCH   1  22
BRANCH   2  36
HETATM   36  N8  UNL     1      11.527  -4.306   5.952  1.00  0.00    -0.344 N 
ATOM     37  H82 UNL     1      12.307  -4.962   5.908  1.00  0.00     0.176 HD
ATOM     38  H81 UNL     1      10.564  -4.641   5.990  1.00  0.00     0.176 HD
ENDBRANCH   2  36
TORSDOF 15
ENDMDL
MODEL 3
REMARK VINA RESULT: -6.716451020      4.186      7.518
REMARK  15 active torsions:
REMARK  status: ('A' for Active; 'I' for Inactive)
REMARK    1  A    between atoms: N1_1  and  C1_4 
REMARK    2  A    between atoms: C2_9  and  N4_10 
REMARK    3  A    between atoms: N4_10  and  N5_12 
REMARK    4  A    between atoms: N5_12  and  C3_13 
REMARK    5  A    between atoms: C3_13  and  N6_14 
REMARK    6  A    between atoms: C3_13  and  C4_18 
REMARK    7  A    between atoms: C4_18  and  N9_24 
REMARK    8  A    between atoms: N7_19  and  N8_21 
REMARK    9  A    between atoms: N9_24  and  O1_25 
REMARK   10  A    between atoms: N9_24  and  C5_27 
REMARK   11  A    between atoms: C5_27  and  O2_28 
REMARK   12  A    between atoms: O2_28  and  C6_29 
REMARK   13  A    between atoms: C6_29  and  C7_31 
REMARK   14  A    between atoms: C7_31  and  N10_32 
REMARK   15  A    between atoms: C7_31  and  O4_36 
ROOT
HETATM    1  C4  UNL     1      10.040   0.999   3.237  1.00  0.00     0.169 C 
HETATM    2  N7  UNL     1       9.155   1.598   3.945  1.00  0.00    -0.291 N 
ATOM      3  H7  UNL     1       9.072   1.388   4.939  1.00  0.00     0.188 HD
ENDROOT
BRANCH   1   4
HETATM    4  C3  UNL     1      10.955  -0.004   3.844  1.00  0.00     0.365 C 
BRANCH   4   5
HETATM    5  N5  UNL     1      11.301   0.336   5.203  1.00  0.00    -0.098 NA
BRANCH   5   6
HETATM    6  N4  UNL     1      11.243  -0.829   5.968  1.00  0.00    -0.280 N 
ATOM      7  H4  UNL     1      10.453  -1.007   6.589  1.00  0.00     0.184 HD
BRANCH   6   8
HETATM    8  C2  UNL     1      12.328  -1.777   5.861  1.00  0.00     0.178 A 
HETATM    9  N3  UNL     1      12.274  -3.080   5.632  1.00  0.00    -0.277 N 
HETATM   10  N2  UNL     1      13.337  -3.764   5.570  1.00  0.00    -0.278 N 
ATOM     11  H3  UNL     1      11.370  -3.534   5.505  1.00  0.00     0.189 HD
HETATM   12  C1  UNL     1      14.510  -3.147   5.739  1.00  0.00     0.160 A 
ATOM     13  H2  UNL     1      13.299  -4.769   5.395  1.00  0.00     0.189 HD
HETATM   14  S1  UNL     1      14.013  -1.528   5.994  1.00  0.00    -0.015 SA
BRANCH  12  15
HETATM   15  N1  UNL     1      15.710  -3.684   5.709  1.00  0.00    -0.378 N 
ATOM     16  H12 UNL     1      16.078  -4.522   6.159  1.00  0.00     0.158 HD
ATOM     17  H11 UNL     1      16.531  -3.345   5.206  1.00  0.00     0.158 HD
ENDBRANCH  12  15
ENDBRANCH   6   8
ENDBRANCH   5   6
ENDBRANCH   4   5
BRANCH   4  18
HETATM   18  N6  UNL     1      12.159  -0.200   3.087  1.00  0.00    -0.052 N 
ATOM     19  H63 UNL     1      12.418  -1.184   3.021  1.00  0.00     0.276 HD
ATOM     20  H62 UNL     1      12.025  -0.019   2.092  1.00  0.00     0.276 HD
ATOM     21  H61 UNL     1      12.903   0.371   3.488  1.00  0.00     0.276 HD
ENDBRANCH   4  18
ENDBRANCH   1   4
BRANCH   1  22
HETATM   22  N9  UNL     1      10.127   1.317   1.854  1.00  0.00    -0.219 N 
BRANCH  22  23
HETATM   23  O1  UNL     1      10.997   2.291   1.490  1.00  0.00    -0.284 OA
ATOM     24  H1  UNL     1      10.697   3.191   1.550  1.00  0.00     0.245 HD
ENDBRANCH  22  23
BRANCH  22  25
HETATM   25  C5  UNL     1       9.294   0.583   0.940  1.00  0.00     0.336 C 
BRANCH  25  26
HETATM   26  O2  UNL     1       8.149   1.280   0.507  1.00  0.00    -0.296 OA
BRANCH  26  27
HETATM   27  C6  UNL     1       8.139   2.304  -0.423  1.00  0.00     0.317 C 
HETATM   28  O3  UNL     1       8.648   2.091  -1.545  1.00  0.00    -0.260 OA
BRANCH  27  29
HETATM   29  C7  UNL     1       7.527   3.599  -0.048  1.00  0.00     0.417 C 
BRANCH  29  30
HETATM   30  N10 UNL     1       6.086   3.556  -0.092  1.00  0.00    -0.043 N 
ATOM     31 3H10 UNL     1       5.746   3.590  -1.054  1.00  0.00     0.278 HD
ATOM     32 2H10 UNL     1       5.737   2.636   0.172  1.00  0.00     0.278 HD
ATOM     33 1H10 UNL     1       5.659   4.289   0.475  1.00  0.00     0.278 HD
ENDBRANCH  29  30
BRANCH  29  34
HETATM   34  O4  UNL     1       7.984   4.636  -0.840  1.00  0.00    -0.363 OA
ATOM     35  H4  UNL     1       7.529   5.451  -0.657  1.00  0.00     0.212 HD
ENDBRANCH  29  34
ENDBRANCH  27  29
ENDBRANCH  26  27
ENDBRANCH  25  26
ENDBRANCH  22  25
ENDBRANCH   1  22
BRANCH   2  36
HETATM   36  N8  UNL     1       8.315   2.523   3.369  1.00  0.00    -0.344 N 
ATOM     37  H82 UNL     1       8.396   2.707   2.369  1.00  0.00     0.176 HD
ATOM     38  H81 UNL     1       7.625   3.015   3.936  1.00  0.00     0.176 HD
ENDBRANCH   2  36
TORSDOF 15
ENDMDL
MODEL 4
REMARK VINA RESULT: -6.714335728      2.949      4.971
REMARK  15 active torsions:
REMARK  status: ('A' for Active; 'I' for Inactive)
REMARK    1  A    between atoms: N1_1  and  C1_4 
REMARK    2  A    between atoms: C2_9  and  N4_10 
REMARK    3  A    between atoms: N4_10  and  N5_12 
REMARK    4  A    between atoms: N5_12  and  C3_13 
REMARK    5  A    between atoms: C3_13  and  N6_14 
REMARK    6  A    between atoms: C3_13  and  C4_18 
REMARK    7  A    between atoms: C4_18  and  N9_24 
REMARK    8  A    between atoms: N7_19  and  N8_21 
REMARK    9  A    between atoms: N9_24  and  O1_25 
REMARK   10  A    between atoms: N9_24  and  C5_27 
REMARK   11  A    between atoms: C5_27  and  O2_28 
REMARK   12  A    between atoms: O2_28  and  C6_29 
REMARK   13  A    between atoms: C6_29  and  C7_31 
REMARK   14  A    between atoms: C7_31  and  N10_32 
REMARK   15  A    between atoms: C7_31  and  O4_36 
ROOT
HETATM    1  C4  UNL     1       9.946   1.233   0.971  1.00  0.00     0.169 C 
HETATM    2  N7  UNL     1      10.774   0.855   0.068  1.00  0.00    -0.291 N 
ATOM      3  H7  UNL     1      10.449   0.698  -0.885  1.00  0.00     0.188 HD
ENDROOT
BRANCH   1   4
HETATM    4  C3  UNL     1       8.509   1.448   0.650  1.00  0.00     0.365 C 
BRANCH   4   5
HETATM    5  N5  UNL     1       8.297   1.632  -0.766  1.00  0.00    -0.098 NA
BRANCH   5   6
HETATM    6  N4  UNL     1       8.311   3.002  -1.031  1.00  0.00    -0.280 N 
ATOM      7  H4  UNL     1       7.808   3.654  -0.430  1.00  0.00     0.184 HD
BRANCH   6   8
HETATM    8  C2  UNL     1       9.056   3.473  -2.176  1.00  0.00     0.178 A 
HETATM    9  N3  UNL     1       9.007   4.656  -2.769  1.00  0.00    -0.277 N 
HETATM   10  N2  UNL     1       9.738   4.899  -3.774  1.00  0.00    -0.278 N 
ATOM     11  H3  UNL     1       8.377   5.375  -2.414  1.00  0.00     0.189 HD
HETATM   12  C1  UNL     1      10.557   3.942  -4.221  1.00  0.00     0.160 A 
ATOM     13  H2  UNL     1       9.703   5.809  -4.234  1.00  0.00     0.189 HD
HETATM   14  S1  UNL     1      10.226   2.667  -3.125  1.00  0.00    -0.015 SA
BRANCH  12  15
HETATM   15  N1  UNL     1      11.384   4.007  -5.241  1.00  0.00    -0.378 N 
ATOM     16  H12 UNL     1      11.930   4.786  -5.609  1.00  0.00     0.158 HD
ATOM     17  H11 UNL     1      11.644   3.254  -5.879  1.00  0.00     0.158 HD
ENDBRANCH  12  15
ENDBRANCH   6   8
ENDBRANCH   5   6
ENDBRANCH   4   5
BRANCH   4  18
HETATM   18  N6  UNL     1       7.933   2.555   1.359  1.00  0.00    -0.052 N 
ATOM     19  H63 UNL     1       8.378   2.709   2.263  1.00  0.00     0.276 HD
ATOM     20  H62 UNL     1       8.162   3.452   0.931  1.00  0.00     0.276 HD
ATOM     21  H61 UNL     1       6.926   2.411   1.442  1.00  0.00     0.276 HD
ENDBRANCH   4  18
ENDBRANCH   1   4
BRANCH   1  22
HETATM   22  N9  UNL     1      10.433   1.442   2.290  1.00  0.00    -0.219 N 
BRANCH  22  23
HETATM   23  O1  UNL     1      10.751   2.711   2.645  1.00  0.00    -0.284 OA
ATOM     24  H1  UNL     1      10.098   3.209   3.123  1.00  0.00     0.245 HD
ENDBRANCH  22  23
BRANCH  22  25
HETATM   25  C5  UNL     1      10.549   0.298   3.155  1.00  0.00     0.336 C 
BRANCH  25  26
HETATM   26  O2  UNL     1      11.690   0.307   3.982  1.00  0.00    -0.296 OA
BRANCH  26  27
HETATM   27  C6  UNL     1      11.757   0.863   5.247  1.00  0.00     0.317 C 
HETATM   28  O3  UNL     1      11.798   2.109   5.345  1.00  0.00    -0.260 OA
BRANCH  27  29
HETATM   29  C7  UNL     1      11.777  -0.039   6.420  1.00  0.00     0.417 C 
BRANCH  29  30
HETATM   30  N10 UNL     1      11.239  -1.343   6.118  1.00  0.00    -0.043 N 
ATOM     31 3H10 UNL     1      10.410  -1.539   6.680  1.00  0.00     0.278 HD
ATOM     32 2H10 UNL     1      10.815  -1.359   5.191  1.00  0.00     0.278 HD
ATOM     33 1H10 UNL     1      11.935  -2.082   6.217  1.00  0.00     0.278 HD
ENDBRANCH  29  30
BRANCH  29  34
HETATM   34  O4  UNL     1      11.102   0.500   7.500  1.00  0.00    -0.363 OA
ATOM     35  H4  UNL     1      11.696   0.883   8.136  1.00  0.00     0.212 HD
ENDBRANCH  29  34
ENDBRANCH  27  29
ENDBRANCH  26  27
ENDBRANCH  25  26
ENDBRANCH  22  25
ENDBRANCH   1  22
BRANCH   2  36
HETATM   36  N8  UNL     1      12.099   0.659   0.381  1.00  0.00    -0.344 N 
ATOM     37  H82 UNL     1      12.422   0.883   1.323  1.00  0.00     0.176 HD
ATOM     38  H81 UNL     1      12.745   0.295  -0.319  1.00  0.00     0.176 HD
ENDBRANCH   2  36
TORSDOF 15
ENDMDL
MODEL 5
REMARK VINA RESULT: -6.671947280      1.643      2.225
REMARK  15 active torsions:
REMARK  status: ('A' for Active; 'I' for Inactive)
REMARK    1  A    between atoms: N1_1  and  C1_4 
REMARK    2  A    between atoms: C2_9  and  N4_10 
REMARK    3  A    between atoms: N4_10  and  N5_12 
REMARK    4  A    between atoms: N5_12  and  C3_13 
REMARK    5  A    between atoms: C3_13  and  N6_14 
REMARK    6  A    between atoms: C3_13  and  C4_18 
REMARK    7  A    between atoms: C4_18  and  N9_24 
REMARK    8  A    between atoms: N7_19  and  N8_21 
REMARK    9  A    between atoms: N9_24  and  O1_25 
REMARK   10  A    between atoms: N9_24  and  C5_27 
REMARK   11  A    between atoms: C5_27  and  O2_28 
REMARK   12  A    between atoms: O2_28  and  C6_29 
REMARK   13  A    between atoms: C6_29  and  C7_31 
REMARK   14  A    between atoms: C7_31  and  N10_32 
REMARK   15  A    between atoms: C7_31  and  O4_36 
ROOT
HETATM    1  C4  UNL     1      11.541   1.602  -1.668  1.00  0.00     0.169 C 
HETATM    2  N7  UNL     1      12.562   0.863  -1.903  1.00  0.00    -0.291 N 
ATOM      3  H7  UNL     1      13.021   0.904  -2.812  1.00  0.00     0.188 HD
ENDROOT
BRANCH   1   4
HETATM    4  C3  UNL     1      11.009   2.525  -2.707  1.00  0.00     0.365 C 
BRANCH   4   5
HETATM    5  N5  UNL     1      10.718   3.831  -2.168  1.00  0.00    -0.098 NA
BRANCH   5   6
HETATM    6  N4  UNL     1       9.991   4.541  -3.124  1.00  0.00    -0.280 N 
ATOM      7  H4  UNL     1       8.978   4.435  -3.193  1.00  0.00     0.184 HD
BRANCH   6   8
HETATM    8  C2  UNL     1      10.705   5.428  -4.013  1.00  0.00     0.178 A 
HETATM    9  N3  UNL     1      11.196   5.179  -5.217  1.00  0.00    -0.277 N 
HETATM   10  N2  UNL     1      11.801   6.085  -5.863  1.00  0.00    -0.278 N 
ATOM     11  H3  UNL     1      11.086   4.252  -5.628  1.00  0.00     0.189 HD
HETATM   12  C1  UNL     1      11.932   7.293  -5.306  1.00  0.00     0.160 A 
ATOM     13  H2  UNL     1      12.181   5.897  -6.790  1.00  0.00     0.189 HD
HETATM   14  S1  UNL     1      11.142   7.066  -3.802  1.00  0.00    -0.015 SA
BRANCH  12  15
HETATM   15  N1  UNL     1      12.522   8.351  -5.816  1.00  0.00    -0.378 N 
ATOM     16  H12 UNL     1      13.070   8.464  -6.669  1.00  0.00     0.158 HD
ATOM     17  H11 UNL     1      12.540   9.297  -5.435  1.00  0.00     0.158 HD
ENDBRANCH  12  15
ENDBRANCH   6   8
ENDBRANCH   5   6
ENDBRANCH   4   5
BRANCH   4  18
HETATM   18  N6  UNL     1       9.840   2.017  -3.366  1.00  0.00    -0.052 N 
ATOM     19  H63 UNL     1       9.424   1.232  -2.866  1.00  0.00     0.276 HD
ATOM     20  H62 UNL     1       9.051   2.660  -3.307  1.00  0.00     0.276 HD
ATOM     21  H61 UNL     1      10.076   1.781  -4.331  1.00  0.00     0.276 HD
ENDBRANCH   4  18
ENDBRANCH   1   4
BRANCH   1  22
HETATM   22  N9  UNL     1      10.927   1.519  -0.389  1.00  0.00    -0.219 N 
BRANCH  22  23
HETATM   23  O1  UNL     1      11.589   2.069   0.659  1.00  0.00    -0.284 OA
ATOM     24  H1  UNL     1      12.144   2.819   0.481  1.00  0.00     0.245 HD
ENDBRANCH  22  23
BRANCH  22  25
HETATM   25  C5  UNL     1       9.648   0.867  -0.296  1.00  0.00     0.336 C 
BRANCH  25  26
HETATM   26  O2  UNL     1       8.543   1.739  -0.358  1.00  0.00    -0.296 OA
BRANCH  26  27
HETATM   27  C6  UNL     1       8.248   2.725   0.566  1.00  0.00     0.317 C 
HETATM   28  O3  UNL     1       8.705   2.607   1.724  1.00  0.00    -0.260 OA
BRANCH  27  29
HETATM   29  C7  UNL     1       7.408   3.868   0.143  1.00  0.00     0.417 C 
BRANCH  29  30
HETATM   30  N10 UNL     1       6.071   3.462  -0.215  1.00  0.00    -0.043 N 
ATOM     31 3H10 UNL     1       6.055   2.497  -0.547  1.00  0.00     0.278 HD
ATOM     32 2H10 UNL     1       5.484   3.360   0.612  1.00  0.00     0.278 HD
ATOM     33 1H10 UNL     1       5.644   4.092  -0.894  1.00  0.00     0.278 HD
ENDBRANCH  29  30
BRANCH  29  34
HETATM   34  O4  UNL     1       7.976   4.566  -0.907  1.00  0.00    -0.363 OA
ATOM     35  H4  UNL     1       8.103   5.485  -0.697  1.00  0.00     0.212 HD
ENDBRANCH  29  34
ENDBRANCH  27  29
ENDBRANCH  26  27
ENDBRANCH  25  26
ENDBRANCH  22  25
ENDBRANCH   1  22
BRANCH   2  36
HETATM   36  N8  UNL     1      13.041   0.014  -0.931  1.00  0.00    -0.344 N 
ATOM     37  H82 UNL     1      13.119  -0.981  -1.141  1.00  0.00     0.176 HD
ATOM     38  H81 UNL     1      13.314   0.379  -0.019  1.00  0.00     0.176 HD
ENDBRANCH   2  36
TORSDOF 15
ENDMDL
