MODEL 1
REMARK VINA RESULT: -6.915874894      0.000      0.000
REMARK  5 active torsions:
REMARK  status: ('A' for Active; 'I' for Inactive)
REMARK    1  A    between atoms: N1_1  and  S1_4 
REMARK    2  A    between atoms: S1_4  and  N2_5 
REMARK    3  A    between atoms: S1_4  and  C1_9 
REMARK    4  A    between atoms: C3_11  and  C4_12 
REMARK    5  A    between atoms: C5_17  and  C6_18 
ROOT
HETATM    1  C1  UNL     1      74.464  75.182  61.807  1.00  0.00     0.130 A 
HETATM    2  C2  UNL     1      75.719  75.743  61.915  1.00  0.00     0.076 A 
HETATM    3  C3  UNL     1      75.890  77.118  61.889  1.00  0.00     0.102 A 
HETATM    4  N4  UNL     1      74.782  77.858  61.755  1.00  0.00    -0.339 N 
ATOM      5  H4  UNL     1      74.875  78.874  61.733  1.00  0.00     0.167 HD
HETATM    6  C5  UNL     1      73.541  77.319  61.648  1.00  0.00     0.121 A 
HETATM    7  N9  UNL     1      73.399  75.989  61.675  1.00  0.00    -0.334 N 
ATOM      8  H9  UNL     1      72.467  75.581  61.594  1.00  0.00     0.168 HD
ENDROOT
BRANCH   1   9
HETATM    9  S1  UNL     1      74.320  73.437  61.847  1.00  0.00     0.147 S 
HETATM   10  O1  UNL     1      73.356  72.940  60.803  1.00  0.00    -0.222 OA
BRANCH   9  11
HETATM   11  N1  UNL     1      75.716  72.809  61.599  1.00  0.00    -0.340 N 
ATOM     12  H12 UNL     1      76.603  73.304  61.697  1.00  0.00     0.167 HD
ATOM     13  H11 UNL     1      75.594  71.833  61.328  1.00  0.00     0.167 HD
ENDBRANCH   9  11
BRANCH   9  14
HETATM   14  N2  UNL     1      73.742  72.915  63.388  1.00  0.00    -0.340 N 
ATOM     15  H22 UNL     1      74.112  73.227  64.286  1.00  0.00     0.167 HD
ATOM     16  H21 UNL     1      72.978  72.253  63.245  1.00  0.00     0.167 HD
ENDBRANCH   9  14
ENDBRANCH   1   9
BRANCH   3  17
HETATM   17  C4  UNL     1      77.220  77.698  62.004  1.00  0.00     0.281 C 
HETATM   18  N3  UNL     1      78.060  77.804  60.865  1.00  0.00    -0.056 NA
HETATM   19  O2  UNL     1      77.596  78.095  63.127  1.00  0.00    -0.269 OA
ENDBRANCH   3  17
BRANCH   6  20
HETATM   20  C6  UNL     1      72.419  78.265  61.506  1.00  0.00     0.274 C 
HETATM   21  N5  UNL     1      71.321  77.981  62.407  1.00  0.00    -0.098 NA
HETATM   22  N6  UNL     1      70.202  78.433  61.735  1.00  0.00    -0.019 NA
HETATM   23  N7  UNL     1      70.569  78.819  60.463  1.00  0.00    -0.019 NA
HETATM   24  N8  UNL     1      71.755  78.078  60.209  1.00  0.00    -0.098 NA
ENDBRANCH   6  20
TORSDOF 5
ENDMDL
MODEL 2
REMARK VINA RESULT: -6.649515302      2.198      3.778
REMARK  5 active torsions:
REMARK  status: ('A' for Active; 'I' for Inactive)
REMARK    1  A    between atoms: N1_1  and  S1_4 
REMARK    2  A    between atoms: S1_4  and  N2_5 
REMARK    3  A    between atoms: S1_4  and  C1_9 
REMARK    4  A    between atoms: C3_11  and  C4_12 
REMARK    5  A    between atoms: C5_17  and  C6_18 
ROOT
HETATM    1  C1  UNL     1      74.904  76.142  61.437  1.00  0.00     0.130 A 
HETATM    2  C2  UNL     1      74.608  75.353  60.346  1.00  0.00     0.076 A 
HETATM    3  C3  UNL     1      73.464  75.575  59.595  1.00  0.00     0.102 A 
HETATM    4  N4  UNL     1      72.676  76.585  59.986  1.00  0.00    -0.339 N 
ATOM      5  H4  UNL     1      71.827  76.773  59.453  1.00  0.00     0.167 HD
HETATM    6  C5  UNL     1      72.956  77.368  61.058  1.00  0.00     0.121 A 
HETATM    7  N9  UNL     1      74.065  77.136  61.769  1.00  0.00    -0.334 N 
ATOM      8  H9  UNL     1      74.277  77.724  62.576  1.00  0.00     0.168 HD
ENDROOT
BRANCH   1   9
HETATM    9  S1  UNL     1      76.366  75.806  62.341  1.00  0.00     0.147 S 
HETATM   10  O1  UNL     1      77.391  76.893  62.154  1.00  0.00    -0.222 OA
BRANCH   9  11
HETATM   11  N1  UNL     1      76.013  75.685  63.847  1.00  0.00    -0.340 N 
ATOM     12  H12 UNL     1      76.596  76.027  64.611  1.00  0.00     0.167 HD
ATOM     13  H11 UNL     1      75.114  75.212  63.935  1.00  0.00     0.167 HD
ENDBRANCH   9  11
BRANCH   9  14
HETATM   14  N2  UNL     1      77.072  74.320  61.815  1.00  0.00    -0.340 N 
ATOM     15  H22 UNL     1      76.549  73.526  61.446  1.00  0.00     0.167 HD
ATOM     16  H21 UNL     1      78.083  74.377  61.935  1.00  0.00     0.167 HD
ENDBRANCH   9  14
ENDBRANCH   1   9
BRANCH   3  17
HETATM   17  C4  UNL     1      73.163  74.735  58.445  1.00  0.00     0.281 C 
HETATM   18  N3  UNL     1      71.886  74.130  58.310  1.00  0.00    -0.056 NA
HETATM   19  O2  UNL     1      74.056  74.564  57.588  1.00  0.00    -0.269 OA
ENDBRANCH   3  17
BRANCH   6  20
HETATM   20  C6  UNL     1      71.991  78.441  61.363  1.00  0.00     0.274 C 
HETATM   21  N5  UNL     1      71.013  78.057  62.359  1.00  0.00    -0.098 NA
HETATM   22  N6  UNL     1      69.890  78.796  62.040  1.00  0.00    -0.019 NA
HETATM   23  N7  UNL     1      70.116  79.461  60.852  1.00  0.00    -0.019 NA
HETATM   24  N8  UNL     1      71.116  78.682  60.208  1.00  0.00    -0.098 NA
ENDBRANCH   6  20
TORSDOF 5
ENDMDL
MODEL 3
REMARK VINA RESULT: -6.638371661      2.436      2.778
REMARK  5 active torsions:
REMARK  status: ('A' for Active; 'I' for Inactive)
REMARK    1  A    between atoms: N1_1  and  S1_4 
REMARK    2  A    between atoms: S1_4  and  N2_5 
REMARK    3  A    between atoms: S1_4  and  C1_9 
REMARK    4  A    between atoms: C3_11  and  C4_12 
REMARK    5  A    between atoms: C5_17  and  C6_18 
ROOT
HETATM    1  C1  UNL     1      73.519  76.469  62.005  1.00  0.00     0.130 A 
HETATM    2  C2  UNL     1      74.306  76.633  60.884  1.00  0.00     0.076 A 
HETATM    3  C3  UNL     1      74.042  77.640  59.969  1.00  0.00     0.102 A 
HETATM    4  N4  UNL     1      72.994  78.431  60.232  1.00  0.00    -0.339 N 
ATOM      5  H4  UNL     1      72.774  79.181  59.577  1.00  0.00     0.167 HD
HETATM    6  C5  UNL     1      72.212  78.280  61.330  1.00  0.00     0.121 A 
HETATM    7  N9  UNL     1      72.485  77.301  62.202  1.00  0.00    -0.334 N 
ATOM      8  H9  UNL     1      71.897  77.186  63.028  1.00  0.00     0.168 HD
ENDROOT
BRANCH   1   9
HETATM    9  S1  UNL     1      73.910  75.177  63.120  1.00  0.00     0.147 S 
HETATM   10  O1  UNL     1      73.718  73.825  62.485  1.00  0.00    -0.222 OA
BRANCH   9  11
HETATM   11  N1  UNL     1      75.385  75.328  63.573  1.00  0.00    -0.340 N 
ATOM     12  H12 UNL     1      75.689  75.819  64.415  1.00  0.00     0.167 HD
ATOM     13  H11 UNL     1      75.986  74.860  62.895  1.00  0.00     0.167 HD
ENDBRANCH   9  11
BRANCH   9  14
HETATM   14  N2  UNL     1      72.890  75.253  64.512  1.00  0.00    -0.340 N 
ATOM     15  H22 UNL     1      72.779  74.504  65.195  1.00  0.00     0.167 HD
ATOM     16  H21 UNL     1      72.429  76.163  64.531  1.00  0.00     0.167 HD
ENDBRANCH   9  14
ENDBRANCH   1   9
BRANCH   3  17
HETATM   17  C4  UNL     1      74.880  77.802  58.790  1.00  0.00     0.281 C 
HETATM   18  N3  UNL     1      74.499  78.693  57.752  1.00  0.00    -0.056 NA
HETATM   19  O2  UNL     1      75.937  77.139  58.720  1.00  0.00    -0.269 OA
ENDBRANCH   3  17
BRANCH   6  20
HETATM   20  C6  UNL     1      71.094  79.230  61.482  1.00  0.00     0.274 C 
HETATM   21  N5  UNL     1      71.239  80.096  62.633  1.00  0.00    -0.098 NA
HETATM   22  N6  UNL     1      69.941  80.382  63.012  1.00  0.00    -0.019 NA
HETATM   23  N7  UNL     1      69.076  79.626  62.249  1.00  0.00    -0.019 NA
HETATM   24  N8  UNL     1      69.862  78.514  61.839  1.00  0.00    -0.098 NA
ENDBRANCH   6  20
TORSDOF 5
ENDMDL
MODEL 4
REMARK VINA RESULT: -6.497643913      2.027      3.966
REMARK  5 active torsions:
REMARK  status: ('A' for Active; 'I' for Inactive)
REMARK    1  A    between atoms: N1_1  and  S1_4 
REMARK    2  A    between atoms: S1_4  and  N2_5 
REMARK    3  A    between atoms: S1_4  and  C1_9 
REMARK    4  A    between atoms: C3_11  and  C4_12 
REMARK    5  A    between atoms: C5_17  and  C6_18 
ROOT
HETATM    1  C1  UNL     1      75.256  76.551  61.214  1.00  0.00     0.130 A 
HETATM    2  C2  UNL     1      74.895  75.578  60.305  1.00  0.00     0.076 A 
HETATM    3  C3  UNL     1      73.623  75.554  59.755  1.00  0.00     0.102 A 
HETATM    4  N4  UNL     1      72.778  76.514  60.153  1.00  0.00    -0.339 N 
ATOM      5  H4  UNL     1      71.834  76.523  59.766  1.00  0.00     0.167 HD
HETATM    6  C5  UNL     1      73.121  77.476  61.047  1.00  0.00     0.121 A 
HETATM    7  N9  UNL     1      74.354  77.481  61.566  1.00  0.00    -0.334 N 
ATOM      8  H9  UNL     1      74.613  78.203  62.239  1.00  0.00     0.168 HD
ENDROOT
BRANCH   1   9
HETATM    9  S1  UNL     1      76.880  76.523  61.869  1.00  0.00     0.147 S 
HETATM   10  O1  UNL     1      77.010  77.441  63.055  1.00  0.00    -0.222 OA
BRANCH   9  11
HETATM   11  N1  UNL     1      77.227  75.074  62.299  1.00  0.00    -0.340 N 
ATOM     12  H12 UNL     1      77.495  74.794  63.243  1.00  0.00     0.167 HD
ATOM     13  H11 UNL     1      77.140  74.462  61.487  1.00  0.00     0.167 HD
ENDBRANCH   9  11
BRANCH   9  14
HETATM   14  N2  UNL     1      78.019  77.037  60.678  1.00  0.00    -0.340 N 
ATOM     15  H22 UNL     1      77.913  76.899  59.672  1.00  0.00     0.167 HD
ATOM     16  H21 UNL     1      78.801  77.494  61.147  1.00  0.00     0.167 HD
ENDBRANCH   9  14
ENDBRANCH   1   9
BRANCH   3  17
HETATM   17  C4  UNL     1      73.254  74.523  58.797  1.00  0.00     0.281 C 
HETATM   18  N3  UNL     1      71.889  74.277  58.492  1.00  0.00    -0.056 NA
HETATM   19  O2  UNL     1      74.168  73.865  58.255  1.00  0.00    -0.269 OA
ENDBRANCH   3  17
BRANCH   6  20
HETATM   20  C6  UNL     1      72.080  78.465  61.386  1.00  0.00     0.274 C 
HETATM   21  N5  UNL     1      71.114  77.966  62.342  1.00  0.00    -0.098 NA
HETATM   22  N6  UNL     1      69.949  78.644  62.037  1.00  0.00    -0.019 NA
HETATM   23  N7  UNL     1      70.149  79.382  60.889  1.00  0.00    -0.019 NA
HETATM   24  N8  UNL     1      71.210  78.706  60.227  1.00  0.00    -0.098 NA
ENDBRANCH   6  20
TORSDOF 5
ENDMDL
MODEL 5
REMARK VINA RESULT: -6.378378484      1.760      1.852
REMARK  5 active torsions:
REMARK  status: ('A' for Active; 'I' for Inactive)
REMARK    1  A    between atoms: N1_1  and  S1_4 
REMARK    2  A    between atoms: S1_4  and  N2_5 
REMARK    3  A    between atoms: S1_4  and  C1_9 
REMARK    4  A    between atoms: C3_11  and  C4_12 
REMARK    5  A    between atoms: C5_17  and  C6_18 
ROOT
HETATM    1  C1  UNL     1      73.680  75.428  63.130  1.00  0.00     0.130 A 
HETATM    2  C2  UNL     1      74.951  75.533  62.603  1.00  0.00     0.076 A 
HETATM    3  C3  UNL     1      75.285  76.575  61.752  1.00  0.00     0.102 A 
HETATM    4  N4  UNL     1      74.317  77.458  61.474  1.00  0.00    -0.339 N 
ATOM      5  H4  UNL     1      74.533  78.236  60.850  1.00  0.00     0.167 HD
HETATM    6  C5  UNL     1      73.064  77.365  61.986  1.00  0.00     0.121 A 
HETATM    7  N9  UNL     1      72.762  76.352  62.806  1.00  0.00    -0.334 N 
ATOM      8  H9  UNL     1      71.820  76.280  63.190  1.00  0.00     0.168 HD
ENDROOT
BRANCH   1   9
HETATM    9  S1  UNL     1      73.327  74.087  64.199  1.00  0.00     0.147 S 
HETATM   10  O1  UNL     1      73.002  72.837  63.425  1.00  0.00    -0.222 OA
BRANCH   9  11
HETATM   11  N1  UNL     1      74.556  73.826  65.107  1.00  0.00    -0.340 N 
ATOM     12  H12 UNL     1      75.009  72.920  65.229  1.00  0.00     0.167 HD
ATOM     13  H11 UNL     1      74.827  74.703  65.552  1.00  0.00     0.167 HD
ENDBRANCH   9  11
BRANCH   9  14
HETATM   14  N2  UNL     1      71.967  74.455  65.198  1.00  0.00    -0.340 N 
ATOM     15  H22 UNL     1      71.513  73.796  65.830  1.00  0.00     0.167 HD
ATOM     16  H21 UNL     1      71.704  75.430  65.047  1.00  0.00     0.167 HD
ENDBRANCH   9  14
ENDBRANCH   1   9
BRANCH   3  17
HETATM   17  C4  UNL     1      76.629  76.676  61.202  1.00  0.00     0.281 C 
HETATM   18  N3  UNL     1      77.733  76.108  61.890  1.00  0.00    -0.056 NA
HETATM   19  O2  UNL     1      76.779  77.273  60.115  1.00  0.00    -0.269 OA
ENDBRANCH   3  17
BRANCH   6  20
HETATM   20  C6  UNL     1      72.107  78.415  61.587  1.00  0.00     0.274 C 
HETATM   21  N5  UNL     1      70.891  78.402  62.373  1.00  0.00    -0.098 NA
HETATM   22  N6  UNL     1      69.924  78.891  61.515  1.00  0.00    -0.019 NA
HETATM   23  N7  UNL     1      70.476  79.043  60.260  1.00  0.00    -0.019 NA
HETATM   24  N8  UNL     1      71.566  78.131  60.251  1.00  0.00    -0.098 NA
ENDBRANCH   6  20
TORSDOF 5
ENDMDL
