MODEL 1
REMARK VINA RESULT: -5.671783611      0.000      0.000
REMARK  6 active torsions:
REMARK  status: ('A' for Active; 'I' for Inactive)
REMARK    1  A    between atoms: C2_2  and  O1_3 
REMARK    2  A    between atoms: C2_2  and  C8_22 
REMARK    3  A    between atoms: O1_3  and  C3_4 
REMARK    4  A    between atoms: N1_6  and  N2_7 
REMARK    5  A    between atoms: N3_11  and  N4_13 
REMARK       I    between atoms: C8_22  and  N8_24 
REMARK    6  A    between atoms: N8_24  and  N9_25 
ROOT
HETATM    1  C3  UNL     1      71.347  78.514  61.439  1.00  0.00     0.162 C 
HETATM    2  C4  UNL     1      72.279  78.731  60.530  1.00  0.00     0.173 C 
HETATM    3  N1  UNL     1      73.437  77.937  60.217  1.00  0.00    -0.251 N 
HETATM    4  C5  UNL     1      74.064  77.028  61.147  1.00  0.00     0.168 C 
HETATM    5  N3  UNL     1      75.265  76.775  60.832  1.00  0.00    -0.289 N 
ATOM      6  H3  UNL     1      75.626  77.227  59.991  1.00  0.00     0.188 HD
HETATM    7  C6  UNL     1      73.507  76.390  62.354  1.00  0.00     0.134 C 
HETATM    8  N5  UNL     1      74.322  75.490  63.057  1.00  0.00    -0.095 NA
HETATM    9  C7  UNL     1      72.296  76.579  62.850  1.00  0.00     0.146 C 
HETATM   10  N6  UNL     1      72.033  75.834  64.025  1.00  0.00    -0.080 NA
HETATM   11  N7  UNL     1      71.243  77.423  62.359  1.00  0.00    -0.323 N 
ATOM     12  H7  UNL     1      70.306  77.220  62.710  1.00  0.00     0.169 HD
ENDROOT
BRANCH   1  13
HETATM   13  O1  UNL     1      70.321  79.428  61.557  1.00  0.00    -0.319 OA
BRANCH  13  14
HETATM   14  C2  UNL     1      69.986  80.167  62.684  1.00  0.00     0.235 C 
HETATM   15  C1  UNL     1      71.019  81.271  62.860  1.00  0.00     0.052 C 
BRANCH  14  16
HETATM   16  C8  UNL     1      68.607  80.798  62.598  1.00  0.00     0.340 C 
HETATM   17  O2  UNL     1      67.656  79.935  62.658  1.00  0.00    -0.252 OA
HETATM   18  N8  UNL     1      68.440  82.145  62.472  1.00  0.00    -0.291 NA
BRANCH  18  19
HETATM   19  N9  UNL     1      68.276  83.451  62.351  1.00  0.00    -0.277 N 
ATOM     20  H92 UNL     1      68.330  82.441  62.482  1.00  0.00     0.191 HD
ATOM     21  H91 UNL     1      68.150  84.459  62.256  1.00  0.00     0.191 HD
ENDBRANCH  18  19
ENDBRANCH  14  16
ENDBRANCH  13  14
ENDBRANCH   1  13
BRANCH   3  22
HETATM   22  N2  UNL     1      73.990  78.044  58.945  1.00  0.00    -0.337 N 
ATOM     23  H22 UNL     1      73.847  78.917  58.438  1.00  0.00     0.177 HD
ATOM     24  H21 UNL     1      74.513  77.251  58.575  1.00  0.00     0.177 HD
ENDBRANCH   3  22
BRANCH   5  25
HETATM   25  N4  UNL     1      76.129  75.954  61.513  1.00  0.00    -0.344 N 
ATOM     26  H42 UNL     1      76.538  76.348  62.360  1.00  0.00     0.176 HD
ATOM     27  H41 UNL     1      76.393  75.004  61.251  1.00  0.00     0.176 HD
ENDBRANCH   5  25
TORSDOF 6
ENDMDL
MODEL 2
REMARK VINA RESULT: -5.626821847      3.593      5.840
REMARK  6 active torsions:
REMARK  status: ('A' for Active; 'I' for Inactive)
REMARK    1  A    between atoms: C2_2  and  O1_3 
REMARK    2  A    between atoms: C2_2  and  C8_22 
REMARK    3  A    between atoms: O1_3  and  C3_4 
REMARK    4  A    between atoms: N1_6  and  N2_7 
REMARK    5  A    between atoms: N3_11  and  N4_13 
REMARK       I    between atoms: C8_22  and  N8_24 
REMARK    6  A    between atoms: N8_24  and  N9_25 
ROOT
HETATM    1  C3  UNL     1      74.644  77.185  60.177  1.00  0.00     0.162 C 
HETATM    2  C4  UNL     1      75.468  76.247  60.609  1.00  0.00     0.173 C 
HETATM    3  N1  UNL     1      75.232  75.219  61.586  1.00  0.00    -0.251 N 
HETATM    4  C5  UNL     1      74.237  75.312  62.629  1.00  0.00     0.168 C 
HETATM    5  N3  UNL     1      74.485  74.534  63.597  1.00  0.00    -0.289 N 
ATOM      6  H3  UNL     1      75.324  73.957  63.522  1.00  0.00     0.188 HD
HETATM    7  C6  UNL     1      73.032  76.157  62.700  1.00  0.00     0.134 C 
HETATM    8  N5  UNL     1      72.191  76.011  63.813  1.00  0.00    -0.095 NA
HETATM    9  C7  UNL     1      72.652  77.054  61.806  1.00  0.00     0.146 C 
HETATM   10  N6  UNL     1      71.448  77.723  62.137  1.00  0.00    -0.080 NA
HETATM   11  N7  UNL     1      73.290  77.425  60.574  1.00  0.00    -0.323 N 
ATOM     12  H7  UNL     1      72.707  77.921  59.899  1.00  0.00     0.169 HD
ENDROOT
BRANCH   1  13
HETATM   13  O1  UNL     1      75.099  78.070  59.224  1.00  0.00    -0.319 OA
BRANCH  13  14
HETATM   14  C2  UNL     1      74.520  78.340  57.990  1.00  0.00     0.235 C 
HETATM   15  C1  UNL     1      75.619  78.757  57.023  1.00  0.00     0.052 C 
BRANCH  14  16
HETATM   16  C8  UNL     1      73.780  77.149  57.404  1.00  0.00     0.340 C 
HETATM   17  O2  UNL     1      72.504  77.240  57.532  1.00  0.00    -0.252 OA
HETATM   18  N8  UNL     1      74.439  76.114  56.811  1.00  0.00    -0.291 NA
BRANCH  18  19
HETATM   19  N9  UNL     1      75.077  75.111  56.235  1.00  0.00    -0.277 N 
ATOM     20  H92 UNL     1      74.568  75.835  56.741  1.00  0.00     0.191 HD
ATOM     21  H91 UNL     1      75.570  74.336  55.789  1.00  0.00     0.191 HD
ENDBRANCH  18  19
ENDBRANCH  14  16
ENDBRANCH  13  14
ENDBRANCH   1  13
BRANCH   3  22
HETATM   22  N2  UNL     1      76.004  74.063  61.531  1.00  0.00    -0.337 N 
ATOM     23  H22 UNL     1      75.662  73.291  60.959  1.00  0.00     0.177 HD
ATOM     24  H21 UNL     1      76.875  74.034  62.060  1.00  0.00     0.177 HD
ENDBRANCH   3  22
BRANCH   5  25
HETATM   25  N4  UNL     1      73.736  74.390  64.738  1.00  0.00    -0.344 N 
ATOM     26  H42 UNL     1      72.741  74.598  64.642  1.00  0.00     0.176 HD
ATOM     27  H41 UNL     1      74.078  74.100  65.654  1.00  0.00     0.176 HD
ENDBRANCH   5  25
TORSDOF 6
ENDMDL
MODEL 3
REMARK VINA RESULT: -5.571079930      3.768      5.775
REMARK  6 active torsions:
REMARK  status: ('A' for Active; 'I' for Inactive)
REMARK    1  A    between atoms: C2_2  and  O1_3 
REMARK    2  A    between atoms: C2_2  and  C8_22 
REMARK    3  A    between atoms: O1_3  and  C3_4 
REMARK    4  A    between atoms: N1_6  and  N2_7 
REMARK    5  A    between atoms: N3_11  and  N4_13 
REMARK       I    between atoms: C8_22  and  N8_24 
REMARK    6  A    between atoms: N8_24  and  N9_25 
ROOT
HETATM    1  C3  UNL     1      75.263  76.651  60.409  1.00  0.00     0.162 C 
HETATM    2  C4  UNL     1      75.777  75.563  60.953  1.00  0.00     0.173 C 
HETATM    3  N1  UNL     1      75.166  74.636  61.867  1.00  0.00    -0.251 N 
HETATM    4  C5  UNL     1      74.065  74.973  62.739  1.00  0.00     0.168 C 
HETATM    5  N3  UNL     1      73.975  74.182  63.724  1.00  0.00    -0.289 N 
ATOM      6  H3  UNL     1      74.665  73.431  63.776  1.00  0.00     0.188 HD
HETATM    7  C6  UNL     1      73.083  76.068  62.628  1.00  0.00     0.134 C 
HETATM    8  N5  UNL     1      72.065  76.138  63.591  1.00  0.00    -0.095 NA
HETATM    9  C7  UNL     1      73.060  77.006  61.697  1.00  0.00     0.146 C 
HETATM   10  N6  UNL     1      72.000  77.934  61.840  1.00  0.00    -0.080 NA
HETATM   11  N7  UNL     1      73.952  77.197  60.587  1.00  0.00    -0.323 N 
ATOM     12  H7  UNL     1      73.609  77.795  59.835  1.00  0.00     0.169 HD
ENDROOT
BRANCH   1  13
HETATM   13  O1  UNL     1      76.050  77.391  59.552  1.00  0.00    -0.319 OA
BRANCH  13  14
HETATM   14  C2  UNL     1      75.809  77.648  58.208  1.00  0.00     0.235 C 
HETATM   15  C1  UNL     1      75.838  76.327  57.452  1.00  0.00     0.052 C 
BRANCH  14  16
HETATM   16  C8  UNL     1      74.470  78.323  57.960  1.00  0.00     0.340 C 
HETATM   17  O2  UNL     1      74.410  79.511  58.448  1.00  0.00    -0.252 OA
HETATM   18  N8  UNL     1      73.465  77.698  57.284  1.00  0.00    -0.291 NA
BRANCH  18  19
HETATM   19  N9  UNL     1      72.490  77.094  56.628  1.00  0.00    -0.277 N 
ATOM     20  H92 UNL     1      73.243  77.616  57.075  1.00  0.00     0.191 HD
ATOM     21  H91 UNL     1      71.736  76.627  56.123  1.00  0.00     0.191 HD
ENDBRANCH  18  19
ENDBRANCH  14  16
ENDBRANCH  13  14
ENDBRANCH   1  13
BRANCH   3  22
HETATM   22  N2  UNL     1      75.658  73.336  61.920  1.00  0.00    -0.337 N 
ATOM     23  H22 UNL     1      75.298  72.723  62.651  1.00  0.00     0.177 HD
ATOM     24  H21 UNL     1      76.353  73.052  61.230  1.00  0.00     0.177 HD
ENDBRANCH   3  22
BRANCH   5  25
HETATM   25  N4  UNL     1      73.042  74.235  64.728  1.00  0.00    -0.344 N 
ATOM     26  H42 UNL     1      72.126  73.845  64.502  1.00  0.00     0.176 HD
ATOM     27  H41 UNL     1      73.179  74.622  65.662  1.00  0.00     0.176 HD
ENDBRANCH   5  25
TORSDOF 6
ENDMDL
MODEL 4
REMARK VINA RESULT: -5.452323329      4.752      5.704
REMARK  6 active torsions:
REMARK  status: ('A' for Active; 'I' for Inactive)
REMARK    1  A    between atoms: C2_2  and  O1_3 
REMARK    2  A    between atoms: C2_2  and  C8_22 
REMARK    3  A    between atoms: O1_3  and  C3_4 
REMARK    4  A    between atoms: N1_6  and  N2_7 
REMARK    5  A    between atoms: N3_11  and  N4_13 
REMARK       I    between atoms: C8_22  and  N8_24 
REMARK    6  A    between atoms: N8_24  and  N9_25 
ROOT
HETATM    1  C3  UNL     1      75.204  76.206  60.057  1.00  0.00     0.162 C 
HETATM    2  C4  UNL     1      75.531  76.821  61.180  1.00  0.00     0.173 C 
HETATM    3  N1  UNL     1      75.578  76.295  62.517  1.00  0.00    -0.251 N 
HETATM    4  C5  UNL     1      74.816  75.150  62.958  1.00  0.00     0.168 C 
HETATM    5  N3  UNL     1      74.674  75.127  64.217  1.00  0.00    -0.289 N 
ATOM      6  H3  UNL     1      75.101  75.890  64.743  1.00  0.00     0.188 HD
HETATM    7  C6  UNL     1      74.215  74.062  62.165  1.00  0.00     0.134 C 
HETATM    8  N5  UNL     1      73.567  73.027  62.855  1.00  0.00    -0.095 NA
HETATM    9  C7  UNL     1      74.226  73.958  60.847  1.00  0.00     0.146 C 
HETATM   10  N6  UNL     1      73.567  72.804  60.356  1.00  0.00    -0.080 NA
HETATM   11  N7  UNL     1      74.808  74.843  59.877  1.00  0.00    -0.323 N 
ATOM     12  H7  UNL     1      74.956  74.452  58.946  1.00  0.00     0.169 HD
ENDROOT
BRANCH   1  13
HETATM   13  O1  UNL     1      75.232  76.927  58.882  1.00  0.00    -0.319 OA
BRANCH  13  14
HETATM   14  C2  UNL     1      74.151  77.516  58.238  1.00  0.00     0.235 C 
HETATM   15  C1  UNL     1      74.342  77.358  56.737  1.00  0.00     0.052 C 
BRANCH  14  16
HETATM   16  C8  UNL     1      72.816  76.903  58.628  1.00  0.00     0.340 C 
HETATM   17  O2  UNL     1      72.105  77.680  59.365  1.00  0.00    -0.252 OA
HETATM   18  N8  UNL     1      72.451  75.656  58.216  1.00  0.00    -0.291 NA
BRANCH  18  19
HETATM   19  N9  UNL     1      72.094  74.448  57.817  1.00  0.00    -0.277 N 
ATOM     20  H92 UNL     1      72.431  75.346  58.164  1.00  0.00     0.191 HD
ATOM     21  H91 UNL     1      71.818  73.516  57.508  1.00  0.00     0.191 HD
ENDBRANCH  18  19
ENDBRANCH  14  16
ENDBRANCH  13  14
ENDBRANCH   1  13
BRANCH   3  22
HETATM   22  N2  UNL     1      76.405  76.918  63.446  1.00  0.00    -0.337 N 
ATOM     23  H22 UNL     1      77.412  76.856  63.301  1.00  0.00     0.177 HD
ATOM     24  H21 UNL     1      75.972  77.409  64.228  1.00  0.00     0.177 HD
ENDBRANCH   3  22
BRANCH   5  25
HETATM   25  N4  UNL     1      74.000  74.176  64.943  1.00  0.00    -0.344 N 
ATOM     26  H42 UNL     1      74.223  73.207  64.715  1.00  0.00     0.176 HD
ATOM     27  H41 UNL     1      73.312  74.350  65.675  1.00  0.00     0.176 HD
ENDBRANCH   5  25
TORSDOF 6
ENDMDL
MODEL 5
REMARK VINA RESULT: -5.388376083      3.781      6.108
REMARK  6 active torsions:
REMARK  status: ('A' for Active; 'I' for Inactive)
REMARK    1  A    between atoms: C2_2  and  O1_3 
REMARK    2  A    between atoms: C2_2  and  C8_22 
REMARK    3  A    between atoms: O1_3  and  C3_4 
REMARK    4  A    between atoms: N1_6  and  N2_7 
REMARK    5  A    between atoms: N3_11  and  N4_13 
REMARK       I    between atoms: C8_22  and  N8_24 
REMARK    6  A    between atoms: N8_24  and  N9_25 
ROOT
HETATM    1  C3  UNL     1      75.096  76.566  60.376  1.00  0.00     0.162 C 
HETATM    2  C4  UNL     1      75.627  75.487  60.924  1.00  0.00     0.173 C 
HETATM    3  N1  UNL     1      75.050  74.588  61.886  1.00  0.00    -0.251 N 
HETATM    4  C5  UNL     1      73.991  74.955  62.797  1.00  0.00     0.168 C 
HETATM    5  N3  UNL     1      73.941  74.188  63.805  1.00  0.00    -0.289 N 
ATOM      6  H3  UNL     1      74.627  73.434  63.845  1.00  0.00     0.188 HD
HETATM    7  C6  UNL     1      73.013  76.054  62.703  1.00  0.00     0.134 C 
HETATM    8  N5  UNL     1      72.040  76.156  63.708  1.00  0.00    -0.095 NA
HETATM    9  C7  UNL     1      72.956  76.969  61.751  1.00  0.00     0.146 C 
HETATM   10  N6  UNL     1      71.909  77.909  61.918  1.00  0.00    -0.080 NA
HETATM   11  N7  UNL     1      73.798  77.126  60.598  1.00  0.00    -0.323 N 
ATOM     12  H7  UNL     1      73.427  77.708  59.847  1.00  0.00     0.169 HD
ENDROOT
BRANCH   1  13
HETATM   13  O1  UNL     1      75.850  77.277  59.467  1.00  0.00    -0.319 OA
BRANCH  13  14
HETATM   14  C2  UNL     1      75.746  77.237  58.082  1.00  0.00     0.235 C 
HETATM   15  C1  UNL     1      74.764  76.137  57.705  1.00  0.00     0.052 C 
BRANCH  14  16
HETATM   16  C8  UNL     1      75.265  78.547  57.480  1.00  0.00     0.340 C 
HETATM   17  O2  UNL     1      74.316  79.090  58.155  1.00  0.00    -0.252 OA
HETATM   18  N8  UNL     1      75.814  79.058  56.342  1.00  0.00    -0.291 NA
BRANCH  18  19
HETATM   19  N9  UNL     1      76.345  79.555  55.239  1.00  0.00    -0.277 N 
ATOM     20  H92 UNL     1      75.986  79.109  56.082  1.00  0.00     0.191 HD
ATOM     21  H91 UNL     1      76.754  79.941  54.387  1.00  0.00     0.191 HD
ENDBRANCH  18  19
ENDBRANCH  14  16
ENDBRANCH  13  14
ENDBRANCH   1  13
BRANCH   3  22
HETATM   22  N2  UNL     1      75.535  73.286  61.950  1.00  0.00    -0.337 N 
ATOM     23  H22 UNL     1      75.753  72.906  62.871  1.00  0.00     0.177 HD
ATOM     24  H21 UNL     1      75.652  72.768  61.079  1.00  0.00     0.177 HD
ENDBRANCH   3  22
BRANCH   5  25
HETATM   25  N4  UNL     1      73.053  74.274  64.848  1.00  0.00    -0.344 N 
ATOM     26  H42 UNL     1      73.182  73.591  65.595  1.00  0.00     0.176 HD
ATOM     27  H41 UNL     1      72.291  74.946  64.940  1.00  0.00     0.176 HD
ENDBRANCH   5  25
TORSDOF 6
ENDMDL
