MODEL 1
REMARK VINA RESULT: -7.330848912      0.000      0.000
REMARK  4 active torsions:
REMARK  status: ('A' for Active; 'I' for Inactive)
REMARK    1  A    between atoms: N1_1  and  C1_4 
REMARK    2  A    between atoms: C2_7  and  C3_8 
REMARK       I    between atoms: C3_8  and  N3_10 
REMARK       I    between atoms: N3_10  and  C4_12 
REMARK       I    between atoms: C4_12  and  N4_13 
REMARK       I    between atoms: C4_12  and  N5_17 
REMARK    3  A    between atoms: C5_21  and  C6_22 
REMARK    4  A    between atoms: C7_27  and  N7_28 
ROOT
HETATM    1  C1  UNL     1      67.052  85.499  59.248  1.00  0.00     0.151 A 
HETATM    2  N2  UNL     1      68.031  84.686  59.658  1.00  0.00    -0.333 N 
ATOM      3  H2  UNL     1      68.415  84.007  59.001  1.00  0.00     0.168 HD
HETATM    4  C2  UNL     1      68.534  84.735  60.925  1.00  0.00     0.136 A 
HETATM    5  C5  UNL     1      68.062  85.611  61.819  1.00  0.00     0.144 A 
HETATM    6  N6  UNL     1      67.052  86.446  61.403  1.00  0.00    -0.327 N 
ATOM      7  H6  UNL     1      66.669  87.123  62.064  1.00  0.00     0.168 HD
HETATM    8  C7  UNL     1      66.552  86.402  60.153  1.00  0.00     0.218 A 
ENDROOT
BRANCH   4   9
HETATM    9  C3  UNL     1      69.584  83.765  61.167  1.00  0.00     0.273 C 
HETATM   10  O1  UNL     1      70.740  83.951  60.791  1.00  0.00    -0.266 OA
HETATM   11  N3  UNL     1      69.280  82.561  61.856  1.00  0.00    -0.306 N 
HETATM   12  C4  UNL     1      70.325  81.558  62.117  1.00  0.00     0.483 C 
ATOM     13  H3  UNL     1      68.326  82.390  62.173  1.00  0.00     0.166 HD
HETATM   14  N4  UNL     1      70.528  81.387  63.520  1.00  0.00    -0.033 N 
HETATM   15  N5  UNL     1      69.996  80.351  61.405  1.00  0.00    -0.033 N 
ATOM     16  H43 UNL     1      70.732  82.274  63.981  1.00  0.00     0.278 HD
ATOM     17  H42 UNL     1      69.659  81.159  64.001  1.00  0.00     0.278 HD
ATOM     18  H41 UNL     1      71.253  80.692  63.701  1.00  0.00     0.278 HD
ATOM     19  H53 UNL     1      69.062  80.008  61.630  1.00  0.00     0.278 HD
ATOM     20  H52 UNL     1      69.851  80.513  60.409  1.00  0.00     0.278 HD
ATOM     21  H51 UNL     1      70.720  79.656  61.587  1.00  0.00     0.278 HD
ENDBRANCH   4   9
BRANCH   5  22
HETATM   22  C6  UNL     1      68.534  85.863  63.168  1.00  0.00     0.229 C 
HETATM   23  O2  UNL     1      67.453  85.887  64.100  1.00  0.00    -0.643 OA
HETATM   24  O3  UNL     1      69.674  85.346  63.636  1.00  0.00    -0.643 OA
ENDBRANCH   5  22
BRANCH   1  25
HETATM   25  N1  UNL     1      66.619  85.383  58.037  1.00  0.00    -0.382 N 
ATOM     26  H12 UNL     1      66.519  86.168  57.394  1.00  0.00     0.157 HD
ATOM     27  H11 UNL     1      66.347  84.459  57.703  1.00  0.00     0.157 HD
ENDBRANCH   1  25
BRANCH   8  28
HETATM   28  N7  UNL     1      65.501  87.304  59.810  1.00  0.00    -0.094 N 
HETATM   29  O4  UNL     1      65.071  87.448  58.680  1.00  0.00    -0.530 OA
HETATM   30  O5  UNL     1      64.971  88.078  60.839  1.00  0.00    -0.530 OA
ENDBRANCH   8  28
TORSDOF 4
ENDMDL
MODEL 2
REMARK VINA RESULT: -6.600305007      2.835      4.117
REMARK  4 active torsions:
REMARK  status: ('A' for Active; 'I' for Inactive)
REMARK    1  A    between atoms: N1_1  and  C1_4 
REMARK    2  A    between atoms: C2_7  and  C3_8 
REMARK       I    between atoms: C3_8  and  N3_10 
REMARK       I    between atoms: N3_10  and  C4_12 
REMARK       I    between atoms: C4_12  and  N4_13 
REMARK       I    between atoms: C4_12  and  N5_17 
REMARK    3  A    between atoms: C5_21  and  C6_22 
REMARK    4  A    between atoms: C7_27  and  N7_28 
ROOT
HETATM    1  C1  UNL     1      69.946  84.027  61.331  1.00  0.00     0.151 A 
HETATM    2  N2  UNL     1      70.666  82.914  61.510  1.00  0.00    -0.333 N 
ATOM      3  H2  UNL     1      71.619  82.881  61.149  1.00  0.00     0.168 HD
HETATM    4  C2  UNL     1      70.168  81.821  62.157  1.00  0.00     0.136 A 
HETATM    5  C5  UNL     1      68.923  81.821  62.647  1.00  0.00     0.144 A 
HETATM    6  N6  UNL     1      68.178  82.962  62.464  1.00  0.00    -0.327 N 
ATOM      7  H6  UNL     1      67.224  82.991  62.825  1.00  0.00     0.168 HD
HETATM    8  C7  UNL     1      68.665  84.044  61.825  1.00  0.00     0.218 A 
ENDROOT
BRANCH   4   9
HETATM    9  C3  UNL     1      71.106  80.719  62.235  1.00  0.00     0.273 C 
HETATM   10  O1  UNL     1      72.150  80.800  62.881  1.00  0.00    -0.266 OA
HETATM   11  N3  UNL     1      70.822  79.508  61.551  1.00  0.00    -0.306 N 
HETATM   12  C4  UNL     1      71.756  78.371  61.612  1.00  0.00     0.483 C 
ATOM     13  H3  UNL     1      69.962  79.425  61.010  1.00  0.00     0.166 HD
HETATM   14  N4  UNL     1      71.145  77.244  62.239  1.00  0.00    -0.033 N 
HETATM   15  N5  UNL     1      72.268  78.121  60.291  1.00  0.00    -0.033 N 
ATOM     16  H43 UNL     1      70.776  77.479  63.160  1.00  0.00     0.278 HD
ATOM     17  H42 UNL     1      70.270  76.988  61.783  1.00  0.00     0.278 HD
ATOM     18  H41 UNL     1      71.792  76.456  62.282  1.00  0.00     0.278 HD
ATOM     19  H53 UNL     1      71.526  77.980  59.605  1.00  0.00     0.278 HD
ATOM     20  H52 UNL     1      72.691  78.950  59.872  1.00  0.00     0.278 HD
ATOM     21  H51 UNL     1      72.915  77.333  60.334  1.00  0.00     0.278 HD
ENDBRANCH   4   9
BRANCH   5  22
HETATM   22  C6  UNL     1      68.266  80.794  63.435  1.00  0.00     0.229 C 
HETATM   23  O2  UNL     1      67.203  80.181  62.706  1.00  0.00    -0.643 OA
HETATM   24  O3  UNL     1      68.940  79.976  64.249  1.00  0.00    -0.643 OA
ENDBRANCH   5  22
BRANCH   1  25
HETATM   25  N1  UNL     1      70.482  85.014  60.696  1.00  0.00    -0.382 N 
ATOM     26  H12 UNL     1      70.827  84.950  59.738  1.00  0.00     0.157 HD
ATOM     27  H11 UNL     1      70.582  85.907  61.177  1.00  0.00     0.157 HD
ENDBRANCH   1  25
BRANCH   8  28
HETATM   28  N7  UNL     1      67.819  85.183  61.677  1.00  0.00    -0.094 N 
HETATM   29  O4  UNL     1      66.984  85.297  60.797  1.00  0.00    -0.530 OA
HETATM   30  O5  UNL     1      67.996  86.225  62.582  1.00  0.00    -0.530 OA
ENDBRANCH   8  28
TORSDOF 4
ENDMDL
MODEL 3
REMARK VINA RESULT: -5.966294594      8.078     10.557
REMARK  4 active torsions:
REMARK  status: ('A' for Active; 'I' for Inactive)
REMARK    1  A    between atoms: N1_1  and  C1_4 
REMARK    2  A    between atoms: C2_7  and  C3_8 
REMARK       I    between atoms: C3_8  and  N3_10 
REMARK       I    between atoms: N3_10  and  C4_12 
REMARK       I    between atoms: C4_12  and  N4_13 
REMARK       I    between atoms: C4_12  and  N5_17 
REMARK    3  A    between atoms: C5_21  and  C6_22 
REMARK    4  A    between atoms: C7_27  and  N7_28 
ROOT
HETATM    1  C1  UNL     1      73.838  75.559  62.520  1.00  0.00     0.151 A 
HETATM    2  N2  UNL     1      74.050  76.173  61.351  1.00  0.00    -0.333 N 
ATOM      3  H2  UNL     1      74.849  75.890  60.784  1.00  0.00     0.168 HD
HETATM    4  C2  UNL     1      73.235  77.166  60.892  1.00  0.00     0.136 A 
HETATM    5  C5  UNL     1      72.176  77.569  61.602  1.00  0.00     0.144 A 
HETATM    6  N6  UNL     1      71.955  76.942  62.806  1.00  0.00    -0.327 N 
ATOM      7  H6  UNL     1      71.156  77.231  63.372  1.00  0.00     0.168 HD
HETATM    8  C7  UNL     1      72.757  75.961  63.265  1.00  0.00     0.218 A 
ENDROOT
BRANCH   4   9
HETATM    9  C3  UNL     1      73.646  77.703  59.610  1.00  0.00     0.273 C 
HETATM   10  O1  UNL     1      74.083  78.847  59.495  1.00  0.00    -0.266 OA
HETATM   11  N3  UNL     1      73.543  76.895  58.447  1.00  0.00    -0.306 N 
HETATM   12  C4  UNL     1      73.954  77.413  57.131  1.00  0.00     0.483 C 
ATOM     13  H3  UNL     1      73.181  75.945  58.524  1.00  0.00     0.166 HD
HETATM   14  N4  UNL     1      75.046  76.660  56.605  1.00  0.00    -0.033 N 
HETATM   15  N5  UNL     1      72.797  77.474  56.277  1.00  0.00    -0.033 N 
ATOM     16  H43 UNL     1      75.828  76.625  57.258  1.00  0.00     0.278 HD
ATOM     17  H42 UNL     1      74.832  75.663  56.567  1.00  0.00     0.278 HD
ATOM     18  H41 UNL     1      75.330  77.019  55.693  1.00  0.00     0.278 HD
ATOM     19  H53 UNL     1      72.314  76.579  56.210  1.00  0.00     0.278 HD
ATOM     20  H52 UNL     1      72.036  78.015  56.688  1.00  0.00     0.278 HD
ATOM     21  H51 UNL     1      73.081  77.833  55.365  1.00  0.00     0.278 HD
ENDBRANCH   4   9
BRANCH   5  22
HETATM   22  C6  UNL     1      71.159  78.536  61.232  1.00  0.00     0.229 C 
HETATM   23  O2  UNL     1      69.918  78.260  61.883  1.00  0.00    -0.643 OA
HETATM   24  O3  UNL     1      71.433  79.833  61.062  1.00  0.00    -0.643 OA
ENDBRANCH   5  22
BRANCH   1  25
HETATM   25  N1  UNL     1      74.662  74.638  62.893  1.00  0.00    -0.382 N 
ATOM     26  H12 UNL     1      75.425  74.292  62.311  1.00  0.00     0.157 HD
ATOM     27  H11 UNL     1      74.541  74.220  63.814  1.00  0.00     0.157 HD
ENDBRANCH   1  25
BRANCH   8  28
HETATM   28  N7  UNL     1      72.454  75.371  64.528  1.00  0.00    -0.094 N 
HETATM   29  O4  UNL     1      72.759  74.234  64.836  1.00  0.00    -0.530 OA
HETATM   30  O5  UNL     1      71.741  76.150  65.434  1.00  0.00    -0.530 OA
ENDBRANCH   8  28
TORSDOF 4
ENDMDL
MODEL 4
REMARK VINA RESULT: -5.837513880      8.738     10.598
REMARK  4 active torsions:
REMARK  status: ('A' for Active; 'I' for Inactive)
REMARK    1  A    between atoms: N1_1  and  C1_4 
REMARK    2  A    between atoms: C2_7  and  C3_8 
REMARK       I    between atoms: C3_8  and  N3_10 
REMARK       I    between atoms: N3_10  and  C4_12 
REMARK       I    between atoms: C4_12  and  N4_13 
REMARK       I    between atoms: C4_12  and  N5_17 
REMARK    3  A    between atoms: C5_21  and  C6_22 
REMARK    4  A    between atoms: C7_27  and  N7_28 
ROOT
HETATM    1  C1  UNL     1      75.273  76.538  58.948  1.00  0.00     0.151 A 
HETATM    2  N2  UNL     1      75.252  76.113  60.216  1.00  0.00    -0.333 N 
ATOM      3  H2  UNL     1      75.982  75.477  60.534  1.00  0.00     0.168 HD
HETATM    4  C2  UNL     1      74.287  76.503  61.098  1.00  0.00     0.136 A 
HETATM    5  C5  UNL     1      73.311  77.337  60.725  1.00  0.00     0.144 A 
HETATM    6  N6  UNL     1      73.326  77.774  59.422  1.00  0.00    -0.327 N 
ATOM      7  H6  UNL     1      72.592  78.410  59.107  1.00  0.00     0.168 HD
HETATM    8  C7  UNL     1      74.276  77.393  58.546  1.00  0.00     0.218 A 
ENDROOT
BRANCH   4   9
HETATM    9  C3  UNL     1      74.443  75.922  62.418  1.00  0.00     0.273 C 
HETATM   10  O1  UNL     1      75.363  76.249  63.166  1.00  0.00    -0.266 OA
HETATM   11  N3  UNL     1      73.515  74.947  62.868  1.00  0.00    -0.306 N 
HETATM   12  C4  UNL     1      73.647  74.341  64.203  1.00  0.00     0.483 C 
ATOM     13  H3  UNL     1      72.747  74.664  62.260  1.00  0.00     0.166 HD
HETATM   14  N4  UNL     1      72.519  74.655  65.019  1.00  0.00    -0.033 N 
HETATM   15  N5  UNL     1      73.905  72.933  64.049  1.00  0.00    -0.033 N 
ATOM     16  H43 UNL     1      72.363  75.661  65.076  1.00  0.00     0.278 HD
ATOM     17  H42 UNL     1      71.643  74.388  64.570  1.00  0.00     0.278 HD
ATOM     18  H41 UNL     1      72.611  74.235  65.945  1.00  0.00     0.278 HD
ATOM     19  H53 UNL     1      73.200  72.468  63.477  1.00  0.00     0.278 HD
ATOM     20  H52 UNL     1      74.713  72.748  63.454  1.00  0.00     0.278 HD
ATOM     21  H51 UNL     1      73.997  72.513  64.974  1.00  0.00     0.278 HD
ENDBRANCH   4   9
BRANCH   5  22
HETATM   22  C6  UNL     1      72.266  77.923  61.545  1.00  0.00     0.229 C 
HETATM   23  O2  UNL     1      71.611  76.933  62.337  1.00  0.00    -0.643 OA
HETATM   24  O3  UNL     1      72.399  79.118  62.127  1.00  0.00    -0.643 OA
ENDBRANCH   5  22
BRANCH   1  25
HETATM   25  N1  UNL     1      76.210  76.114  58.170  1.00  0.00    -0.382 N 
ATOM     26  H12 UNL     1      76.724  76.714  57.524  1.00  0.00     0.157 HD
ATOM     27  H11 UNL     1      76.448  75.123  58.186  1.00  0.00     0.157 HD
ENDBRANCH   1  25
BRANCH   8  28
HETATM   28  N7  UNL     1      74.210  77.893  57.212  1.00  0.00    -0.094 N 
HETATM   29  O4  UNL     1      75.132  78.457  56.652  1.00  0.00    -0.530 OA
HETATM   30  O5  UNL     1      73.000  77.743  56.540  1.00  0.00    -0.530 OA
ENDBRANCH   8  28
TORSDOF 4
ENDMDL
MODEL 5
REMARK VINA RESULT: -5.824235853      9.181     11.394
REMARK  4 active torsions:
REMARK  status: ('A' for Active; 'I' for Inactive)
REMARK    1  A    between atoms: N1_1  and  C1_4 
REMARK    2  A    between atoms: C2_7  and  C3_8 
REMARK       I    between atoms: C3_8  and  N3_10 
REMARK       I    between atoms: N3_10  and  C4_12 
REMARK       I    between atoms: C4_12  and  N4_13 
REMARK       I    between atoms: C4_12  and  N5_17 
REMARK    3  A    between atoms: C5_21  and  C6_22 
REMARK    4  A    between atoms: C7_27  and  N7_28 
ROOT
HETATM    1  C1  UNL     1      73.613  74.655  63.931  1.00  0.00     0.151 A 
HETATM    2  N2  UNL     1      74.265  74.808  62.774  1.00  0.00    -0.333 N 
ATOM      3  H2  UNL     1      75.058  74.200  62.572  1.00  0.00     0.168 HD
HETATM    4  C2  UNL     1      73.905  75.749  61.854  1.00  0.00     0.136 A 
HETATM    5  C5  UNL     1      72.870  76.566  62.076  1.00  0.00     0.144 A 
HETATM    6  N6  UNL     1      72.198  76.416  63.266  1.00  0.00    -0.327 N 
ATOM      7  H6  UNL     1      71.406  77.027  63.466  1.00  0.00     0.168 HD
HETATM    8  C7  UNL     1      72.549  75.488  64.178  1.00  0.00     0.218 A 
ENDROOT
BRANCH   4   9
HETATM    9  C3  UNL     1      74.746  75.753  60.673  1.00  0.00     0.273 C 
HETATM   10  O1  UNL     1      74.845  74.768  59.943  1.00  0.00    -0.266 OA
HETATM   11  N3  UNL     1      75.480  76.922  60.341  1.00  0.00    -0.306 N 
HETATM   12  C4  UNL     1      76.341  76.956  59.147  1.00  0.00     0.483 C 
ATOM     13  H3  UNL     1      75.410  77.747  60.935  1.00  0.00     0.166 HD
HETATM   14  N4  UNL     1      75.878  77.931  58.213  1.00  0.00    -0.033 N 
HETATM   15  N5  UNL     1      77.708  77.126  59.567  1.00  0.00    -0.033 N 
ATOM     16  H43 UNL     1      74.900  77.782  57.967  1.00  0.00     0.278 HD
ATOM     17  H42 UNL     1      75.792  78.852  58.641  1.00  0.00     0.278 HD
ATOM     18  H41 UNL     1      76.475  77.955  57.385  1.00  0.00     0.278 HD
ATOM     19  H53 UNL     1      77.833  77.945  60.162  1.00  0.00     0.278 HD
ATOM     20  H52 UNL     1      78.000  76.417  60.239  1.00  0.00     0.278 HD
ATOM     21  H51 UNL     1      78.304  77.150  58.740  1.00  0.00     0.278 HD
ENDBRANCH   4   9
BRANCH   5  22
HETATM   22  C6  UNL     1      72.294  77.554  61.181  1.00  0.00     0.229 C 
HETATM   23  O2  UNL     1      71.012  77.984  61.639  1.00  0.00    -0.643 OA
HETATM   24  O3  UNL     1      73.031  78.499  60.590  1.00  0.00    -0.643 OA
ENDBRANCH   5  22
BRANCH   1  25
HETATM   25  N1  UNL     1      74.022  73.752  64.756  1.00  0.00    -0.382 N 
ATOM     26  H12 UNL     1      75.003  73.607  64.997  1.00  0.00     0.157 HD
ATOM     27  H11 UNL     1      73.333  73.135  65.186  1.00  0.00     0.157 HD
ENDBRANCH   1  25
BRANCH   8  28
HETATM   28  N7  UNL     1      71.798  75.407  65.388  1.00  0.00    -0.094 N 
HETATM   29  O4  UNL     1      71.525  74.361  65.948  1.00  0.00    -0.530 OA
HETATM   30  O5  UNL     1      71.334  76.604  65.926  1.00  0.00    -0.530 OA
ENDBRANCH   8  28
TORSDOF 4
ENDMDL
