MODEL 1
REMARK VINA RESULT: -6.500719791      0.000      0.000
REMARK  5 active torsions:
REMARK  status: ('A' for Active; 'I' for Inactive)
REMARK    1  A    between atoms: C5_12  and  N4_13 
REMARK    2  A    between atoms: N4_13  and  N5_14 
REMARK    3  A    between atoms: N5_14  and  C6_16 
REMARK    4  A    between atoms: C8_23  and  N8_24 
REMARK    5  A    between atoms: N9_27  and  N10_28 
ROOT
HETATM    1  C6  UNL     1      67.680  85.578  60.218  1.00  0.00     0.731 A 
HETATM    2  N6  UNL     1      68.144  84.356  59.889  1.00  0.00    -0.126 N 
ATOM      3  H6  UNL     1      68.080  84.054  58.918  1.00  0.00     0.206 HD
HETATM    4  N7  UNL     1      68.678  83.534  60.774  1.00  0.00    -0.249 N 
ATOM      5  H7  UNL     1      69.019  82.615  60.495  1.00  0.00     0.191 HD
HETATM    6  C7  UNL     1      68.758  83.940  62.049  1.00  0.00     0.306 A 
HETATM    7  O1  UNL     1      69.269  83.157  62.908  1.00  0.00    -0.263 OA
HETATM    8  C8  UNL     1      68.301  85.171  62.439  1.00  0.00     0.208 A 
HETATM    9  N9  UNL     1      67.764  85.974  61.493  1.00  0.00    -0.069 N 
ENDROOT
BRANCH   1  10
HETATM   10  N5  UNL     1      67.105  86.468  59.273  1.00  0.00    -0.131 N 
ATOM     11  H5  UNL     1      67.601  86.743  58.426  1.00  0.00     0.201 HD
BRANCH  10  12
HETATM   12  N4  UNL     1      65.824  86.949  59.560  1.00  0.00    -0.085 NA
BRANCH  12  13
HETATM   13  C5  UNL     1      64.981  87.009  58.380  1.00  0.00     0.364 C 
HETATM   14  C2  UNL     1      64.400  88.376  58.332  1.00  0.00     0.121 C 
HETATM   15  N1  UNL     1      63.905  88.989  59.360  1.00  0.00    -0.381 N 
HETATM   16  N2  UNL     1      64.397  89.032  57.072  1.00  0.00    -0.376 N 
HETATM   17  C1  UNL     1      63.848  88.433  60.691  1.00  0.00     0.147 C 
ATOM     18  H1  UNL     1      63.531  89.927  59.220  1.00  0.00     0.160 HD
HETATM   19  C3  UNL     1      64.301  88.197  55.893  1.00  0.00     0.148 C 
ATOM     20  H2  UNL     1      64.461  90.047  57.001  1.00  0.00     0.160 HD
HETATM   21  C4  UNL     1      65.228  87.023  55.991  1.00  0.00     0.254 C 
HETATM   22  N3  UNL     1      65.896  86.891  57.242  1.00  0.00    -0.047 N 
ATOM     23  H32 UNL     1      66.427  86.022  57.285  1.00  0.00     0.279 HD
ATOM     24  H31 UNL     1      66.666  87.556  57.319  1.00  0.00     0.279 HD
ENDBRANCH  12  13
ENDBRANCH  10  12
ENDBRANCH   1  10
BRANCH   9  25
HETATM   25  N10 UNL     1      67.303  87.235  61.920  1.00  0.00    -0.322 N 
ATOM     26 2H10 UNL     1      66.890  87.837  61.207  1.00  0.00     0.178 HD
ATOM     27 1H10 UNL     1      67.374  87.540  62.890  1.00  0.00     0.178 HD
ENDBRANCH   9  25
BRANCH   8  28
HETATM   28  N8  UNL     1      68.370  85.581  63.668  1.00  0.00    -0.379 N 
ATOM     29  H82 UNL     1      69.033  85.146  64.310  1.00  0.00     0.158 HD
ATOM     30  H81 UNL     1      67.780  86.331  64.028  1.00  0.00     0.158 HD
ENDBRANCH   8  28
TORSDOF 5
ENDMDL
MODEL 2
REMARK VINA RESULT: -5.626636539      3.796      7.420
REMARK  5 active torsions:
REMARK  status: ('A' for Active; 'I' for Inactive)
REMARK    1  A    between atoms: C5_12  and  N4_13 
REMARK    2  A    between atoms: N4_13  and  N5_14 
REMARK    3  A    between atoms: N5_14  and  C6_16 
REMARK    4  A    between atoms: C8_23  and  N8_24 
REMARK    5  A    between atoms: N9_27  and  N10_28 
ROOT
HETATM    1  C6  UNL     1      64.066  88.204  55.922  1.00  0.00     0.731 A 
HETATM    2  N6  UNL     1      62.937  88.594  56.545  1.00  0.00    -0.126 N 
ATOM      3  H6  UNL     1      62.899  88.546  57.563  1.00  0.00     0.206 HD
HETATM    4  N7  UNL     1      61.878  89.036  55.892  1.00  0.00    -0.249 N 
ATOM      5  H7  UNL     1      61.037  89.324  56.392  1.00  0.00     0.191 HD
HETATM    6  C7  UNL     1      61.937  89.097  54.554  1.00  0.00     0.306 A 
HETATM    7  O1  UNL     1      60.925  89.520  53.916  1.00  0.00    -0.263 OA
HETATM    8  C8  UNL     1      63.060  88.712  53.869  1.00  0.00     0.208 A 
HETATM    9  N9  UNL     1      64.116  88.268  54.587  1.00  0.00    -0.069 N 
ENDROOT
BRANCH   1  10
HETATM   10  N5  UNL     1      65.209  87.727  56.616  1.00  0.00    -0.131 N 
ATOM     11  H5  UNL     1      66.154  87.913  56.281  1.00  0.00     0.201 HD
BRANCH  10  12
HETATM   12  N4  UNL     1      64.977  86.991  57.781  1.00  0.00    -0.085 NA
BRANCH  12  13
HETATM   13  C5  UNL     1      66.160  86.889  58.614  1.00  0.00     0.364 C 
HETATM   14  C2  UNL     1      65.710  87.018  60.024  1.00  0.00     0.121 C 
HETATM   15  N1  UNL     1      64.857  87.904  60.434  1.00  0.00    -0.381 N 
HETATM   16  N2  UNL     1      66.260  86.106  60.965  1.00  0.00    -0.376 N 
HETATM   17  C1  UNL     1      64.228  88.885  59.582  1.00  0.00     0.147 C 
ATOM     18  H1  UNL     1      64.614  87.909  61.424  1.00  0.00     0.160 HD
HETATM   19  C3  UNL     1      67.599  85.622  60.708  1.00  0.00     0.148 C 
ATOM     20  H2  UNL     1      65.733  85.806  61.784  1.00  0.00     0.160 HD
HETATM   21  C4  UNL     1      67.758  85.220  59.273  1.00  0.00     0.254 C 
HETATM   22  N3  UNL     1      66.639  85.514  58.442  1.00  0.00    -0.047 N 
ATOM     23  H32 UNL     1      66.846  85.317  57.463  1.00  0.00     0.279 HD
ATOM     24  H31 UNL     1      65.886  84.842  58.588  1.00  0.00     0.279 HD
ENDBRANCH  12  13
ENDBRANCH  10  12
ENDBRANCH   1  10
BRANCH   9  25
HETATM   25  N10 UNL     1      65.258  87.879  53.858  1.00  0.00    -0.322 N 
ATOM     26 2H10 UNL     1      65.159  87.065  53.251  1.00  0.00     0.178 HD
ATOM     27 1H10 UNL     1      66.143  88.380  53.927  1.00  0.00     0.178 HD
ENDBRANCH   9  25
BRANCH   8  28
HETATM   28  N8  UNL     1      63.135  88.763  52.575  1.00  0.00    -0.379 N 
ATOM     29  H82 UNL     1      63.912  88.310  52.094  1.00  0.00     0.158 HD
ATOM     30  H81 UNL     1      62.439  89.246  52.006  1.00  0.00     0.158 HD
ENDBRANCH   8  28
TORSDOF 5
ENDMDL
MODEL 3
REMARK VINA RESULT: -5.286160087      2.760      6.883
REMARK  5 active torsions:
REMARK  status: ('A' for Active; 'I' for Inactive)
REMARK    1  A    between atoms: C5_12  and  N4_13 
REMARK    2  A    between atoms: N4_13  and  N5_14 
REMARK    3  A    between atoms: N5_14  and  C6_16 
REMARK    4  A    between atoms: C8_23  and  N8_24 
REMARK    5  A    between atoms: N9_27  and  N10_28 
ROOT
HETATM    1  C6  UNL     1      67.590  85.239  59.780  1.00  0.00     0.731 A 
HETATM    2  N6  UNL     1      67.082  85.007  58.554  1.00  0.00    -0.126 N 
ATOM      3  H6  UNL     1      67.475  84.249  57.997  1.00  0.00     0.206 HD
HETATM    4  N7  UNL     1      66.096  85.722  58.044  1.00  0.00    -0.249 N 
ATOM      5  H7  UNL     1      65.733  85.523  57.113  1.00  0.00     0.191 HD
HETATM    6  C7  UNL     1      65.585  86.716  58.783  1.00  0.00     0.306 A 
HETATM    7  O1  UNL     1      64.637  87.410  58.303  1.00  0.00    -0.263 OA
HETATM    8  C8  UNL     1      66.064  86.996  60.036  1.00  0.00     0.208 A 
HETATM    9  N9  UNL     1      67.074  86.234  60.510  1.00  0.00    -0.069 N 
ENDROOT
BRANCH   1  10
HETATM   10  N5  UNL     1      68.651  84.476  60.337  1.00  0.00    -0.131 N 
ATOM     11  H5  UNL     1      69.539  84.360  59.849  1.00  0.00     0.201 HD
BRANCH  10  12
HETATM   12  N4  UNL     1      68.419  83.891  61.584  1.00  0.00    -0.085 NA
BRANCH  12  13
HETATM   13  C5  UNL     1      69.028  82.578  61.700  1.00  0.00     0.364 C 
HETATM   14  C2  UNL     1      70.279  82.749  62.483  1.00  0.00     0.121 C 
HETATM   15  N1  UNL     1      71.131  83.705  62.286  1.00  0.00    -0.381 N 
HETATM   16  N2  UNL     1      70.538  81.795  63.503  1.00  0.00    -0.376 N 
HETATM   17  C1  UNL     1      70.986  84.734  61.284  1.00  0.00     0.147 C 
ATOM     18  H1  UNL     1      71.960  83.733  62.879  1.00  0.00     0.160 HD
HETATM   19  C3  UNL     1      70.026  80.456  63.300  1.00  0.00     0.148 C 
ATOM     20  H2  UNL     1      71.062  82.043  64.342  1.00  0.00     0.160 HD
HETATM   21  C4  UNL     1      68.608  80.492  62.816  1.00  0.00     0.254 C 
HETATM   22  N3  UNL     1      68.107  81.795  62.529  1.00  0.00    -0.047 N 
ATOM     23  H32 UNL     1      67.180  81.747  62.106  1.00  0.00     0.279 HD
ATOM     24  H31 UNL     1      67.869  82.294  63.386  1.00  0.00     0.279 HD
ENDBRANCH  12  13
ENDBRANCH  10  12
ENDBRANCH   1  10
BRANCH   9  25
HETATM   25  N10 UNL     1      67.548  86.542  61.801  1.00  0.00    -0.322 N 
ATOM     26 2H10 UNL     1      68.515  86.291  62.007  1.00  0.00     0.178 HD
ATOM     27 1H10 UNL     1      66.961  86.993  62.503  1.00  0.00     0.178 HD
ENDBRANCH   9  25
BRANCH   8  28
HETATM   28  N8  UNL     1      65.582  87.955  60.766  1.00  0.00    -0.379 N 
ATOM     29  H82 UNL     1      65.941  88.903  60.658  1.00  0.00     0.158 HD
ATOM     30  H81 UNL     1      64.847  87.799  61.456  1.00  0.00     0.158 HD
ENDBRANCH   8  28
TORSDOF 5
ENDMDL
MODEL 4
REMARK VINA RESULT: -4.766754828     12.547     14.080
REMARK  5 active torsions:
REMARK  status: ('A' for Active; 'I' for Inactive)
REMARK    1  A    between atoms: C5_12  and  N4_13 
REMARK    2  A    between atoms: N4_13  and  N5_14 
REMARK    3  A    between atoms: N5_14  and  C6_16 
REMARK    4  A    between atoms: C8_23  and  N8_24 
REMARK    5  A    between atoms: N9_27  and  N10_28 
ROOT
HETATM    1  C6  UNL     1      73.392  76.217  62.270  1.00  0.00     0.731 A 
HETATM    2  N6  UNL     1      72.230  76.727  62.725  1.00  0.00    -0.126 N 
ATOM      3  H6  UNL     1      71.765  77.449  62.174  1.00  0.00     0.206 HD
HETATM    4  N7  UNL     1      71.671  76.332  63.853  1.00  0.00    -0.249 N 
ATOM      5  H7  UNL     1      70.791  76.738  64.171  1.00  0.00     0.191 HD
HETATM    6  C7  UNL     1      72.289  75.384  64.570  1.00  0.00     0.306 A 
HETATM    7  O1  UNL     1      71.760  74.996  65.657  1.00  0.00    -0.263 OA
HETATM    8  C8  UNL     1      73.472  74.830  64.155  1.00  0.00     0.208 A 
HETATM    9  N9  UNL     1      74.002  75.271  62.993  1.00  0.00    -0.069 N 
ENDROOT
BRANCH   1  10
HETATM   10  N5  UNL     1      74.001  76.636  61.058  1.00  0.00    -0.131 N 
ATOM     11  H5  UNL     1      73.731  76.240  60.158  1.00  0.00     0.201 HD
BRANCH  10  12
HETATM   12  N4  UNL     1      74.989  77.620  61.157  1.00  0.00    -0.085 NA
BRANCH  12  13
HETATM   13  C5  UNL     1      76.065  77.420  60.204  1.00  0.00     0.364 C 
HETATM   14  C2  UNL     1      77.271  77.044  60.986  1.00  0.00     0.121 C 
HETATM   15  N1  UNL     1      77.642  77.640  62.075  1.00  0.00    -0.381 N 
HETATM   16  N2  UNL     1      78.052  75.965  60.491  1.00  0.00    -0.376 N 
HETATM   17  C1  UNL     1      76.939  78.746  62.680  1.00  0.00     0.147 C 
ATOM     18  H1  UNL     1      78.488  77.304  62.537  1.00  0.00     0.160 HD
HETATM   19  C3  UNL     1      78.066  75.764  59.057  1.00  0.00     0.148 C 
ATOM     20  H2  UNL     1      78.579  75.359  61.118  1.00  0.00     0.160 HD
HETATM   21  C4  UNL     1      76.681  75.853  58.490  1.00  0.00     0.254 C 
HETATM   22  N3  UNL     1      75.677  76.242  59.423  1.00  0.00    -0.047 N 
ATOM     23  H32 UNL     1      74.781  76.387  58.958  1.00  0.00     0.279 HD
ATOM     24  H31 UNL     1      75.421  75.465  60.032  1.00  0.00     0.279 HD
ENDBRANCH  12  13
ENDBRANCH  10  12
ENDBRANCH   1  10
BRANCH   9  25
HETATM   25  N10 UNL     1      75.219  74.686  62.589  1.00  0.00    -0.322 N 
ATOM     26 2H10 UNL     1      75.154  73.839  62.023  1.00  0.00     0.178 HD
ATOM     27 1H10 UNL     1      76.123  75.080  62.845  1.00  0.00     0.178 HD
ENDBRANCH   9  25
BRANCH   8  28
HETATM   28  N8  UNL     1      74.085  73.912  64.836  1.00  0.00    -0.379 N 
ATOM     29  H82 UNL     1      73.584  73.398  65.561  1.00  0.00     0.158 HD
ATOM     30  H81 UNL     1      75.065  73.676  64.676  1.00  0.00     0.158 HD
ENDBRANCH   8  28
TORSDOF 5
ENDMDL
MODEL 5
REMARK VINA RESULT: -4.662415486     12.160     13.169
REMARK  5 active torsions:
REMARK  status: ('A' for Active; 'I' for Inactive)
REMARK    1  A    between atoms: C5_12  and  N4_13 
REMARK    2  A    between atoms: N4_13  and  N5_14 
REMARK    3  A    between atoms: N5_14  and  C6_16 
REMARK    4  A    between atoms: C8_23  and  N8_24 
REMARK    5  A    between atoms: N9_27  and  N10_28 
ROOT
HETATM    1  C6  UNL     1      73.967  76.266  61.708  1.00  0.00     0.731 A 
HETATM    2  N6  UNL     1      72.791  76.899  61.889  1.00  0.00    -0.126 N 
ATOM      3  H6  UNL     1      72.467  77.543  61.169  1.00  0.00     0.206 HD
HETATM    4  N7  UNL     1      72.043  76.718  62.962  1.00  0.00    -0.249 N 
ATOM      5  H7  UNL     1      71.158  77.212  63.071  1.00  0.00     0.191 HD
HETATM    6  C7  UNL     1      72.478  75.870  63.904  1.00  0.00     0.306 A 
HETATM    7  O1  UNL     1      71.766  75.689  64.939  1.00  0.00    -0.263 OA
HETATM    8  C8  UNL     1      73.666  75.201  63.771  1.00  0.00     0.208 A 
HETATM    9  N9  UNL     1      74.393  75.422  62.653  1.00  0.00    -0.069 N 
ENDROOT
BRANCH   1  10
HETATM   10  N5  UNL     1      74.779  76.454  60.557  1.00  0.00    -0.131 N 
ATOM     11  H5  UNL     1      75.383  77.270  60.457  1.00  0.00     0.201 HD
BRANCH  10  12
HETATM   12  N4  UNL     1      74.710  75.468  59.570  1.00  0.00    -0.085 NA
BRANCH  12  13
HETATM   13  C5  UNL     1      75.117  75.962  58.268  1.00  0.00     0.364 C 
HETATM   14  C2  UNL     1      73.927  76.609  57.658  1.00  0.00     0.121 C 
HETATM   15  N1  UNL     1      72.737  76.097  57.674  1.00  0.00    -0.381 N 
HETATM   16  N2  UNL     1      74.128  77.865  57.024  1.00  0.00    -0.376 N 
HETATM   17  C1  UNL     1      72.401  74.832  58.283  1.00  0.00     0.147 C 
ATOM     18  H1  UNL     1      71.986  76.623  57.226  1.00  0.00     0.160 HD
HETATM   19  C3  UNL     1      75.426  78.103  56.429  1.00  0.00     0.148 C 
ATOM     20  H2  UNL     1      73.390  78.567  56.989  1.00  0.00     0.160 HD
HETATM   21  C4  UNL     1      76.526  77.681  57.356  1.00  0.00     0.254 C 
HETATM   22  N3  UNL     1      76.089  77.024  58.542  1.00  0.00    -0.047 N 
ATOM     23  H32 UNL     1      76.881  76.669  59.078  1.00  0.00     0.279 HD
ATOM     24  H31 UNL     1      75.721  77.693  59.218  1.00  0.00     0.279 HD
ENDBRANCH  12  13
ENDBRANCH  10  12
ENDBRANCH   1  10
BRANCH   9  25
HETATM   25  N10 UNL     1      75.611  74.721  62.541  1.00  0.00    -0.322 N 
ATOM     26 2H10 UNL     1      75.973  74.579  61.598  1.00  0.00     0.178 HD
ATOM     27 1H10 UNL     1      76.113  74.369  63.356  1.00  0.00     0.178 HD
ENDBRANCH   9  25
BRANCH   8  28
HETATM   28  N8  UNL     1      74.103  74.376  64.672  1.00  0.00    -0.379 N 
ATOM     29  H82 UNL     1      73.451  73.957  65.335  1.00  0.00     0.158 HD
ATOM     30  H81 UNL     1      75.089  74.123  64.749  1.00  0.00     0.158 HD
ENDBRANCH   8  28
TORSDOF 5
ENDMDL
