MODEL 1
REMARK VINA RESULT: -9.526788748      0.000      0.000
REMARK  5 active torsions:
REMARK  status: ('A' for Active; 'I' for Inactive)
REMARK    1  A    between atoms: C3_6  and  N3_7 
REMARK    2  A    between atoms: C4_10  and  N4_11 
REMARK    3  A    between atoms: N4_11  and  C5_13 
REMARK    4  A    between atoms: C5_13  and  O1_14 
REMARK    5  A    between atoms: C7_19  and  C8_20 
ROOT
HETATM    1  N1  UNL     1      64.973  88.051  56.042  1.00  0.00    -0.188 NA
HETATM    2  C1  UNL     1      65.342  87.610  57.051  1.00  0.00     0.138 C 
HETATM    3  C2  UNL     1      65.814  87.077  58.313  1.00  0.00     0.204 A 
HETATM    4  N2  UNL     1      66.723  86.100  58.376  1.00  0.00    -0.316 N 
ATOM      5  H2  UNL     1      67.096  85.716  57.508  1.00  0.00     0.170 HD
HETATM    6  C3  UNL     1      67.172  85.593  59.574  1.00  0.00     0.147 A 
HETATM    7  C4  UNL     1      66.683  86.096  60.751  1.00  0.00     0.166 A 
HETATM    8  N9  UNL     1      65.753  87.096  60.652  1.00  0.00    -0.280 N 
ATOM      9  H9  UNL     1      65.361  87.498  61.503  1.00  0.00     0.188 HD
HETATM   10  N10 UNL     1      65.352  87.550  59.484  1.00  0.00    -0.275 N 
ATOM     11  H10 UNL     1      64.657  88.297  59.466  1.00  0.00     0.189 HD
ENDROOT
BRANCH   6  12
HETATM   12  N3  UNL     1      68.042  84.659  59.580  1.00  0.00    -0.382 N 
ATOM     13  H32 UNL     1      68.932  84.776  59.094  1.00  0.00     0.157 HD
ATOM     14  H31 UNL     1      67.847  83.790  60.075  1.00  0.00     0.157 HD
ENDBRANCH   6  12
BRANCH   7  15
HETATM   15  N4  UNL     1      67.087  85.636  62.037  1.00  0.00    -0.316 N 
ATOM     16  H4  UNL     1      66.372  85.363  62.711  1.00  0.00     0.169 HD
BRANCH  15  17
HETATM   17  C5  UNL     1      68.455  85.544  62.410  1.00  0.00     0.188 C 
HETATM   18  C6  UNL     1      69.026  84.387  62.684  1.00  0.00     0.173 A 
HETATM   19  N5  UNL     1      68.393  83.102  62.654  1.00  0.00    -0.319 N 
HETATM   20  N8  UNL     1      70.367  84.114  63.068  1.00  0.00    -0.280 N 
HETATM   21  C7  UNL     1      69.231  82.173  62.975  1.00  0.00     0.188 A 
ATOM     22  H5  UNL     1      67.415  82.942  62.413  1.00  0.00     0.169 HD
HETATM   23  N7  UNL     1      70.505  82.735  63.253  1.00  0.00    -0.280 N 
ATOM     24  H7  UNL     1      71.350  82.234  63.531  1.00  0.00     0.189 HD
ATOM     25  H8  UNL     1      71.104  84.808  63.189  1.00  0.00     0.188 HD
BRANCH  17  26
HETATM   26  O1  UNL     1      69.188  86.714  62.479  1.00  0.00    -0.343 OA
ATOM     27  H1  UNL     1      68.883  87.398  63.064  1.00  0.00     0.219 HD
ENDBRANCH  17  26
BRANCH  21  28
HETATM   28  C8  UNL     1      68.952  80.737  63.055  1.00  0.00     0.300 C 
HETATM   29  N6  UNL     1      69.998  79.789  63.155  1.00  0.00    -0.054 NA
HETATM   30  O2  UNL     1      67.734  80.366  63.033  1.00  0.00    -0.268 OA
ENDBRANCH  21  28
ENDBRANCH  15  17
ENDBRANCH   7  15
TORSDOF 5
ENDMDL
MODEL 2
REMARK VINA RESULT: -9.350105381      2.075      2.986
REMARK  5 active torsions:
REMARK  status: ('A' for Active; 'I' for Inactive)
REMARK    1  A    between atoms: C3_6  and  N3_7 
REMARK    2  A    between atoms: C4_10  and  N4_11 
REMARK    3  A    between atoms: N4_11  and  C5_13 
REMARK    4  A    between atoms: C5_13  and  O1_14 
REMARK    5  A    between atoms: C7_19  and  C8_20 
ROOT
HETATM    1  N1  UNL     1      64.947  87.496  57.531  1.00  0.00    -0.188 NA
HETATM    2  C1  UNL     1      65.659  86.932  58.253  1.00  0.00     0.138 C 
HETATM    3  C2  UNL     1      66.535  86.213  59.158  1.00  0.00     0.204 A 
HETATM    4  N2  UNL     1      66.743  86.615  60.415  1.00  0.00    -0.316 N 
ATOM      5  H2  UNL     1      66.271  87.455  60.749  1.00  0.00     0.170 HD
HETATM    6  C3  UNL     1      67.574  85.932  61.274  1.00  0.00     0.147 A 
HETATM    7  C4  UNL     1      68.216  84.801  60.844  1.00  0.00     0.166 A 
HETATM    8  N9  UNL     1      67.981  84.417  59.551  1.00  0.00    -0.280 N 
ATOM      9  H9  UNL     1      68.440  83.581  59.189  1.00  0.00     0.188 HD
HETATM   10  N10 UNL     1      67.179  85.101  58.764  1.00  0.00    -0.275 N 
ATOM     11  H10 UNL     1      67.038  84.770  57.808  1.00  0.00     0.189 HD
ENDROOT
BRANCH   6  12
HETATM   12  N3  UNL     1      67.739  86.358  62.466  1.00  0.00    -0.382 N 
ATOM     13  H32 UNL     1      67.178  87.132  62.823  1.00  0.00     0.157 HD
ATOM     14  H31 UNL     1      68.437  85.920  63.067  1.00  0.00     0.157 HD
ENDBRANCH   6  12
BRANCH   7  15
HETATM   15  N4  UNL     1      69.092  84.031  61.660  1.00  0.00    -0.316 N 
ATOM     16  H4  UNL     1      70.093  84.227  61.632  1.00  0.00     0.169 HD
BRANCH  15  17
HETATM   17  C5  UNL     1      68.618  82.997  62.511  1.00  0.00     0.188 C 
HETATM   18  C6  UNL     1      69.213  81.821  62.577  1.00  0.00     0.173 A 
HETATM   19  N5  UNL     1      70.372  81.416  61.839  1.00  0.00    -0.319 N 
HETATM   20  N8  UNL     1      68.878  80.687  63.365  1.00  0.00    -0.280 N 
HETATM   21  C7  UNL     1      70.700  80.203  62.136  1.00  0.00     0.188 A 
ATOM     22  H5  UNL     1      70.870  82.005  61.172  1.00  0.00     0.169 HD
HETATM   23  N7  UNL     1      69.800  79.670  63.097  1.00  0.00    -0.280 N 
ATOM     24  H7  UNL     1      69.821  78.737  63.507  1.00  0.00     0.189 HD
ATOM     25  H8  UNL     1      68.096  80.625  64.017  1.00  0.00     0.188 HD
BRANCH  17  26
HETATM   26  O1  UNL     1      67.500  83.255  63.283  1.00  0.00    -0.343 OA
ATOM     27  H1  UNL     1      66.984  82.515  63.581  1.00  0.00     0.219 HD
ENDBRANCH  17  26
BRANCH  21  28
HETATM   28  C8  UNL     1      71.827  79.445  61.586  1.00  0.00     0.300 C 
HETATM   29  N6  UNL     1      71.625  78.391  60.664  1.00  0.00    -0.054 NA
HETATM   30  O2  UNL     1      73.000  79.765  61.965  1.00  0.00    -0.268 OA
ENDBRANCH  21  28
ENDBRANCH  15  17
ENDBRANCH   7  15
TORSDOF 5
ENDMDL
MODEL 3
REMARK VINA RESULT: -9.342045749      2.068      3.216
REMARK  5 active torsions:
REMARK  status: ('A' for Active; 'I' for Inactive)
REMARK    1  A    between atoms: C3_6  and  N3_7 
REMARK    2  A    between atoms: C4_10  and  N4_11 
REMARK    3  A    between atoms: N4_11  and  C5_13 
REMARK    4  A    between atoms: C5_13  and  O1_14 
REMARK    5  A    between atoms: C7_19  and  C8_20 
ROOT
HETATM    1  N1  UNL     1      66.122  87.000  58.086  1.00  0.00    -0.188 NA
HETATM    2  C1  UNL     1      66.639  86.442  58.964  1.00  0.00     0.138 C 
HETATM    3  C2  UNL     1      67.270  85.732  60.058  1.00  0.00     0.204 A 
HETATM    4  N2  UNL     1      67.198  86.163  61.321  1.00  0.00    -0.316 N 
ATOM      5  H2  UNL     1      66.683  87.020  61.521  1.00  0.00     0.170 HD
HETATM    6  C3  UNL     1      67.797  85.489  62.361  1.00  0.00     0.147 A 
HETATM    7  C4  UNL     1      68.494  84.335  62.112  1.00  0.00     0.166 A 
HETATM    8  N9  UNL     1      68.549  83.922  60.808  1.00  0.00    -0.280 N 
ATOM      9  H9  UNL     1      69.058  83.069  60.578  1.00  0.00     0.188 HD
HETATM   10  N10 UNL     1      67.961  84.598  59.845  1.00  0.00    -0.275 N 
ATOM     11  H10 UNL     1      68.033  84.246  58.890  1.00  0.00     0.189 HD
ENDROOT
BRANCH   6  12
HETATM   12  N3  UNL     1      67.698  85.942  63.549  1.00  0.00    -0.382 N 
ATOM     13  H32 UNL     1      68.173  86.806  63.816  1.00  0.00     0.157 HD
ATOM     14  H31 UNL     1      67.141  85.438  64.238  1.00  0.00     0.157 HD
ENDBRANCH   6  12
BRANCH   7  15
HETATM   15  N4  UNL     1      69.145  83.571  63.121  1.00  0.00    -0.316 N 
ATOM     16  H4  UNL     1      68.580  83.132  63.849  1.00  0.00     0.169 HD
BRANCH  15  17
HETATM   17  C5  UNL     1      70.554  83.402  63.149  1.00  0.00     0.188 C 
HETATM   18  C6  UNL     1      71.127  82.270  62.787  1.00  0.00     0.173 A 
HETATM   19  N5  UNL     1      70.456  81.089  62.332  1.00  0.00    -0.319 N 
HETATM   20  N8  UNL     1      72.507  81.931  62.751  1.00  0.00    -0.280 N 
HETATM   21  C7  UNL     1      71.307  80.157  62.056  1.00  0.00     0.188 A 
ATOM     22  H5  UNL     1      69.445  80.996  62.238  1.00  0.00     0.169 HD
HETATM   23  N7  UNL     1      72.630  80.614  62.298  1.00  0.00    -0.280 N 
ATOM     24  H7  UNL     1      73.495  80.088  62.166  1.00  0.00     0.189 HD
ATOM     25  H8  UNL     1      73.278  82.545  63.013  1.00  0.00     0.188 HD
BRANCH  17  26
HETATM   26  O1  UNL     1      71.328  84.468  63.570  1.00  0.00    -0.343 OA
ATOM     27  H1  UNL     1      72.099  84.281  64.093  1.00  0.00     0.219 HD
ENDBRANCH  17  26
BRANCH  21  28
HETATM   28  C8  UNL     1      70.999  78.812  61.566  1.00  0.00     0.300 C 
HETATM   29  N6  UNL     1      71.237  77.667  62.362  1.00  0.00    -0.054 NA
HETATM   30  O2  UNL     1      70.507  78.703  60.397  1.00  0.00    -0.268 OA
ENDBRANCH  21  28
ENDBRANCH  15  17
ENDBRANCH   7  15
TORSDOF 5
ENDMDL
MODEL 4
REMARK VINA RESULT: -9.061190236      0.606      1.483
REMARK  5 active torsions:
REMARK  status: ('A' for Active; 'I' for Inactive)
REMARK    1  A    between atoms: C3_6  and  N3_7 
REMARK    2  A    between atoms: C4_10  and  N4_11 
REMARK    3  A    between atoms: N4_11  and  C5_13 
REMARK    4  A    between atoms: C5_13  and  O1_14 
REMARK    5  A    between atoms: C7_19  and  C8_20 
ROOT
HETATM    1  N1  UNL     1      65.349  87.524  55.705  1.00  0.00    -0.188 NA
HETATM    2  C1  UNL     1      65.656  87.224  56.784  1.00  0.00     0.138 C 
HETATM    3  C2  UNL     1      66.025  86.833  58.130  1.00  0.00     0.204 A 
HETATM    4  N2  UNL     1      65.625  87.520  59.204  1.00  0.00    -0.316 N 
ATOM      5  H2  UNL     1      65.041  88.345  59.073  1.00  0.00     0.170 HD
HETATM    6  C3  UNL     1      65.975  87.149  60.483  1.00  0.00     0.147 A 
HETATM    7  C4  UNL     1      66.759  86.042  60.679  1.00  0.00     0.166 A 
HETATM    8  N9  UNL     1      67.152  85.362  59.558  1.00  0.00    -0.280 N 
ATOM      9  H9  UNL     1      67.737  84.532  59.659  1.00  0.00     0.188 HD
HETATM   10  N10 UNL     1      66.793  85.752  58.354  1.00  0.00    -0.275 N 
ATOM     11  H10 UNL     1      67.113  85.209  57.552  1.00  0.00     0.189 HD
ENDROOT
BRANCH   6  12
HETATM   12  N3  UNL     1      65.566  87.838  61.476  1.00  0.00    -0.382 N 
ATOM     13  H32 UNL     1      64.842  87.475  62.096  1.00  0.00     0.157 HD
ATOM     14  H31 UNL     1      65.967  88.759  61.651  1.00  0.00     0.157 HD
ENDBRANCH   6  12
BRANCH   7  15
HETATM   15  N4  UNL     1      67.170  85.582  61.963  1.00  0.00    -0.316 N 
ATOM     16  H4  UNL     1      66.460  85.391  62.670  1.00  0.00     0.169 HD
BRANCH  15  17
HETATM   17  C5  UNL     1      68.538  85.382  62.289  1.00  0.00     0.188 C 
HETATM   18  C6  UNL     1      69.030  84.179  62.515  1.00  0.00     0.173 A 
HETATM   19  N5  UNL     1      68.305  82.944  62.472  1.00  0.00    -0.319 N 
HETATM   20  N8  UNL     1      70.358  83.799  62.849  1.00  0.00    -0.280 N 
HETATM   21  C7  UNL     1      69.082  81.948  62.741  1.00  0.00     0.188 A 
ATOM     22  H5  UNL     1      67.311  82.863  62.257  1.00  0.00     0.169 HD
HETATM   23  N7  UNL     1      70.401  82.409  62.993  1.00  0.00    -0.280 N 
ATOM     24  H7  UNL     1      71.215  81.840  63.231  1.00  0.00     0.189 HD
ATOM     25  H8  UNL     1      71.148  84.434  62.965  1.00  0.00     0.188 HD
BRANCH  17  26
HETATM   26  O1  UNL     1      69.356  86.493  62.366  1.00  0.00    -0.343 OA
ATOM     27  H1  UNL     1      69.729  86.829  61.559  1.00  0.00     0.219 HD
ENDBRANCH  17  26
BRANCH  21  28
HETATM   28  C8  UNL     1      68.701  80.534  62.792  1.00  0.00     0.300 C 
HETATM   29  N6  UNL     1      69.598  79.517  62.390  1.00  0.00    -0.054 NA
HETATM   30  O2  UNL     1      67.533  80.248  63.211  1.00  0.00    -0.268 OA
ENDBRANCH  21  28
ENDBRANCH  15  17
ENDBRANCH   7  15
TORSDOF 5
ENDMDL
MODEL 5
REMARK VINA RESULT: -8.748790747      1.265      1.269
REMARK  5 active torsions:
REMARK  status: ('A' for Active; 'I' for Inactive)
REMARK    1  A    between atoms: C3_6  and  N3_7 
REMARK    2  A    between atoms: C4_10  and  N4_11 
REMARK    3  A    between atoms: N4_11  and  C5_13 
REMARK    4  A    between atoms: C5_13  and  O1_14 
REMARK    5  A    between atoms: C7_19  and  C8_20 
ROOT
HETATM    1  N1  UNL     1      65.387  87.968  56.580  1.00  0.00    -0.188 NA
HETATM    2  C1  UNL     1      65.763  87.439  57.542  1.00  0.00     0.138 C 
HETATM    3  C2  UNL     1      66.246  86.794  58.747  1.00  0.00     0.204 A 
HETATM    4  N2  UNL     1      67.055  85.731  58.709  1.00  0.00    -0.316 N 
ATOM      5  H2  UNL     1      67.342  85.362  57.802  1.00  0.00     0.170 HD
HETATM    6  C3  UNL     1      67.515  85.118  59.852  1.00  0.00     0.147 A 
HETATM    7  C4  UNL     1      67.140  85.600  61.080  1.00  0.00     0.166 A 
HETATM    8  N9  UNL     1      66.311  86.689  61.083  1.00  0.00    -0.280 N 
ATOM      9  H9  UNL     1      66.007  87.080  61.975  1.00  0.00     0.188 HD
HETATM   10  N10 UNL     1      65.896  87.244  59.965  1.00  0.00    -0.275 N 
ATOM     11  H10 UNL     1      65.278  88.054  60.024  1.00  0.00     0.189 HD
ENDROOT
BRANCH   6  12
HETATM   12  N3  UNL     1      68.286  84.106  59.762  1.00  0.00    -0.382 N 
ATOM     13  H32 UNL     1      69.214  84.197  59.347  1.00  0.00     0.157 HD
ATOM     14  H31 UNL     1      67.973  83.199  60.107  1.00  0.00     0.157 HD
ENDBRANCH   6  12
BRANCH   7  15
HETATM   15  N4  UNL     1      67.565  85.033  62.315  1.00  0.00    -0.316 N 
ATOM     16  H4  UNL     1      66.872  84.589  62.918  1.00  0.00     0.169 HD
BRANCH  15  17
HETATM   17  C5  UNL     1      68.921  85.067  62.734  1.00  0.00     0.188 C 
HETATM   18  C6  UNL     1      69.696  84.001  62.671  1.00  0.00     0.173 A 
HETATM   19  N5  UNL     1      69.316  82.704  62.196  1.00  0.00    -0.319 N 
HETATM   20  N8  UNL     1      71.061  83.858  63.042  1.00  0.00    -0.280 N 
HETATM   21  C7  UNL     1      70.310  81.883  62.266  1.00  0.00     0.188 A 
ATOM     22  H5  UNL     1      68.388  82.463  61.849  1.00  0.00     0.169 HD
HETATM   23  N7  UNL     1      71.454  82.539  62.794  1.00  0.00    -0.280 N 
ATOM     24  H7  UNL     1      72.374  82.131  62.959  1.00  0.00     0.189 HD
ATOM     25  H8  UNL     1      71.654  84.594  63.425  1.00  0.00     0.188 HD
BRANCH  17  26
HETATM   26  O1  UNL     1      69.421  86.262  63.218  1.00  0.00    -0.343 OA
ATOM     27  H1  UNL     1      68.892  86.748  63.840  1.00  0.00     0.219 HD
ENDBRANCH  17  26
BRANCH  21  28
HETATM   28  C8  UNL     1      70.305  80.472  61.872  1.00  0.00     0.300 C 
HETATM   29  N6  UNL     1      69.319  79.578  62.351  1.00  0.00    -0.054 NA
HETATM   30  O2  UNL     1      71.220  80.072  61.081  1.00  0.00    -0.268 OA
ENDBRANCH  21  28
ENDBRANCH  15  17
ENDBRANCH   7  15
TORSDOF 5
ENDMDL
