MODEL 1
REMARK VINA RESULT: -7.214920080      0.000      0.000
REMARK  8 active torsions:
REMARK  status: ('A' for Active; 'I' for Inactive)
REMARK    1  A    between atoms: C2_2  and  C3_3 
REMARK    2  A    between atoms: C3_3  and  O1_4 
REMARK    3  A    between atoms: O1_4  and  C4_5 
REMARK    4  A    between atoms: C13_21  and  O3_22 
REMARK    5  A    between atoms: C17_29  and  O4_30 
REMARK    6  A    between atoms: O4_30  and  C18_31 
REMARK    7  A    between atoms: C18_31  and  C19_32 
REMARK    8  A    between atoms: C19_32  and  O5_33 
ROOT
HETATM    1  C4  UNL     1       1.899  15.509  60.226  1.00  0.00     0.119 A 
HETATM    2  C5  UNL     1       2.136  16.752  60.773  1.00  0.00     0.091 A 
HETATM    3 CL1  UNL     1       0.836  17.958  60.865  1.00  0.00    -0.079 Cl
HETATM    4  C6  UNL     1       3.389  17.060  61.253  1.00  0.00     0.059 A 
HETATM    5 CL2  UNL     1       3.673  18.647  61.945  1.00  0.00    -0.082 Cl
HETATM    6  C7  UNL     1       4.365  16.123  61.173  1.00  0.00     0.035 A 
HETATM    7  C8  UNL     1       4.133  14.865  60.621  1.00  0.00    -0.018 A 
HETATM    8  C9  UNL     1       2.893  14.526  60.132  1.00  0.00     0.077 A 
HETATM    9  N1  UNL     1       2.529  13.294  59.530  1.00  0.00    -0.323 N 
ATOM     10  H1  UNL     1       1.704  12.829  59.909  1.00  0.00     0.169 HD
HETATM   11  C10 UNL     1       3.187  12.634  58.457  1.00  0.00     0.244 C 
HETATM   12  O2  UNL     1       3.574  11.433  58.673  1.00  0.00    -0.271 OA
HETATM   13  C11 UNL     1       3.475  13.168  57.124  1.00  0.00     0.172 C 
HETATM   14  C12 UNL     1       3.074  12.092  56.084  1.00  0.00     0.042 C 
HETATM   15  N2  UNL     1       4.802  13.666  56.904  1.00  0.00    -0.356 N 
ATOM     16  H2  UNL     1       4.886  14.679  56.980  1.00  0.00     0.162 HD
HETATM   17  C13 UNL     1       6.002  13.012  56.605  1.00  0.00     0.168 C 
HETATM   18  C14 UNL     1       6.744  12.049  57.419  1.00  0.00     0.128 A 
HETATM   19  N3  UNL     1       6.823  10.779  56.919  1.00  0.00    -0.350 N 
ATOM     20  H3  UNL     1       6.356  10.587  56.032  1.00  0.00     0.166 HD
HETATM   21  C15 UNL     1       7.467   9.776  57.510  1.00  0.00     0.057 A 
HETATM   22  C16 UNL     1       7.524   8.414  56.927  1.00  0.00     0.072 C 
HETATM   23  C17 UNL     1       8.107   9.996  58.708  1.00  0.00     0.166 A 
HETATM   24  N4  UNL     1       8.050  11.224  59.226  1.00  0.00    -0.319 N 
ATOM     25  H4  UNL     1       8.522  11.398  60.114  1.00  0.00     0.169 HD
HETATM   26  C21 UNL     1       7.384  12.275  58.619  1.00  0.00     0.141 A 
HETATM   27  N5  UNL     1       7.440  13.534  59.293  1.00  0.00    -0.311 N 
ATOM     28  H5  UNL     1       8.381  13.894  59.456  1.00  0.00     0.170 HD
HETATM   29  C22 UNL     1       6.406  14.349  59.764  1.00  0.00     0.227 C 
HETATM   30  O6  UNL     1       6.393  15.577  59.399  1.00  0.00    -0.273 OA
HETATM   31  C23 UNL     1       5.300  13.946  60.654  1.00  0.00     0.144 C 
ENDROOT
BRANCH  23  32
HETATM   32  O4  UNL     1       8.793   9.008  59.381  1.00  0.00    -0.332 OA
BRANCH  32  33
HETATM   33  C18 UNL     1       9.997   9.124  60.060  1.00  0.00     0.203 C 
BRANCH  33  34
HETATM   34  C19 UNL     1       9.883   9.221  61.561  1.00  0.00     0.193 C 
BRANCH  34  35
HETATM   35  O5  UNL     1      10.857  10.032  62.083  1.00  0.00    -0.394 OA
HETATM   36  C20 UNL     1      11.397  10.862  61.137  1.00  0.00     0.201 C 
ENDBRANCH  34  35
ENDBRANCH  33  34
ENDBRANCH  32  33
ENDBRANCH  23  32
BRANCH  17  37
HETATM   37  O3  UNL     1       6.528  13.306  55.437  1.00  0.00    -0.344 OA
ATOM     38  H3  UNL     1       6.195  12.805  54.703  1.00  0.00     0.219 HD
ENDBRANCH  17  37
BRANCH   1  39
HETATM   39  O1  UNL     1       0.593  15.302  59.775  1.00  0.00    -0.347 OA
BRANCH  39  40
HETATM   40  C3  UNL     1       0.133  15.486  58.480  1.00  0.00     0.175 C 
BRANCH  40  41
HETATM   41  C2  UNL     1      -0.618  14.233  58.041  1.00  0.00     0.022 C 
HETATM   42  C1  UNL     1      -0.227  13.781  56.674  1.00  0.00     0.007 C 
ENDBRANCH  40  41
ENDBRANCH  39  40
ENDBRANCH   1  39
TORSDOF 8
ENDMDL
MODEL 2
REMARK VINA RESULT: -7.207127595      3.567      5.712
REMARK  8 active torsions:
REMARK  status: ('A' for Active; 'I' for Inactive)
REMARK    1  A    between atoms: C2_2  and  C3_3 
REMARK    2  A    between atoms: C3_3  and  O1_4 
REMARK    3  A    between atoms: O1_4  and  C4_5 
REMARK    4  A    between atoms: C13_21  and  O3_22 
REMARK    5  A    between atoms: C17_29  and  O4_30 
REMARK    6  A    between atoms: O4_30  and  C18_31 
REMARK    7  A    between atoms: C18_31  and  C19_32 
REMARK    8  A    between atoms: C19_32  and  O5_33 
ROOT
HETATM    1  C4  UNL     1       0.602  12.745  56.073  1.00  0.00     0.119 A 
HETATM    2  C5  UNL     1       0.078  11.500  55.802  1.00  0.00     0.091 A 
HETATM    3 CL1  UNL     1      -1.670  11.287  55.580  1.00  0.00    -0.079 Cl
HETATM    4  C6  UNL     1       0.918  10.413  55.700  1.00  0.00     0.059 A 
HETATM    5 CL2  UNL     1       0.234   8.834  55.355  1.00  0.00    -0.082 Cl
HETATM    6  C7  UNL     1       2.250  10.600  55.872  1.00  0.00     0.035 A 
HETATM    7  C8  UNL     1       2.786  11.856  56.147  1.00  0.00    -0.018 A 
HETATM    8  C9  UNL     1       1.974  12.962  56.256  1.00  0.00     0.077 A 
HETATM    9  N1  UNL     1       2.387  14.287  56.551  1.00  0.00    -0.323 N 
ATOM     10  H1  UNL     1       2.066  15.015  55.912  1.00  0.00     0.169 HD
HETATM   11  C10 UNL     1       3.197  14.714  57.637  1.00  0.00     0.244 C 
HETATM   12  O2  UNL     1       4.261  15.362  57.339  1.00  0.00    -0.271 OA
HETATM   13  C11 UNL     1       2.958  14.501  59.066  1.00  0.00     0.172 C 
HETATM   14  C12 UNL     1       3.201  15.847  59.795  1.00  0.00     0.042 C 
HETATM   15  N2  UNL     1       3.667  13.416  59.681  1.00  0.00    -0.356 N 
ATOM     16  H2  UNL     1       3.117  12.564  59.787  1.00  0.00     0.162 HD
HETATM   17  C13 UNL     1       4.977  13.317  60.162  1.00  0.00     0.168 C 
HETATM   18  C14 UNL     1       6.232  13.414  59.417  1.00  0.00     0.128 A 
HETATM   19  N3  UNL     1       7.024  14.487  59.718  1.00  0.00    -0.350 N 
ATOM     20  H3  UNL     1       6.687  15.145  60.421  1.00  0.00     0.166 HD
HETATM   21  C15 UNL     1       8.205  14.732  59.156  1.00  0.00     0.057 A 
HETATM   22  C16 UNL     1       9.028  15.911  59.516  1.00  0.00     0.072 C 
HETATM   23  C17 UNL     1       8.692  13.867  58.202  1.00  0.00     0.166 A 
HETATM   24  N4  UNL     1       7.945  12.809  57.883  1.00  0.00    -0.319 N 
ATOM     25  H4  UNL     1       8.298  12.162  57.178  1.00  0.00     0.169 HD
HETATM   26  C21 UNL     1       6.716  12.545  58.463  1.00  0.00     0.141 A 
HETATM   27  N5  UNL     1       6.054  11.355  58.028  1.00  0.00    -0.311 N 
ATOM     28  H5  UNL     1       6.585  10.493  58.160  1.00  0.00     0.170 HD
HETATM   29  C22 UNL     1       4.792  11.189  57.448  1.00  0.00     0.227 C 
HETATM   30  O6  UNL     1       3.990  10.346  57.986  1.00  0.00    -0.273 OA
HETATM   31  C23 UNL     1       4.266  11.889  56.261  1.00  0.00     0.144 C 
ENDROOT
BRANCH  23  32
HETATM   32  O4  UNL     1       9.905  14.054  57.574  1.00  0.00    -0.332 OA
BRANCH  32  33
HETATM   33  C18 UNL     1      10.185  13.943  56.221  1.00  0.00     0.203 C 
BRANCH  33  34
HETATM   34  C19 UNL     1       9.212  14.639  55.303  1.00  0.00     0.193 C 
BRANCH  34  35
HETATM   35  O5  UNL     1       8.289  13.762  54.797  1.00  0.00    -0.394 OA
HETATM   36  C20 UNL     1       7.043  14.324  54.701  1.00  0.00     0.201 C 
ENDBRANCH  34  35
ENDBRANCH  33  34
ENDBRANCH  32  33
ENDBRANCH  23  32
BRANCH  17  37
HETATM   37  O3  UNL     1       5.088  13.107  61.455  1.00  0.00    -0.344 OA
ATOM     38  H3  UNL     1       5.618  12.358  61.702  1.00  0.00     0.219 HD
ENDBRANCH  17  37
BRANCH   1  39
HETATM   39  O1  UNL     1      -0.337  13.777  56.150  1.00  0.00    -0.347 OA
BRANCH  39  40
HETATM   40  C3  UNL     1      -1.317  13.925  57.121  1.00  0.00     0.175 C 
BRANCH  40  41
HETATM   41  C2  UNL     1      -0.642  14.131  58.473  1.00  0.00     0.022 C 
HETATM   42  C1  UNL     1      -0.328  15.564  58.744  1.00  0.00     0.007 C 
ENDBRANCH  40  41
ENDBRANCH  39  40
ENDBRANCH   1  39
TORSDOF 8
ENDMDL
MODEL 3
REMARK VINA RESULT: -6.972235609      3.105      5.202
REMARK  8 active torsions:
REMARK  status: ('A' for Active; 'I' for Inactive)
REMARK    1  A    between atoms: C2_2  and  C3_3 
REMARK    2  A    between atoms: C3_3  and  O1_4 
REMARK    3  A    between atoms: O1_4  and  C4_5 
REMARK    4  A    between atoms: C13_21  and  O3_22 
REMARK    5  A    between atoms: C17_29  and  O4_30 
REMARK    6  A    between atoms: O4_30  and  C18_31 
REMARK    7  A    between atoms: C18_31  and  C19_32 
REMARK    8  A    between atoms: C19_32  and  O5_33 
ROOT
HETATM    1  C4  UNL     1       0.716  12.850  56.137  1.00  0.00     0.119 A 
HETATM    2  C5  UNL     1       0.203  11.614  55.808  1.00  0.00     0.091 A 
HETATM    3 CL1  UNL     1      -1.536  11.406  55.521  1.00  0.00    -0.079 Cl
HETATM    4  C6  UNL     1       1.048  10.532  55.700  1.00  0.00     0.059 A 
HETATM    5 CL2  UNL     1       0.379   8.964  55.281  1.00  0.00    -0.082 Cl
HETATM    6  C7  UNL     1       2.373  10.714  55.922  1.00  0.00     0.035 A 
HETATM    7  C8  UNL     1       2.897  11.961  56.256  1.00  0.00    -0.018 A 
HETATM    8  C9  UNL     1       2.080  13.062  56.373  1.00  0.00     0.077 A 
HETATM    9  N1  UNL     1       2.480  14.378  56.724  1.00  0.00    -0.323 N 
ATOM     10  H1  UNL     1       2.180  15.125  56.098  1.00  0.00     0.169 HD
HETATM   11  C10 UNL     1       3.253  14.770  57.850  1.00  0.00     0.244 C 
HETATM   12  O2  UNL     1       4.324  15.428  57.610  1.00  0.00    -0.271 OA
HETATM   13  C11 UNL     1       2.966  14.510  59.262  1.00  0.00     0.172 C 
HETATM   14  C12 UNL     1       3.182  15.832  60.042  1.00  0.00     0.042 C 
HETATM   15  N2  UNL     1       3.656  13.407  59.866  1.00  0.00    -0.356 N 
ATOM     16  H2  UNL     1       3.104  12.551  59.926  1.00  0.00     0.162 HD
HETATM   17  C13 UNL     1       4.949  13.293  60.387  1.00  0.00     0.168 C 
HETATM   18  C14 UNL     1       6.228  13.415  59.689  1.00  0.00     0.128 A 
HETATM   19  N3  UNL     1       7.008  14.479  60.051  1.00  0.00    -0.350 N 
ATOM     20  H3  UNL     1       6.645  15.113  60.763  1.00  0.00     0.166 HD
HETATM   21  C15 UNL     1       8.206  14.742  59.537  1.00  0.00     0.057 A 
HETATM   22  C16 UNL     1       9.015  15.910  59.962  1.00  0.00     0.072 C 
HETATM   23  C17 UNL     1       8.727  13.910  58.573  1.00  0.00     0.166 A 
HETATM   24  N4  UNL     1       7.993  12.861  58.195  1.00  0.00    -0.319 N 
ATOM     25  H4  UNL     1       8.370  12.238  57.481  1.00  0.00     0.169 HD
HETATM   26  C21 UNL     1       6.746  12.578  58.724  1.00  0.00     0.141 A 
HETATM   27  N5  UNL     1       6.101  11.402  58.228  1.00  0.00    -0.311 N 
ATOM     28  H5  UNL     1       6.629  10.537  58.351  1.00  0.00     0.170 HD
HETATM   29  C22 UNL     1       4.860  11.253  57.602  1.00  0.00     0.227 C 
HETATM   30  O6  UNL     1       4.041  10.393  58.084  1.00  0.00    -0.273 OA
HETATM   31  C23 UNL     1       4.372  11.992  56.421  1.00  0.00     0.144 C 
ENDROOT
BRANCH  23  32
HETATM   32  O4  UNL     1       9.960  14.117  57.993  1.00  0.00    -0.332 OA
BRANCH  32  33
HETATM   33  C18 UNL     1      10.807  13.169  57.438  1.00  0.00     0.203 C 
BRANCH  33  34
HETATM   34  C19 UNL     1      11.468  12.241  58.425  1.00  0.00     0.193 C 
BRANCH  34  35
HETATM   35  O5  UNL     1      10.681  11.151  58.690  1.00  0.00    -0.394 OA
HETATM   36  C20 UNL     1      10.537  10.935  60.035  1.00  0.00     0.201 C 
ENDBRANCH  34  35
ENDBRANCH  33  34
ENDBRANCH  32  33
ENDBRANCH  23  32
BRANCH  17  37
HETATM   37  O3  UNL     1       5.017  13.042  61.676  1.00  0.00    -0.344 OA
ATOM     38  H3  UNL     1       4.976  12.123  61.914  1.00  0.00     0.219 HD
ENDBRANCH  17  37
BRANCH   1  39
HETATM   39  O1  UNL     1      -0.228  13.878  56.215  1.00  0.00    -0.347 OA
BRANCH  39  40
HETATM   40  C3  UNL     1      -1.242  13.992  57.154  1.00  0.00     0.175 C 
BRANCH  40  41
HETATM   41  C2  UNL     1      -0.620  14.277  58.518  1.00  0.00     0.022 C 
HETATM   42  C1  UNL     1      -0.271  15.716  58.698  1.00  0.00     0.007 C 
ENDBRANCH  40  41
ENDBRANCH  39  40
ENDBRANCH   1  39
TORSDOF 8
ENDMDL
MODEL 4
REMARK VINA RESULT: -6.969823524      3.422      6.033
REMARK  8 active torsions:
REMARK  status: ('A' for Active; 'I' for Inactive)
REMARK    1  A    between atoms: C2_2  and  C3_3 
REMARK    2  A    between atoms: C3_3  and  O1_4 
REMARK    3  A    between atoms: O1_4  and  C4_5 
REMARK    4  A    between atoms: C13_21  and  O3_22 
REMARK    5  A    between atoms: C17_29  and  O4_30 
REMARK    6  A    between atoms: O4_30  and  C18_31 
REMARK    7  A    between atoms: C18_31  and  C19_32 
REMARK    8  A    between atoms: C19_32  and  O5_33 
ROOT
HETATM    1  C4  UNL     1       0.603  14.775  57.630  1.00  0.00     0.119 A 
HETATM    2  C5  UNL     1      -0.177  13.911  56.891  1.00  0.00     0.091 A 
HETATM    3 CL1  UNL     1      -1.874  13.632  57.330  1.00  0.00    -0.079 Cl
HETATM    4  C6  UNL     1       0.364  13.261  55.805  1.00  0.00     0.059 A 
HETATM    5 CL2  UNL     1      -0.643  12.164  54.877  1.00  0.00    -0.082 Cl
HETATM    6  C7  UNL     1       1.662  13.491  55.488  1.00  0.00     0.035 A 
HETATM    7  C8  UNL     1       2.456  14.362  56.230  1.00  0.00    -0.018 A 
HETATM    8  C9  UNL     1       1.947  15.026  57.322  1.00  0.00     0.077 A 
HETATM    9  N1  UNL     1       2.649  15.921  58.171  1.00  0.00    -0.323 N 
ATOM     10  H1  UNL     1       2.217  16.832  58.327  1.00  0.00     0.169 HD
HETATM   11  C10 UNL     1       3.887  15.689  58.828  1.00  0.00     0.244 C 
HETATM   12  O2  UNL     1       4.826  16.527  58.594  1.00  0.00    -0.271 OA
HETATM   13  C11 UNL     1       4.217  14.600  59.750  1.00  0.00     0.172 C 
HETATM   14  C12 UNL     1       4.946  15.215  60.971  1.00  0.00     0.042 C 
HETATM   15  N2  UNL     1       4.932  13.486  59.197  1.00  0.00    -0.356 N 
ATOM     16  H2  UNL     1       4.345  12.685  58.966  1.00  0.00     0.162 HD
HETATM   17  C13 UNL     1       6.290  13.299  58.919  1.00  0.00     0.168 C 
HETATM   18  C14 UNL     1       7.133  14.020  57.965  1.00  0.00     0.128 A 
HETATM   19  N3  UNL     1       8.139  14.772  58.506  1.00  0.00    -0.350 N 
ATOM     20  H3  UNL     1       8.226  14.791  59.522  1.00  0.00     0.166 HD
HETATM   21  C15 UNL     1       9.013  15.482  57.796  1.00  0.00     0.057 A 
HETATM   22  C16 UNL     1      10.088  16.283  58.429  1.00  0.00     0.072 C 
HETATM   23  C17 UNL     1       8.926  15.483  56.423  1.00  0.00     0.166 A 
HETATM   24  N4  UNL     1       7.956  14.760  55.860  1.00  0.00    -0.319 N 
ATOM     25  H4  UNL     1       7.884  14.754  54.843  1.00  0.00     0.169 HD
HETATM   26  C21 UNL     1       7.043  14.018  56.589  1.00  0.00     0.141 A 
HETATM   27  N5  UNL     1       6.081  13.278  55.833  1.00  0.00    -0.311 N 
ATOM     28  H5  UNL     1       6.475  12.611  55.169  1.00  0.00     0.170 HD
HETATM   29  C22 UNL     1       4.684  13.329  55.861  1.00  0.00     0.227 C 
HETATM   30  O6  UNL     1       4.046  12.230  56.028  1.00  0.00    -0.273 OA
HETATM   31  C23 UNL     1       3.840  14.531  55.718  1.00  0.00     0.144 C 
ENDROOT
BRANCH  23  32
HETATM   32  O4  UNL     1       9.793  16.194  55.620  1.00  0.00    -0.332 OA
BRANCH  32  33
HETATM   33  C18 UNL     1      10.106  15.955  54.290  1.00  0.00     0.203 C 
BRANCH  33  34
HETATM   34  C19 UNL     1       9.539  16.947  53.307  1.00  0.00     0.193 C 
BRANCH  34  35
HETATM   35  O5  UNL     1       8.220  17.212  53.572  1.00  0.00    -0.394 OA
HETATM   36  C20 UNL     1       7.969  18.558  53.640  1.00  0.00     0.201 C 
ENDBRANCH  34  35
ENDBRANCH  33  34
ENDBRANCH  32  33
ENDBRANCH  23  32
BRANCH  17  37
HETATM   37  O3  UNL     1       6.882  12.349  59.607  1.00  0.00    -0.344 OA
ATOM     38  H3  UNL     1       7.576  11.888  59.152  1.00  0.00     0.219 HD
ENDBRANCH  17  37
BRANCH   1  39
HETATM   39  O1  UNL     1      -0.047  15.383  58.706  1.00  0.00    -0.347 OA
BRANCH  39  40
HETATM   40  C3  UNL     1       0.032  14.999  60.037  1.00  0.00     0.175 C 
BRANCH  40  41
HETATM   41  C2  UNL     1       0.346  16.228  60.886  1.00  0.00     0.022 C 
HETATM   42  C1  UNL     1       1.382  15.957  61.924  1.00  0.00     0.007 C 
ENDBRANCH  40  41
ENDBRANCH  39  40
ENDBRANCH   1  39
TORSDOF 8
ENDMDL
MODEL 5
REMARK VINA RESULT: -6.793763333      3.444      5.659
REMARK  8 active torsions:
REMARK  status: ('A' for Active; 'I' for Inactive)
REMARK    1  A    between atoms: C2_2  and  C3_3 
REMARK    2  A    between atoms: C3_3  and  O1_4 
REMARK    3  A    between atoms: O1_4  and  C4_5 
REMARK    4  A    between atoms: C13_21  and  O3_22 
REMARK    5  A    between atoms: C17_29  and  O4_30 
REMARK    6  A    between atoms: O4_30  and  C18_31 
REMARK    7  A    between atoms: C18_31  and  C19_32 
REMARK    8  A    between atoms: C19_32  and  O5_33 
ROOT
HETATM    1  C4  UNL     1       0.563  14.741  57.652  1.00  0.00     0.119 A 
HETATM    2  C5  UNL     1      -0.204  13.862  56.916  1.00  0.00     0.091 A 
HETATM    3 CL1  UNL     1      -1.898  13.562  57.352  1.00  0.00    -0.079 Cl
HETATM    4  C6  UNL     1       0.349  13.214  55.834  1.00  0.00     0.059 A 
HETATM    5 CL2  UNL     1      -0.640  12.099  54.910  1.00  0.00    -0.082 Cl
HETATM    6  C7  UNL     1       1.645  13.460  55.520  1.00  0.00     0.035 A 
HETATM    7  C8  UNL     1       2.425  14.347  56.259  1.00  0.00    -0.018 A 
HETATM    8  C9  UNL     1       1.903  15.009  57.346  1.00  0.00     0.077 A 
HETATM    9  N1  UNL     1       2.591  15.918  58.192  1.00  0.00    -0.323 N 
ATOM     10  H1  UNL     1       2.146  16.824  58.342  1.00  0.00     0.169 HD
HETATM   11  C10 UNL     1       3.831  15.707  58.853  1.00  0.00     0.244 C 
HETATM   12  O2  UNL     1       4.759  16.556  58.616  1.00  0.00    -0.271 OA
HETATM   13  C11 UNL     1       4.174  14.628  59.781  1.00  0.00     0.172 C 
HETATM   14  C12 UNL     1       4.891  15.259  61.001  1.00  0.00     0.042 C 
HETATM   15  N2  UNL     1       4.905  13.520  59.237  1.00  0.00    -0.356 N 
ATOM     16  H2  UNL     1       4.329  12.710  59.008  1.00  0.00     0.162 HD
HETATM   17  C13 UNL     1       6.266  13.351  58.962  1.00  0.00     0.168 C 
HETATM   18  C14 UNL     1       7.102  14.079  58.007  1.00  0.00     0.128 A 
HETATM   19  N3  UNL     1       8.096  14.847  58.546  1.00  0.00    -0.350 N 
ATOM     20  H3  UNL     1       8.180  14.872  59.562  1.00  0.00     0.166 HD
HETATM   21  C15 UNL     1       8.961  15.565  57.834  1.00  0.00     0.057 A 
HETATM   22  C16 UNL     1      10.024  16.385  58.466  1.00  0.00     0.072 C 
HETATM   23  C17 UNL     1       8.878  15.557  56.461  1.00  0.00     0.166 A 
HETATM   24  N4  UNL     1       7.920  14.818  55.900  1.00  0.00    -0.319 N 
ATOM     25  H4  UNL     1       7.850  14.806  54.883  1.00  0.00     0.169 HD
HETATM   26  C21 UNL     1       7.015  14.067  56.631  1.00  0.00     0.141 A 
HETATM   27  N5  UNL     1       6.065  13.311  55.876  1.00  0.00    -0.311 N 
ATOM     28  H5  UNL     1       6.470  12.645  55.217  1.00  0.00     0.170 HD
HETATM   29  C22 UNL     1       4.667  13.342  55.901  1.00  0.00     0.227 C 
HETATM   30  O6  UNL     1       4.044  12.236  56.072  1.00  0.00    -0.273 OA
HETATM   31  C23 UNL     1       3.808  14.532  55.750  1.00  0.00     0.144 C 
ENDROOT
BRANCH  23  32
HETATM   32  O4  UNL     1       9.737  16.276  55.656  1.00  0.00    -0.332 OA
BRANCH  32  33
HETATM   33  C18 UNL     1      10.011  16.070  54.312  1.00  0.00     0.203 C 
BRANCH  33  34
HETATM   34  C19 UNL     1      10.730  14.784  53.992  1.00  0.00     0.193 C 
BRANCH  34  35
HETATM   35  O5  UNL     1       9.847  13.751  53.816  1.00  0.00    -0.394 OA
HETATM   36  C20 UNL     1      10.254  12.610  54.457  1.00  0.00     0.201 C 
ENDBRANCH  34  35
ENDBRANCH  33  34
ENDBRANCH  32  33
ENDBRANCH  23  32
BRANCH  17  37
HETATM   37  O3  UNL     1       6.869  12.412  59.657  1.00  0.00    -0.344 OA
ATOM     38  H3  UNL     1       7.818  12.436  59.635  1.00  0.00     0.219 HD
ENDBRANCH  17  37
BRANCH   1  39
HETATM   39  O1  UNL     1      -0.098  15.346  58.724  1.00  0.00    -0.347 OA
BRANCH  39  40
HETATM   40  C3  UNL     1      -0.002  14.982  60.059  1.00  0.00     0.175 C 
BRANCH  40  41
HETATM   41  C2  UNL     1       0.375  16.213  60.878  1.00  0.00     0.022 C 
HETATM   42  C1  UNL     1       1.357  15.902  61.958  1.00  0.00     0.007 C 
ENDBRANCH  40  41
ENDBRANCH  39  40
ENDBRANCH   1  39
TORSDOF 8
ENDMDL
