MODEL 1
REMARK VINA RESULT: -6.847968549      0.000      0.000
REMARK  10 active torsions:
REMARK  status: ('A' for Active; 'I' for Inactive)
REMARK    1  A    between atoms: C2_2  and  N1_3 
REMARK    2  A    between atoms: C3_4  and  O1_5 
REMARK    3  A    between atoms: C6_9  and  O2_10 
REMARK    4  A    between atoms: C8_14  and  N2_15 
REMARK    5  A    between atoms: C14_28  and  C15_29 
REMARK    6  A    between atoms: C15_29  and  C16_30 
REMARK    7  A    between atoms: C16_30  and  C17_31 
REMARK    8  A    between atoms: C17_31  and  C18_32 
REMARK    9  A    between atoms: C18_32  and  C19_33 
REMARK   10  A    between atoms: C19_33  and  C20_34 
ROOT
HETATM    1  N1  UNL     1       1.559  16.285  58.875  1.00  0.00    -0.308 N 
HETATM    2  C3  UNL     1       1.016  15.152  58.491  1.00  0.00     0.151 A 
HETATM    3  C4  UNL     1       2.047  14.337  58.052  1.00  0.00     0.013 A 
HETATM    4  C5  UNL     1       3.239  15.054  58.199  1.00  0.00     0.045 A 
HETATM    5  C6  UNL     1       2.896  16.286  58.721  1.00  0.00     0.154 A 
HETATM    6  C7  UNL     1       4.383  14.185  57.749  1.00  0.00     0.142 C 
HETATM    7  S1  UNL     1       5.720  15.231  57.051  1.00  0.00    -0.088 SA
HETATM    8  C8  UNL     1       7.122  14.310  57.750  1.00  0.00     0.340 C 
HETATM    9  C9  UNL     1       6.403  13.285  58.547  1.00  0.00     0.276 C 
HETATM   10  O3  UNL     1       7.027  12.226  58.909  1.00  0.00    -0.269 OA
HETATM   11  N3  UNL     1       5.070  13.593  58.833  1.00  0.00    -0.231 N 
HETATM   12 CL1  UNL     1       4.309  13.288  60.403  1.00  0.00     0.018 Cl
HETATM   13  C10 UNL     1       3.694  13.345  56.769  1.00  0.00     0.012 C 
HETATM   14  C11 UNL     1       3.532  14.097  55.492  1.00  0.00     0.020 C 
HETATM   15  C12 UNL     1       4.157  11.942  56.590  1.00  0.00     0.092 C 
HETATM   16  C13 UNL     1       2.880  11.200  56.431  1.00  0.00     0.132 C 
HETATM   17  O4  UNL     1       2.678  10.043  56.144  1.00  0.00    -0.298 OA
HETATM   18  C14 UNL     1       1.697  12.181  56.702  1.00  0.00     0.065 C 
HETATM   19  C21 UNL     1       2.405  13.072  57.527  1.00  0.00     0.047 C 
ENDROOT
BRANCH   5  20
HETATM   20  O2  UNL     1       3.768  17.333  59.033  1.00  0.00    -0.345 OA
ATOM     21  H2  UNL     1       4.626  17.485  58.655  1.00  0.00     0.219 HD
ENDBRANCH   5  20
BRANCH   8  22
HETATM   22  N2  UNL     1       7.903  15.110  58.659  1.00  0.00    -0.057 N 
ATOM     23  H23 UNL     1       7.811  16.103  58.448  1.00  0.00     0.276 HD
ATOM     24  H22 UNL     1       7.498  15.104  59.596  1.00  0.00     0.276 HD
ATOM     25  H21 UNL     1       8.882  14.827  58.681  1.00  0.00     0.276 HD
ENDBRANCH   8  22
BRANCH   2  26
HETATM   26  O1  UNL     1      -0.335  14.898  58.550  1.00  0.00    -0.345 OA
ATOM     27  H1  UNL     1      -0.700  14.040  58.730  1.00  0.00     0.219 HD
ENDBRANCH   2  26
BRANCH   1  28
HETATM   28  C2  UNL     1       0.836  17.446  59.414  1.00  0.00     0.129 C 
HETATM   29  C1  UNL     1       0.831  17.426  60.920  1.00  0.00     0.027 C 
ENDBRANCH   1  28
BRANCH  18  30
HETATM   30  C15 UNL     1       1.006  12.363  55.442  1.00  0.00     0.013 C 
BRANCH  30  31
HETATM   31  C16 UNL     1      -0.319  13.045  55.449  1.00  0.00     0.001 C 
BRANCH  31  32
HETATM   32  C17 UNL     1      -1.412  12.266  56.195  1.00  0.00     0.000 C 
BRANCH  32  33
HETATM   33  C18 UNL     1      -1.965  11.193  55.333  1.00  0.00     0.001 C 
BRANCH  33  34
HETATM   34  C19 UNL     1      -1.794   9.818  55.857  1.00  0.00     0.011 C 
BRANCH  34  35
HETATM   35  C20 UNL     1      -0.654   9.045  55.358  1.00  0.00     0.085 C 
HETATM   36 BR1  UNL     1      -0.239   9.435  53.530  1.00  0.00    -0.097 Br
ENDBRANCH  34  35
ENDBRANCH  33  34
ENDBRANCH  32  33
ENDBRANCH  31  32
ENDBRANCH  30  31
ENDBRANCH  18  30
TORSDOF 10
ENDMDL
MODEL 2
REMARK VINA RESULT: -6.795131202      1.485      1.838
REMARK  10 active torsions:
REMARK  status: ('A' for Active; 'I' for Inactive)
REMARK    1  A    between atoms: C2_2  and  N1_3 
REMARK    2  A    between atoms: C3_4  and  O1_5 
REMARK    3  A    between atoms: C6_9  and  O2_10 
REMARK    4  A    between atoms: C8_14  and  N2_15 
REMARK    5  A    between atoms: C14_28  and  C15_29 
REMARK    6  A    between atoms: C15_29  and  C16_30 
REMARK    7  A    between atoms: C16_30  and  C17_31 
REMARK    8  A    between atoms: C17_31  and  C18_32 
REMARK    9  A    between atoms: C18_32  and  C19_33 
REMARK   10  A    between atoms: C19_33  and  C20_34 
ROOT
HETATM    1  N1  UNL     1       1.784  15.427  58.965  1.00  0.00    -0.308 N 
HETATM    2  C3  UNL     1       1.669  14.134  58.768  1.00  0.00     0.151 A 
HETATM    3  C4  UNL     1       2.921  13.666  58.406  1.00  0.00     0.013 A 
HETATM    4  C5  UNL     1       3.792  14.761  58.401  1.00  0.00     0.045 A 
HETATM    5  C6  UNL     1       3.039  15.864  58.758  1.00  0.00     0.154 A 
HETATM    6  C7  UNL     1       5.170  14.281  58.032  1.00  0.00     0.142 C 
HETATM    7  S1  UNL     1       6.071  15.607  57.139  1.00  0.00    -0.088 SA
HETATM    8  C8  UNL     1       7.697  15.335  57.903  1.00  0.00     0.340 C 
HETATM    9  C9  UNL     1       7.368  14.254  58.866  1.00  0.00     0.276 C 
HETATM   10  O3  UNL     1       8.315  13.539  59.348  1.00  0.00    -0.269 OA
HETATM   11  N3  UNL     1       6.008  14.126  59.160  1.00  0.00    -0.231 N 
HETATM   12 CL1  UNL     1       5.383  13.812  60.787  1.00  0.00     0.018 Cl
HETATM   13  C10 UNL     1       4.822  13.122  57.210  1.00  0.00     0.012 C 
HETATM   14  C11 UNL     1       4.425  13.577  55.846  1.00  0.00     0.020 C 
HETATM   15  C12 UNL     1       5.743  11.951  57.211  1.00  0.00     0.092 C 
HETATM   16  C13 UNL     1       4.801  10.803  57.211  1.00  0.00     0.132 C 
HETATM   17  O4  UNL     1       5.013   9.618  57.099  1.00  0.00    -0.298 OA
HETATM   18  C14 UNL     1       3.351  11.348  57.390  1.00  0.00     0.065 C 
HETATM   19  C21 UNL     1       3.700  12.538  58.051  1.00  0.00     0.047 C 
ENDROOT
BRANCH   5  20
HETATM   20  O2  UNL     1       3.494  17.180  58.883  1.00  0.00    -0.345 OA
ATOM     21  H2  UNL     1       4.393  17.477  58.805  1.00  0.00     0.219 HD
ENDBRANCH   5  20
BRANCH   8  22
HETATM   22  N2  UNL     1       8.145  16.478  58.658  1.00  0.00    -0.057 N 
ATOM     23  H23 UNL     1       8.998  16.265  59.176  1.00  0.00     0.276 HD
ATOM     24  H22 UNL     1       8.505  17.207  58.043  1.00  0.00     0.276 HD
ATOM     25  H21 UNL     1       7.421  16.842  59.276  1.00  0.00     0.276 HD
ENDBRANCH   8  22
BRANCH   2  26
HETATM   26  O1  UNL     1       0.487  13.444  58.917  1.00  0.00    -0.345 OA
ATOM     27  H1  UNL     1       0.260  12.956  59.699  1.00  0.00     0.219 HD
ENDBRANCH   2  26
BRANCH   1  28
HETATM   28  C2  UNL     1       0.699  16.336  59.364  1.00  0.00     0.129 C 
HETATM   29  C1  UNL     1       0.576  16.403  60.864  1.00  0.00     0.027 C 
ENDBRANCH   1  28
BRANCH  18  30
HETATM   30  C15 UNL     1       2.652  11.095  56.146  1.00  0.00     0.013 C 
BRANCH  30  31
HETATM   31  C16 UNL     1       1.194  11.397  56.074  1.00  0.00     0.001 C 
BRANCH  31  32
HETATM   32  C17 UNL     1       0.862  12.653  55.257  1.00  0.00     0.000 C 
BRANCH  32  33
HETATM   33  C18 UNL     1      -0.604  12.773  55.060  1.00  0.00     0.001 C 
BRANCH  33  34
HETATM   34  C19 UNL     1      -1.364  13.191  56.260  1.00  0.00     0.011 C 
BRANCH  34  35
HETATM   35  C20 UNL     1      -2.341  12.244  56.802  1.00  0.00     0.085 C 
HETATM   36 BR1  UNL     1      -2.596  10.717  55.675  1.00  0.00    -0.097 Br
ENDBRANCH  34  35
ENDBRANCH  33  34
ENDBRANCH  32  33
ENDBRANCH  31  32
ENDBRANCH  30  31
ENDBRANCH  18  30
TORSDOF 10
ENDMDL
MODEL 3
REMARK VINA RESULT: -6.359213116      2.576      4.549
REMARK  10 active torsions:
REMARK  status: ('A' for Active; 'I' for Inactive)
REMARK    1  A    between atoms: C2_2  and  N1_3 
REMARK    2  A    between atoms: C3_4  and  O1_5 
REMARK    3  A    between atoms: C6_9  and  O2_10 
REMARK    4  A    between atoms: C8_14  and  N2_15 
REMARK    5  A    between atoms: C14_28  and  C15_29 
REMARK    6  A    between atoms: C15_29  and  C16_30 
REMARK    7  A    between atoms: C16_30  and  C17_31 
REMARK    8  A    between atoms: C17_31  and  C18_32 
REMARK    9  A    between atoms: C18_32  and  C19_33 
REMARK   10  A    between atoms: C19_33  and  C20_34 
ROOT
HETATM    1  N1  UNL     1       5.292  14.121  56.230  1.00  0.00    -0.308 N 
HETATM    2  C3  UNL     1       4.036  14.506  56.195  1.00  0.00     0.151 A 
HETATM    3  C4  UNL     1       3.663  14.789  57.499  1.00  0.00     0.013 A 
HETATM    4  C5  UNL     1       4.775  14.552  58.314  1.00  0.00     0.045 A 
HETATM    5  C6  UNL     1       5.791  14.127  57.479  1.00  0.00     0.154 A 
HETATM    6  C7  UNL     1       4.407  14.873  59.738  1.00  0.00     0.142 C 
HETATM    7  S1  UNL     1       5.353  13.793  60.882  1.00  0.00    -0.088 SA
HETATM    8  C8  UNL     1       5.691  15.047  62.154  1.00  0.00     0.340 C 
HETATM    9  C9  UNL     1       5.083  16.245  61.523  1.00  0.00     0.276 C 
HETATM   10  O3  UNL     1       4.798  17.257  62.255  1.00  0.00    -0.269 OA
HETATM   11  N3  UNL     1       4.879  16.142  60.145  1.00  0.00    -0.231 N 
HETATM   12 CL1  UNL     1       5.190  17.462  59.006  1.00  0.00     0.018 Cl
HETATM   13  C10 UNL     1       2.970  14.601  59.696  1.00  0.00     0.012 C 
HETATM   14  C11 UNL     1       2.736  13.131  59.782  1.00  0.00     0.020 C 
HETATM   15  C12 UNL     1       2.072  15.409  60.567  1.00  0.00     0.092 C 
HETATM   16  C13 UNL     1       0.899  15.645  59.687  1.00  0.00     0.132 C 
HETATM   17  O4  UNL     1      -0.172  16.151  59.930  1.00  0.00    -0.298 OA
HETATM   18  C14 UNL     1       1.233  15.113  58.259  1.00  0.00     0.065 C 
HETATM   19  C21 UNL     1       2.629  15.235  58.357  1.00  0.00     0.047 C 
ENDROOT
BRANCH   5  20
HETATM   20  O2  UNL     1       7.089  13.773  57.858  1.00  0.00    -0.345 OA
ATOM     21  H2  UNL     1       7.871  14.303  57.760  1.00  0.00     0.219 HD
ENDBRANCH   5  20
BRANCH   8  22
HETATM   22  N2  UNL     1       7.100  15.298  62.314  1.00  0.00    -0.057 N 
ATOM     23  H23 UNL     1       7.495  15.727  61.477  1.00  0.00     0.276 HD
ATOM     24  H22 UNL     1       7.267  16.054  62.978  1.00  0.00     0.276 HD
ATOM     25  H21 UNL     1       7.617  14.459  62.575  1.00  0.00     0.276 HD
ENDBRANCH   8  22
BRANCH   2  26
HETATM   26  O1  UNL     1       3.299  14.588  55.037  1.00  0.00    -0.345 OA
ATOM     27  H1  UNL     1       2.532  14.054  54.865  1.00  0.00     0.219 HD
ENDBRANCH   2  26
BRANCH   1  28
HETATM   28  C2  UNL     1       6.101  13.719  55.070  1.00  0.00     0.129 C 
HETATM   29  C1  UNL     1       7.140  14.762  54.751  1.00  0.00     0.027 C 
ENDBRANCH   1  28
BRANCH  18  30
HETATM   30  C15 UNL     1       0.370  13.973  58.025  1.00  0.00     0.013 C 
BRANCH  30  31
HETATM   31  C16 UNL     1      -0.841  14.159  57.175  1.00  0.00     0.001 C 
BRANCH  31  32
HETATM   32  C17 UNL     1      -0.971  13.124  56.049  1.00  0.00     0.000 C 
BRANCH  32  33
HETATM   33  C18 UNL     1       0.115  13.301  55.052  1.00  0.00     0.001 C 
BRANCH  33  34
HETATM   34  C19 UNL     1       0.802  12.053  54.647  1.00  0.00     0.011 C 
BRANCH  34  35
HETATM   35  C20 UNL     1       1.013  11.035  55.678  1.00  0.00     0.085 C 
HETATM   36 BR1  UNL     1       2.753  11.135  56.471  1.00  0.00    -0.097 Br
ENDBRANCH  34  35
ENDBRANCH  33  34
ENDBRANCH  32  33
ENDBRANCH  31  32
ENDBRANCH  30  31
ENDBRANCH  18  30
TORSDOF 10
ENDMDL
MODEL 4
REMARK VINA RESULT: -6.242627672      3.318      5.512
REMARK  10 active torsions:
REMARK  status: ('A' for Active; 'I' for Inactive)
REMARK    1  A    between atoms: C2_2  and  N1_3 
REMARK    2  A    between atoms: C3_4  and  O1_5 
REMARK    3  A    between atoms: C6_9  and  O2_10 
REMARK    4  A    between atoms: C8_14  and  N2_15 
REMARK    5  A    between atoms: C14_28  and  C15_29 
REMARK    6  A    between atoms: C15_29  and  C16_30 
REMARK    7  A    between atoms: C16_30  and  C17_31 
REMARK    8  A    between atoms: C17_31  and  C18_32 
REMARK    9  A    between atoms: C18_32  and  C19_33 
REMARK   10  A    between atoms: C19_33  and  C20_34 
ROOT
HETATM    1  N1  UNL     1       6.820  15.417  58.640  1.00  0.00    -0.308 N 
HETATM    2  C3  UNL     1       5.756  15.693  57.921  1.00  0.00     0.151 A 
HETATM    3  C4  UNL     1       4.656  15.534  58.748  1.00  0.00     0.013 A 
HETATM    4  C5  UNL     1       5.130  15.147  60.005  1.00  0.00     0.045 A 
HETATM    5  C6  UNL     1       6.507  15.079  59.904  1.00  0.00     0.154 A 
HETATM    6  C7  UNL     1       3.957  14.987  60.936  1.00  0.00     0.142 C 
HETATM    7  S1  UNL     1       4.323  13.688  62.179  1.00  0.00    -0.088 SA
HETATM    8  C8  UNL     1       3.561  14.514  63.607  1.00  0.00     0.340 C 
HETATM    9  C9  UNL     1       3.142  15.797  62.987  1.00  0.00     0.276 C 
HETATM   10  O3  UNL     1       2.254  16.511  63.572  1.00  0.00    -0.269 OA
HETATM   11  N3  UNL     1       3.785  16.104  61.785  1.00  0.00    -0.231 N 
HETATM   12 CL1  UNL     1       4.346  17.730  61.362  1.00  0.00     0.018 Cl
HETATM   13  C10 UNL     1       2.917  14.630  59.971  1.00  0.00     0.012 C 
HETATM   14  C11 UNL     1       3.047  13.190  59.605  1.00  0.00     0.020 C 
HETATM   15  C12 UNL     1       1.518  15.058  60.248  1.00  0.00     0.092 C 
HETATM   16  C13 UNL     1       1.033  15.459  58.903  1.00  0.00     0.132 C 
HETATM   17  O4  UNL     1      -0.073  15.780  58.534  1.00  0.00    -0.298 OA
HETATM   18  C14 UNL     1       2.233  15.417  57.908  1.00  0.00     0.065 C 
HETATM   19  C21 UNL     1       3.247  15.613  58.861  1.00  0.00     0.047 C 
ENDROOT
BRANCH   5  20
HETATM   20  O2  UNL     1       7.403  14.730  60.918  1.00  0.00    -0.345 OA
ATOM     21  H2  UNL     1       8.351  14.750  60.867  1.00  0.00     0.219 HD
ENDBRANCH   5  20
BRANCH   8  22
HETATM   22  N2  UNL     1       4.518  14.815  64.640  1.00  0.00    -0.057 N 
ATOM     23  H23 UNL     1       5.091  15.620  64.388  1.00  0.00     0.276 HD
ATOM     24  H22 UNL     1       4.059  15.194  65.468  1.00  0.00     0.276 HD
ATOM     25  H21 UNL     1       5.098  14.011  64.878  1.00  0.00     0.276 HD
ENDBRANCH   8  22
BRANCH   2  26
HETATM   26  O1  UNL     1       5.809  16.067  56.598  1.00  0.00    -0.345 OA
ATOM     27  H1  UNL     1       5.393  15.578  55.898  1.00  0.00     0.219 HD
ENDBRANCH   2  26
BRANCH   1  28
HETATM   28  C2  UNL     1       8.212  15.454  58.166  1.00  0.00     0.129 C 
HETATM   29  C1  UNL     1       8.604  14.139  57.544  1.00  0.00     0.027 C 
ENDBRANCH   1  28
BRANCH  18  30
HETATM   30  C15 UNL     1       1.968  14.340  56.977  1.00  0.00     0.013 C 
BRANCH  30  31
HETATM   31  C16 UNL     1       2.376  14.512  55.554  1.00  0.00     0.001 C 
BRANCH  31  32
HETATM   32  C17 UNL     1       3.646  13.737  55.176  1.00  0.00     0.000 C 
BRANCH  32  33
HETATM   33  C18 UNL     1       3.878  12.623  56.129  1.00  0.00     0.001 C 
BRANCH  33  34
HETATM   34  C19 UNL     1       5.279  12.472  56.584  1.00  0.00     0.011 C 
BRANCH  34  35
HETATM   35  C20 UNL     1       5.643  11.211  57.236  1.00  0.00     0.085 C 
HETATM   36 BR1  UNL     1       4.206   9.947  57.254  1.00  0.00    -0.097 Br
ENDBRANCH  34  35
ENDBRANCH  33  34
ENDBRANCH  32  33
ENDBRANCH  31  32
ENDBRANCH  30  31
ENDBRANCH  18  30
TORSDOF 10
ENDMDL
MODEL 5
REMARK VINA RESULT: -6.215834595      3.200      5.363
REMARK  10 active torsions:
REMARK  status: ('A' for Active; 'I' for Inactive)
REMARK    1  A    between atoms: C2_2  and  N1_3 
REMARK    2  A    between atoms: C3_4  and  O1_5 
REMARK    3  A    between atoms: C6_9  and  O2_10 
REMARK    4  A    between atoms: C8_14  and  N2_15 
REMARK    5  A    between atoms: C14_28  and  C15_29 
REMARK    6  A    between atoms: C15_29  and  C16_30 
REMARK    7  A    between atoms: C16_30  and  C17_31 
REMARK    8  A    between atoms: C17_31  and  C18_32 
REMARK    9  A    between atoms: C18_32  and  C19_33 
REMARK   10  A    between atoms: C19_33  and  C20_34 
ROOT
HETATM    1  N1  UNL     1       7.329  10.227  58.190  1.00  0.00    -0.308 N 
HETATM    2  C3  UNL     1       6.304  10.191  57.369  1.00  0.00     0.151 A 
HETATM    3  C4  UNL     1       5.935  11.504  57.126  1.00  0.00     0.013 A 
HETATM    4  C5  UNL     1       6.804  12.325  57.852  1.00  0.00     0.045 A 
HETATM    5  C6  UNL     1       7.675  11.484  58.519  1.00  0.00     0.154 A 
HETATM    6  C7  UNL     1       6.442  13.763  57.590  1.00  0.00     0.142 C 
HETATM    7  S1  UNL     1       6.823  14.778  59.071  1.00  0.00    -0.088 SA
HETATM    8  C8  UNL     1       7.465  16.234  58.193  1.00  0.00     0.340 C 
HETATM    9  C9  UNL     1       7.391  15.758  56.789  1.00  0.00     0.276 C 
HETATM   10  O3  UNL     1       7.421  16.616  55.838  1.00  0.00    -0.269 OA
HETATM   11  N3  UNL     1       7.297  14.372  56.644  1.00  0.00    -0.231 N 
HETATM   12 CL1  UNL     1       8.169  13.454  55.405  1.00  0.00     0.018 Cl
HETATM   13  C10 UNL     1       5.014  13.616  57.305  1.00  0.00     0.012 C 
HETATM   14  C11 UNL     1       4.260  13.475  58.584  1.00  0.00     0.020 C 
HETATM   15  C12 UNL     1       4.387  14.554  56.334  1.00  0.00     0.092 C 
HETATM   16  C13 UNL     1       3.467  13.667  55.578  1.00  0.00     0.132 C 
HETATM   17  O4  UNL     1       2.631  13.933  54.746  1.00  0.00    -0.298 OA
HETATM   18  C14 UNL     1       3.722  12.193  56.021  1.00  0.00     0.065 C 
HETATM   19  C21 UNL     1       5.053  12.371  56.436  1.00  0.00     0.047 C 
ENDROOT
BRANCH   5  20
HETATM   20  O2  UNL     1       8.717  11.866  59.369  1.00  0.00    -0.345 OA
ATOM     21  H2  UNL     1       9.540  11.409  59.494  1.00  0.00     0.219 HD
ENDBRANCH   5  20
BRANCH   8  22
HETATM   22  N2  UNL     1       8.848  16.492  58.500  1.00  0.00    -0.057 N 
ATOM     23  H23 UNL     1       9.077  17.477  58.366  1.00  0.00     0.276 HD
ATOM     24  H22 UNL     1       9.023  16.418  59.502  1.00  0.00     0.276 HD
ATOM     25  H21 UNL     1       9.482  15.893  57.972  1.00  0.00     0.276 HD
ENDBRANCH   8  22
BRANCH   2  26
HETATM   26  O1  UNL     1       5.760   9.025  56.882  1.00  0.00    -0.345 OA
ATOM     27  H1  UNL     1       5.176   8.470  57.385  1.00  0.00     0.219 HD
ENDBRANCH   2  26
BRANCH   1  28
HETATM   28  C2  UNL     1       8.046   9.057  58.721  1.00  0.00     0.129 C 
HETATM   29  C1  UNL     1       9.162   8.646  57.797  1.00  0.00     0.027 C 
ENDBRANCH   1  28
BRANCH  18  30
HETATM   30  C15 UNL     1       2.534  11.755  56.725  1.00  0.00     0.013 C 
BRANCH  30  31
HETATM   31  C16 UNL     1       1.676  10.713  56.095  1.00  0.00     0.001 C 
BRANCH  31  32
HETATM   32  C17 UNL     1       0.678  11.270  55.070  1.00  0.00     0.000 C 
BRANCH  32  33
HETATM   33  C18 UNL     1      -0.586  11.668  55.739  1.00  0.00     0.001 C 
BRANCH  33  34
HETATM   34  C19 UNL     1      -0.832  13.127  55.792  1.00  0.00     0.011 C 
BRANCH  34  35
HETATM   35  C20 UNL     1      -1.087  13.720  57.107  1.00  0.00     0.085 C 
HETATM   36 BR1  UNL     1       0.430  14.660  57.801  1.00  0.00    -0.097 Br
ENDBRANCH  34  35
ENDBRANCH  33  34
ENDBRANCH  32  33
ENDBRANCH  31  32
ENDBRANCH  30  31
ENDBRANCH  18  30
TORSDOF 10
ENDMDL
