MODEL 1
REMARK VINA RESULT: -6.532023646      0.000      0.000
REMARK  8 active torsions:
REMARK  status: ('A' for Active; 'I' for Inactive)
REMARK    1  A    between atoms: O1_2  and  C2_3 
REMARK    2  A    between atoms: C4_6  and  C5_7 
REMARK    3  A    between atoms: C5_7  and  N1_8 
REMARK    4  A    between atoms: N1_8  and  C6_10 
REMARK    5  A    between atoms: C7_13  and  O2_14 
REMARK    6  A    between atoms: C13_23  and  N5_24 
REMARK    7  A    between atoms: C15_29  and  O3_30 
REMARK    8  A    between atoms: C17_32  and  O4_33 
ROOT
HETATM    1  C6  UNL     1       2.035  15.026  57.605  1.00  0.00     0.148 A 
HETATM    2  N2  UNL     1       1.427  15.417  58.722  1.00  0.00    -0.317 N 
ATOM      3  H2  UNL     1       1.939  16.021  59.364  1.00  0.00     0.169 HD
HETATM    4  C7  UNL     1       0.168  15.056  59.050  1.00  0.00     0.189 A 
HETATM    5  C9  UNL     1      -0.503  14.235  58.154  1.00  0.00     0.166 A 
HETATM    6  N3  UNL     1      -1.770  13.750  58.183  1.00  0.00    -0.346 N 
ATOM      7  H3  UNL     1      -2.459  13.894  58.921  1.00  0.00     0.167 HD
HETATM    8  C10 UNL     1      -1.943  13.043  57.049  1.00  0.00     0.115 A 
HETATM    9  C11 UNL     1      -0.778  13.074  56.295  1.00  0.00     0.032 A 
HETATM   10  C12 UNL     1      -0.592  12.418  54.970  1.00  0.00     0.070 C 
HETATM   11  N4  UNL     1       0.065  13.812  57.019  1.00  0.00    -0.280 N 
HETATM   12  C13 UNL     1       1.353  14.206  56.732  1.00  0.00     0.152 A 
ENDROOT
BRANCH   1  13
HETATM   13  N1  UNL     1       3.395  15.410  57.320  1.00  0.00    -0.369 N 
ATOM     14  H1  UNL     1       3.629  15.916  56.466  1.00  0.00     0.161 HD
BRANCH  13  15
HETATM   15  C5  UNL     1       4.422  15.055  58.286  1.00  0.00     0.162 C 
BRANCH  15  16
HETATM   16  C4  UNL     1       5.158  13.857  57.752  1.00  0.00    -0.000 A 
HETATM   17  C3  UNL     1       6.333  14.155  57.037  1.00  0.00     0.056 A 
HETATM   18  C2  UNL     1       7.192  13.220  56.562  1.00  0.00     0.122 A 
HETATM   19 BR1  UNL     1       6.749  16.012  56.684  1.00  0.00    -0.047 Br
HETATM   20  C17 UNL     1       6.845  11.891  56.837  1.00  0.00     0.138 A 
HETATM   21  C15 UNL     1       5.715  11.536  57.533  1.00  0.00     0.122 A 
HETATM   22  C14 UNL     1       4.860  12.561  57.992  1.00  0.00     0.056 A 
HETATM   23 BR2  UNL     1       3.306  12.120  58.961  1.00  0.00    -0.047 Br
BRANCH  18  24
HETATM   24  O1  UNL     1       8.293  13.592  55.862  1.00  0.00    -0.352 OA
HETATM   25  C1  UNL     1       8.658  13.616  54.551  1.00  0.00     0.210 C 
ENDBRANCH  18  24
BRANCH  20  26
HETATM   26  O4  UNL     1       7.739  10.913  56.343  1.00  0.00    -0.351 OA
HETATM   27  C18 UNL     1       8.764  10.461  57.211  1.00  0.00     0.210 C 
ENDBRANCH  20  26
BRANCH  21  28
HETATM   28  O3  UNL     1       5.397  10.269  57.804  1.00  0.00    -0.352 OA
HETATM   29  C16 UNL     1       4.666   9.263  57.263  1.00  0.00     0.210 C 
ENDBRANCH  21  28
ENDBRANCH  15  16
ENDBRANCH  13  15
ENDBRANCH   1  13
BRANCH  12  30
HETATM   30  N5  UNL     1       1.888  13.821  55.631  1.00  0.00    -0.382 N 
ATOM     31  H52 UNL     1       1.296  13.713  54.808  1.00  0.00     0.157 HD
ATOM     32  H51 UNL     1       2.891  13.646  55.566  1.00  0.00     0.157 HD
ENDBRANCH  12  30
BRANCH   4  33
HETATM   33  O2  UNL     1      -0.452  15.467  60.214  1.00  0.00    -0.338 OA
HETATM   34  C8  UNL     1       0.426  15.963  61.243  1.00  0.00     0.211 C 
ENDBRANCH   4  33
TORSDOF 8
ENDMDL
MODEL 2
REMARK VINA RESULT: -6.455184556      1.699      4.108
REMARK  8 active torsions:
REMARK  status: ('A' for Active; 'I' for Inactive)
REMARK    1  A    between atoms: O1_2  and  C2_3 
REMARK    2  A    between atoms: C4_6  and  C5_7 
REMARK    3  A    between atoms: C5_7  and  N1_8 
REMARK    4  A    between atoms: N1_8  and  C6_10 
REMARK    5  A    between atoms: C7_13  and  O2_14 
REMARK    6  A    between atoms: C13_23  and  N5_24 
REMARK    7  A    between atoms: C15_29  and  O3_30 
REMARK    8  A    between atoms: C17_32  and  O4_33 
ROOT
HETATM    1  C6  UNL     1       2.306  14.914  57.094  1.00  0.00     0.148 A 
HETATM    2  N2  UNL     1       1.074  14.531  56.772  1.00  0.00    -0.317 N 
ATOM      3  H2  UNL     1       0.911  14.167  55.833  1.00  0.00     0.169 HD
HETATM    4  C7  UNL     1       0.026  14.600  57.621  1.00  0.00     0.189 A 
HETATM    5  C9  UNL     1       0.281  15.098  58.891  1.00  0.00     0.166 A 
HETATM    6  N3  UNL     1      -0.543  15.244  59.961  1.00  0.00    -0.346 N 
ATOM      7  H3  UNL     1      -1.538  15.028  59.995  1.00  0.00     0.167 HD
HETATM    8  C10 UNL     1       0.210  15.728  60.968  1.00  0.00     0.115 A 
HETATM    9  C11 UNL     1       1.519  15.896  60.537  1.00  0.00     0.032 A 
HETATM   10  C12 UNL     1       2.644  16.398  61.375  1.00  0.00     0.070 C 
HETATM   11  N4  UNL     1       1.501  15.499  59.264  1.00  0.00    -0.280 N 
HETATM   12  C13 UNL     1       2.535  15.411  58.358  1.00  0.00     0.152 A 
ENDROOT
BRANCH   1  13
HETATM   13  N1  UNL     1       3.382  14.854  56.137  1.00  0.00    -0.369 N 
ATOM     14  H1  UNL     1       4.008  15.648  56.000  1.00  0.00     0.161 HD
BRANCH  13  15
HETATM   15  C5  UNL     1       3.550  13.628  55.373  1.00  0.00     0.162 C 
BRANCH  15  16
HETATM   16  C4  UNL     1       4.521  12.753  56.119  1.00  0.00    -0.000 A 
HETATM   17  C3  UNL     1       3.985  11.536  56.580  1.00  0.00     0.056 A 
HETATM   18  C2  UNL     1       4.715  10.565  57.184  1.00  0.00     0.122 A 
HETATM   19 BR1  UNL     1       2.088  11.224  56.363  1.00  0.00    -0.047 Br
HETATM   20  C17 UNL     1       6.082  10.840  57.323  1.00  0.00     0.138 A 
HETATM   21  C15 UNL     1       6.664  12.006  56.890  1.00  0.00     0.122 A 
HETATM   22  C14 UNL     1       5.844  12.978  56.277  1.00  0.00     0.056 A 
HETATM   23 BR2  UNL     1       6.602  14.588  55.659  1.00  0.00    -0.047 Br
BRANCH  18  24
HETATM   24  O1  UNL     1       4.117   9.428  57.618  1.00  0.00    -0.352 OA
HETATM   25  C1  UNL     1       3.810   8.215  57.080  1.00  0.00     0.210 C 
ENDBRANCH  18  24
BRANCH  20  26
HETATM   26  O4  UNL     1       6.845   9.829  57.952  1.00  0.00    -0.351 OA
HETATM   27  C18 UNL     1       7.471   8.865  57.122  1.00  0.00     0.210 C 
ENDBRANCH  20  26
BRANCH  21  28
HETATM   28  O3  UNL     1       7.968  12.256  57.013  1.00  0.00    -0.352 OA
HETATM   29  C16 UNL     1       8.836  12.704  57.955  1.00  0.00     0.210 C 
ENDBRANCH  21  28
ENDBRANCH  15  16
ENDBRANCH  13  15
ENDBRANCH   1  13
BRANCH  12  30
HETATM   30  N5  UNL     1       3.711  15.771  58.725  1.00  0.00    -0.382 N 
ATOM     31  H52 UNL     1       4.507  15.529  58.134  1.00  0.00     0.157 HD
ATOM     32  H51 UNL     1       3.855  16.311  59.579  1.00  0.00     0.157 HD
ENDBRANCH  12  30
BRANCH   4  33
HETATM   33  O2  UNL     1      -1.251  14.201  57.273  1.00  0.00    -0.338 OA
HETATM   34  C8  UNL     1      -1.337  12.961  56.545  1.00  0.00     0.211 C 
ENDBRANCH   4  33
TORSDOF 8
ENDMDL
MODEL 3
REMARK VINA RESULT: -6.367806579      0.321      2.757
REMARK  8 active torsions:
REMARK  status: ('A' for Active; 'I' for Inactive)
REMARK    1  A    between atoms: O1_2  and  C2_3 
REMARK    2  A    between atoms: C4_6  and  C5_7 
REMARK    3  A    between atoms: C5_7  and  N1_8 
REMARK    4  A    between atoms: N1_8  and  C6_10 
REMARK    5  A    between atoms: C7_13  and  O2_14 
REMARK    6  A    between atoms: C13_23  and  N5_24 
REMARK    7  A    between atoms: C15_29  and  O3_30 
REMARK    8  A    between atoms: C17_32  and  O4_33 
ROOT
HETATM    1  C6  UNL     1       2.127  14.914  57.374  1.00  0.00     0.148 A 
HETATM    2  N2  UNL     1       1.430  15.359  58.415  1.00  0.00    -0.317 N 
ATOM      3  H2  UNL     1       1.884  16.005  59.060  1.00  0.00     0.169 HD
HETATM    4  C7  UNL     1       0.152  15.000  58.665  1.00  0.00     0.189 A 
HETATM    5  C9  UNL     1      -0.439  14.121  57.768  1.00  0.00     0.166 A 
HETATM    6  N3  UNL     1      -1.701  13.623  57.726  1.00  0.00    -0.346 N 
ATOM      7  H3  UNL     1      -2.447  13.799  58.398  1.00  0.00     0.167 HD
HETATM    8  C10 UNL     1      -1.778  12.850  56.624  1.00  0.00     0.115 A 
HETATM    9  C11 UNL     1      -0.557  12.854  55.963  1.00  0.00     0.032 A 
HETATM   10  C12 UNL     1      -0.263  12.127  54.696  1.00  0.00     0.070 C 
HETATM   11  N4  UNL     1       0.220  13.643  56.707  1.00  0.00    -0.280 N 
HETATM   12  C13 UNL     1       1.523  14.037  56.499  1.00  0.00     0.152 A 
ENDROOT
BRANCH   1  13
HETATM   13  N1  UNL     1       3.501  15.299  57.174  1.00  0.00    -0.369 N 
ATOM     14  H1  UNL     1       3.802  15.737  56.303  1.00  0.00     0.161 HD
BRANCH  13  15
HETATM   15  C5  UNL     1       4.445  15.045  58.250  1.00  0.00     0.162 C 
BRANCH  15  16
HETATM   16  C4  UNL     1       5.451  14.044  57.750  1.00  0.00    -0.000 A 
HETATM   17  C3  UNL     1       5.126  12.700  58.011  1.00  0.00     0.056 A 
HETATM   18  C2  UNL     1       5.844  11.642  57.559  1.00  0.00     0.122 A 
HETATM   19 BR1  UNL     1       3.570  12.323  59.098  1.00  0.00    -0.047 Br
HETATM   20  C17 UNL     1       6.964  11.966  56.782  1.00  0.00     0.138 A 
HETATM   21  C15 UNL     1       7.331  13.257  56.489  1.00  0.00     0.122 A 
HETATM   22  C14 UNL     1       6.542  14.310  56.999  1.00  0.00     0.056 A 
HETATM   23 BR2  UNL     1       7.002  16.096  56.614  1.00  0.00    -0.047 Br
BRANCH  18  24
HETATM   24  O1  UNL     1       5.473  10.376  57.873  1.00  0.00    -0.352 OA
HETATM   25  C1  UNL     1       4.753   9.389  57.273  1.00  0.00     0.210 C 
ENDBRANCH  18  24
BRANCH  20  26
HETATM   26  O4  UNL     1       7.716  10.866  56.308  1.00  0.00    -0.351 OA
HETATM   27  C18 UNL     1       8.805  10.423  57.100  1.00  0.00     0.210 C 
ENDBRANCH  20  26
BRANCH  21  28
HETATM   28  O3  UNL     1       8.391  13.558  55.737  1.00  0.00    -0.352 OA
HETATM   29  C16 UNL     1       8.740  13.570  54.427  1.00  0.00     0.210 C 
ENDBRANCH  21  28
ENDBRANCH  15  16
ENDBRANCH  13  15
ENDBRANCH   1  13
BRANCH  12  30
HETATM   30  N5  UNL     1       2.146  13.598  55.467  1.00  0.00    -0.382 N 
ATOM     31  H52 UNL     1       2.854  14.189  55.031  1.00  0.00     0.157 HD
ATOM     32  H51 UNL     1       1.959  12.666  55.096  1.00  0.00     0.157 HD
ENDBRANCH  12  30
BRANCH   4  33
HETATM   33  O2  UNL     1      -0.561  15.468  59.752  1.00  0.00    -0.338 OA
HETATM   34  C8  UNL     1       0.214  15.723  60.940  1.00  0.00     0.211 C 
ENDBRANCH   4  33
TORSDOF 8
ENDMDL
MODEL 4
REMARK VINA RESULT: -6.324284940      1.773      2.179
REMARK  8 active torsions:
REMARK  status: ('A' for Active; 'I' for Inactive)
REMARK    1  A    between atoms: O1_2  and  C2_3 
REMARK    2  A    between atoms: C4_6  and  C5_7 
REMARK    3  A    between atoms: C5_7  and  N1_8 
REMARK    4  A    between atoms: N1_8  and  C6_10 
REMARK    5  A    between atoms: C7_13  and  O2_14 
REMARK    6  A    between atoms: C13_23  and  N5_24 
REMARK    7  A    between atoms: C15_29  and  O3_30 
REMARK    8  A    between atoms: C17_32  and  O4_33 
ROOT
HETATM    1  C6  UNL     1       1.818  12.699  56.326  1.00  0.00     0.148 A 
HETATM    2  N2  UNL     1       1.413  13.838  56.879  1.00  0.00    -0.317 N 
ATOM      3  H2  UNL     1       2.116  14.544  57.101  1.00  0.00     0.169 HD
HETATM    4  C7  UNL     1       0.121  14.112  57.161  1.00  0.00     0.189 A 
HETATM    5  C9  UNL     1      -0.810  13.133  56.843  1.00  0.00     0.166 A 
HETATM    6  N3  UNL     1      -2.162  13.133  56.963  1.00  0.00    -0.346 N 
ATOM      7  H3  UNL     1      -2.738  13.878  57.353  1.00  0.00     0.167 HD
HETATM    8  C10 UNL     1      -2.597  11.958  56.466  1.00  0.00     0.115 A 
HETATM    9  C11 UNL     1      -1.516  11.204  56.032  1.00  0.00     0.032 A 
HETATM   10  C12 UNL     1      -1.603   9.853  55.409  1.00  0.00     0.070 C 
HETATM   11  N4  UNL     1      -0.454  11.969  56.289  1.00  0.00    -0.280 N 
HETATM   12  C13 UNL     1       0.878  11.738  56.024  1.00  0.00     0.152 A 
ENDROOT
BRANCH   1  13
HETATM   13  N1  UNL     1       3.215  12.442  56.078  1.00  0.00    -0.369 N 
ATOM     14  H1  UNL     1       3.527  12.042  55.194  1.00  0.00     0.161 HD
BRANCH  13  15
HETATM   15  C5  UNL     1       4.166  12.770  57.128  1.00  0.00     0.162 C 
BRANCH  15  16
HETATM   16  C4  UNL     1       5.431  12.002  56.857  1.00  0.00    -0.000 A 
HETATM   17  C3  UNL     1       6.513  12.784  56.410  1.00  0.00     0.056 A 
HETATM   18  C2  UNL     1       7.764  12.304  56.206  1.00  0.00     0.122 A 
HETATM   19 BR1  UNL     1       6.203  14.658  56.040  1.00  0.00    -0.047 Br
HETATM   20  C17 UNL     1       7.937  10.941  56.482  1.00  0.00     0.138 A 
HETATM   21  C15 UNL     1       6.923  10.127  56.924  1.00  0.00     0.122 A 
HETATM   22  C14 UNL     1       5.642  10.691  57.107  1.00  0.00     0.056 A 
HETATM   23 BR2  UNL     1       4.225   9.615  57.723  1.00  0.00    -0.047 Br
BRANCH  18  24
HETATM   24  O1  UNL     1       8.747  13.122  55.754  1.00  0.00    -0.352 OA
HETATM   25  C1  UNL     1       9.315  13.396  54.547  1.00  0.00     0.210 C 
ENDBRANCH  18  24
BRANCH  20  26
HETATM   26  O4  UNL     1       9.241  10.438  56.271  1.00  0.00    -0.351 OA
HETATM   27  C18 UNL     1      10.134  10.439  57.373  1.00  0.00     0.210 C 
ENDBRANCH  20  26
BRANCH  21  28
HETATM   28  O3  UNL     1       7.097   8.834  57.198  1.00  0.00    -0.352 OA
HETATM   29  C16 UNL     1       7.485   7.700  56.563  1.00  0.00     0.210 C 
ENDBRANCH  21  28
ENDBRANCH  15  16
ENDBRANCH  13  15
ENDBRANCH   1  13
BRANCH  12  30
HETATM   30  N5  UNL     1       1.216  10.632  55.469  1.00  0.00    -0.382 N 
ATOM     31  H52 UNL     1       1.841  10.001  55.970  1.00  0.00     0.157 HD
ATOM     32  H51 UNL     1       0.852  10.369  54.552  1.00  0.00     0.157 HD
ENDBRANCH  12  30
BRANCH   4  33
HETATM   33  O2  UNL     1      -0.287  15.299  57.738  1.00  0.00    -0.338 OA
HETATM   34  C8  UNL     1       0.092  15.482  59.116  1.00  0.00     0.211 C 
ENDBRANCH   4  33
TORSDOF 8
ENDMDL
MODEL 5
REMARK VINA RESULT: -6.310791725      1.728      3.201
REMARK  8 active torsions:
REMARK  status: ('A' for Active; 'I' for Inactive)
REMARK    1  A    between atoms: O1_2  and  C2_3 
REMARK    2  A    between atoms: C4_6  and  C5_7 
REMARK    3  A    between atoms: C5_7  and  N1_8 
REMARK    4  A    between atoms: N1_8  and  C6_10 
REMARK    5  A    between atoms: C7_13  and  O2_14 
REMARK    6  A    between atoms: C13_23  and  N5_24 
REMARK    7  A    between atoms: C15_29  and  O3_30 
REMARK    8  A    between atoms: C17_32  and  O4_33 
ROOT
HETATM    1  C6  UNL     1       2.649  15.023  57.472  1.00  0.00     0.148 A 
HETATM    2  N2  UNL     1       1.435  14.756  56.999  1.00  0.00    -0.317 N 
ATOM      3  H2  UNL     1       1.350  14.467  56.025  1.00  0.00     0.169 HD
HETATM    4  C7  UNL     1       0.310  14.845  57.741  1.00  0.00     0.189 A 
HETATM    5  C9  UNL     1       0.461  15.237  59.063  1.00  0.00     0.166 A 
HETATM    6  N3  UNL     1      -0.460  15.372  60.052  1.00  0.00    -0.346 N 
ATOM      7  H3  UNL     1      -1.466  15.229  59.969  1.00  0.00     0.167 HD
HETATM    8  C10 UNL     1       0.212  15.732  61.163  1.00  0.00     0.115 A 
HETATM    9  C11 UNL     1       1.567  15.831  60.881  1.00  0.00     0.032 A 
HETATM   10  C12 UNL     1       2.627  16.190  61.864  1.00  0.00     0.070 C 
HETATM   11  N4  UNL     1       1.659  15.521  59.586  1.00  0.00    -0.280 N 
HETATM   12  C13 UNL     1       2.775  15.417  58.787  1.00  0.00     0.152 A 
ENDROOT
BRANCH   1  13
HETATM   13  N1  UNL     1       3.815  14.948  56.628  1.00  0.00    -0.369 N 
ATOM     14  H1  UNL     1       4.601  15.584  56.761  1.00  0.00     0.161 HD
BRANCH  13  15
HETATM   15  C5  UNL     1       3.836  13.938  55.582  1.00  0.00     0.162 C 
BRANCH  15  16
HETATM   16  C4  UNL     1       4.554  12.732  56.125  1.00  0.00    -0.000 A 
HETATM   17  C3  UNL     1       5.944  12.889  56.274  1.00  0.00     0.056 A 
HETATM   18  C2  UNL     1       6.758  11.962  56.838  1.00  0.00     0.122 A 
HETATM   19 BR1  UNL     1       6.763  14.515  55.617  1.00  0.00    -0.047 Br
HETATM   20  C17 UNL     1       6.120  10.800  57.292  1.00  0.00     0.138 A 
HETATM   21  C15 UNL     1       4.768  10.589  57.179  1.00  0.00     0.122 A 
HETATM   22  C14 UNL     1       3.981  11.593  56.574  1.00  0.00     0.056 A 
HETATM   23 BR2  UNL     1       2.120  11.352  56.409  1.00  0.00    -0.047 Br
BRANCH  18  24
HETATM   24  O1  UNL     1       8.093  12.183  56.924  1.00  0.00    -0.352 OA
HETATM   25  C1  UNL     1       8.959  12.587  57.894  1.00  0.00     0.210 C 
ENDBRANCH  18  24
BRANCH  20  26
HETATM   26  O4  UNL     1       6.966   9.832  57.881  1.00  0.00    -0.351 OA
HETATM   27  C18 UNL     1       7.483   8.812  57.042  1.00  0.00     0.210 C 
ENDBRANCH  20  26
BRANCH  21  28
HETATM   28  O3  UNL     1       4.165   9.487  57.626  1.00  0.00    -0.352 OA
HETATM   29  C16 UNL     1       3.792   8.269  57.160  1.00  0.00     0.210 C 
ENDBRANCH  21  28
ENDBRANCH  15  16
ENDBRANCH  13  15
ENDBRANCH   1  13
BRANCH  12  30
HETATM   30  N5  UNL     1       3.927  15.664  59.296  1.00  0.00    -0.382 N 
ATOM     31  H52 UNL     1       4.737  15.147  58.954  1.00  0.00     0.157 HD
ATOM     32  H51 UNL     1       4.043  16.379  60.015  1.00  0.00     0.157 HD
ENDBRANCH  12  30
BRANCH   4  33
HETATM   33  O2  UNL     1      -0.946  14.566  57.237  1.00  0.00    -0.338 OA
HETATM   34  C8  UNL     1      -1.162  13.201  56.829  1.00  0.00     0.211 C 
ENDBRANCH   4  33
TORSDOF 8
ENDMDL
