MODEL 1
REMARK VINA RESULT: -7.292368130      0.000      0.000
REMARK  10 active torsions:
REMARK  status: ('A' for Active; 'I' for Inactive)
REMARK    1  A    between atoms: N1_1  and  C1_4 
REMARK    2  A    between atoms: N3_8  and  O1_9 
REMARK    3  A    between atoms: C5_15  and  N6_16 
REMARK    4  A    between atoms: N6_16  and  N7_18 
REMARK    5  A    between atoms: C6_22  and  C7_23 
REMARK    6  A    between atoms: N9_24  and  C8_26 
REMARK    7  A    between atoms: C8_26  and  C9_27 
REMARK    8  A    between atoms: C9_27  and  C10_28 
REMARK    9  A    between atoms: C10_28  and  N10_29 
REMARK   10  A    between atoms: N10_29  and  S1_31 
ROOT
HETATM    1  C1  UNL     1      25.067 -16.229  41.696  1.00  0.00     0.141 A 
HETATM    2  N2  UNL     1      24.029 -15.689  42.318  1.00  0.00    -0.172 N 
ATOM      3  H2  UNL     1      23.119 -15.651  41.859  1.00  0.00     0.186 HD
HETATM    4  C2  UNL     1      24.180 -15.201  43.531  1.00  0.00     0.720 A 
HETATM    5  N3  UNL     1      23.053 -14.680  44.087  1.00  0.00    -0.035 N 
HETATM    6  C3  UNL     1      23.027 -14.157  45.309  1.00  0.00     0.190 A 
HETATM    7  N4  UNL     1      21.875 -13.603  45.921  1.00  0.00    -0.077 NA
HETATM    8  C4  UNL     1      24.248 -14.184  45.982  1.00  0.00     0.136 A 
HETATM    9  N5  UNL     1      24.279 -13.647  47.274  1.00  0.00    -0.095 NA
HETATM   10  C5  UNL     1      25.396 -14.715  45.419  1.00  0.00     0.171 A 
HETATM   11  N8  UNL     1      25.386 -15.233  44.181  1.00  0.00    -0.123 N 
HETATM   12  C6  UNL     1      26.493 -15.748  43.652  1.00  0.00     0.102 A 
HETATM   13  C11 UNL     1      26.254 -16.271  42.308  1.00  0.00     0.119 A 
HETATM   14  N11 UNL     1      27.364 -16.851  41.647  1.00  0.00    -0.096 NA
ENDROOT
BRANCH  12  15
HETATM   15  C7  UNL     1      27.828 -15.891  44.098  1.00  0.00     0.116 C 
HETATM   16  N9  UNL     1      29.045 -15.310  43.966  1.00  0.00    -0.397 N 
ATOM     17  H9  UNL     1      29.225 -14.591  43.266  1.00  0.00     0.158 HD
BRANCH  16  18
HETATM   18  C8  UNL     1      30.090 -15.775  44.887  1.00  0.00     0.120 C 
BRANCH  18  19
HETATM   19  C9  UNL     1      30.938 -14.617  45.314  1.00  0.00     0.040 C 
BRANCH  19  20
HETATM   20  C10 UNL     1      30.484 -13.323  44.640  1.00  0.00     0.136 C 
BRANCH  20  21
HETATM   21  N10 UNL     1      31.466 -12.892  43.655  1.00  0.00    -0.301 N 
ATOM     22  H10 UNL     1      32.401 -12.549  43.874  1.00  0.00     0.174 HD
BRANCH  21  23
HETATM   23  S1  UNL     1      30.827 -13.046  42.078  1.00  0.00     0.204 S 
HETATM   24  O2  UNL     1      30.906 -14.505  41.653  1.00  0.00    -0.578 OA
HETATM   25  O3  UNL     1      29.399 -12.578  42.016  1.00  0.00    -0.578 OA
HETATM   26  O4  UNL     1      31.697 -12.082  40.987  1.00  0.00    -0.578 OA
ENDBRANCH  21  23
ENDBRANCH  20  21
ENDBRANCH  19  20
ENDBRANCH  18  19
ENDBRANCH  16  18
ENDBRANCH  12  15
BRANCH  10  27
HETATM   27  N6  UNL     1      26.429 -14.723  46.117  1.00  0.00    -0.289 N 
ATOM     28  H6  UNL     1      26.802 -15.633  46.390  1.00  0.00     0.188 HD
BRANCH  27  29
HETATM   29  N7  UNL     1      27.124 -13.584  46.561  1.00  0.00    -0.344 N 
ATOM     30  H72 UNL     1      27.348 -13.553  47.556  1.00  0.00     0.176 HD
ATOM     31  H71 UNL     1      27.414 -12.801  45.975  1.00  0.00     0.176 HD
ENDBRANCH  27  29
ENDBRANCH  10  27
BRANCH   1  32
HETATM   32  N1  UNL     1      24.883 -16.703  40.495  1.00  0.00    -0.383 N 
ATOM     33  H12 UNL     1      24.049 -16.492  39.947  1.00  0.00     0.157 HD
ATOM     34  H11 UNL     1      25.607 -17.305  40.101  1.00  0.00     0.157 HD
ENDBRANCH   1  32
BRANCH   5  35
HETATM   35  O1  UNL     1      21.851 -14.667  43.391  1.00  0.00    -0.268 OA
ATOM     36  H1  UNL     1      21.833 -14.595  42.444  1.00  0.00     0.246 HD
ENDBRANCH   5  35
TORSDOF 10
ENDMDL
MODEL 2
REMARK VINA RESULT: -7.243551499      1.482      1.569
REMARK  10 active torsions:
REMARK  status: ('A' for Active; 'I' for Inactive)
REMARK    1  A    between atoms: N1_1  and  C1_4 
REMARK    2  A    between atoms: N3_8  and  O1_9 
REMARK    3  A    between atoms: C5_15  and  N6_16 
REMARK    4  A    between atoms: N6_16  and  N7_18 
REMARK    5  A    between atoms: C6_22  and  C7_23 
REMARK    6  A    between atoms: N9_24  and  C8_26 
REMARK    7  A    between atoms: C8_26  and  C9_27 
REMARK    8  A    between atoms: C9_27  and  C10_28 
REMARK    9  A    between atoms: C10_28  and  N10_29 
REMARK   10  A    between atoms: N10_29  and  S1_31 
ROOT
HETATM    1  C1  UNL     1      24.945 -16.570  41.674  1.00  0.00     0.141 A 
HETATM    2  N2  UNL     1      23.794 -16.454  42.319  1.00  0.00    -0.172 N 
ATOM      3  H2  UNL     1      22.917 -16.410  41.800  1.00  0.00     0.186 HD
HETATM    4  C2  UNL     1      23.788 -16.397  43.634  1.00  0.00     0.720 A 
HETATM    5  N3  UNL     1      22.556 -16.290  44.200  1.00  0.00    -0.035 N 
HETATM    6  C3  UNL     1      22.370 -16.232  45.516  1.00  0.00     0.190 A 
HETATM    7  N4  UNL     1      21.105 -16.118  46.144  1.00  0.00    -0.077 NA
HETATM    8  C4  UNL     1      23.539 -16.289  46.274  1.00  0.00     0.136 A 
HETATM    9  N5  UNL     1      23.403 -16.232  47.666  1.00  0.00    -0.095 NA
HETATM   10  C5  UNL     1      24.794 -16.399  45.699  1.00  0.00     0.171 A 
HETATM   11  N8  UNL     1      24.945 -16.453  44.367  1.00  0.00    -0.123 N 
HETATM   12  C6  UNL     1      26.154 -16.566  43.825  1.00  0.00     0.102 A 
HETATM   13  C11 UNL     1      26.087 -16.626  42.366  1.00  0.00     0.119 A 
HETATM   14  N11 UNL     1      27.318 -16.753  41.679  1.00  0.00    -0.096 NA
ENDROOT
BRANCH  12  15
HETATM   15  C7  UNL     1      27.468 -16.634  44.344  1.00  0.00     0.116 C 
HETATM   16  N9  UNL     1      28.663 -15.999  44.261  1.00  0.00    -0.397 N 
ATOM     17  H9  UNL     1      28.847 -15.289  43.553  1.00  0.00     0.158 HD
BRANCH  16  18
HETATM   18  C8  UNL     1      29.676 -16.390  45.249  1.00  0.00     0.120 C 
BRANCH  18  19
HETATM   19  C9  UNL     1      30.562 -15.221  45.555  1.00  0.00     0.040 C 
BRANCH  19  20
HETATM   20  C10 UNL     1      29.986 -13.928  44.977  1.00  0.00     0.136 C 
BRANCH  20  21
HETATM   21  N10 UNL     1      30.898 -13.362  43.993  1.00  0.00    -0.301 N 
ATOM     22  H10 UNL     1      31.788 -12.914  44.211  1.00  0.00     0.174 HD
BRANCH  21  23
HETATM   23  S1  UNL     1      30.263 -13.557  42.418  1.00  0.00     0.204 S 
HETATM   24  O2  UNL     1      30.623 -14.945  41.909  1.00  0.00    -0.578 OA
HETATM   25  O3  UNL     1      28.770 -13.384  42.404  1.00  0.00    -0.578 OA
HETATM   26  O4  UNL     1      30.894 -12.381  41.374  1.00  0.00    -0.578 OA
ENDBRANCH  21  23
ENDBRANCH  20  21
ENDBRANCH  19  20
ENDBRANCH  18  19
ENDBRANCH  16  18
ENDBRANCH  12  15
BRANCH  10  27
HETATM   27  N6  UNL     1      25.774 -16.478  46.467  1.00  0.00    -0.289 N 
ATOM     28  H6  UNL     1      26.458 -15.722  46.431  1.00  0.00     0.188 HD
BRANCH  27  29
HETATM   29  N7  UNL     1      26.017 -17.522  47.377  1.00  0.00    -0.344 N 
ATOM     30  H72 UNL     1      25.324 -18.270  47.397  1.00  0.00     0.176 HD
ATOM     31  H71 UNL     1      26.817 -17.586  48.005  1.00  0.00     0.176 HD
ENDBRANCH  27  29
ENDBRANCH  10  27
BRANCH   1  32
HETATM   32  N1  UNL     1      24.915 -16.625  40.371  1.00  0.00    -0.383 N 
ATOM     33  H12 UNL     1      24.083 -16.383  39.834  1.00  0.00     0.157 HD
ATOM     34  H11 UNL     1      25.761 -16.921  39.883  1.00  0.00     0.157 HD
ENDBRANCH   1  32
BRANCH   5  35
HETATM   35  O1  UNL     1      21.410 -16.235  43.418  1.00  0.00    -0.268 OA
ATOM     36  H1  UNL     1      20.545 -16.256  43.812  1.00  0.00     0.246 HD
ENDBRANCH   5  35
TORSDOF 10
ENDMDL
MODEL 3
REMARK VINA RESULT: -7.200639770      1.549      3.885
REMARK  10 active torsions:
REMARK  status: ('A' for Active; 'I' for Inactive)
REMARK    1  A    between atoms: N1_1  and  C1_4 
REMARK    2  A    between atoms: N3_8  and  O1_9 
REMARK    3  A    between atoms: C5_15  and  N6_16 
REMARK    4  A    between atoms: N6_16  and  N7_18 
REMARK    5  A    between atoms: C6_22  and  C7_23 
REMARK    6  A    between atoms: N9_24  and  C8_26 
REMARK    7  A    between atoms: C8_26  and  C9_27 
REMARK    8  A    between atoms: C9_27  and  C10_28 
REMARK    9  A    between atoms: C10_28  and  N10_29 
REMARK   10  A    between atoms: N10_29  and  S1_31 
ROOT
HETATM    1  C1  UNL     1      23.413 -15.689  46.049  1.00  0.00     0.141 A 
HETATM    2  N2  UNL     1      22.733 -15.792  44.917  1.00  0.00    -0.172 N 
ATOM      3  H2  UNL     1      21.720 -15.674  44.914  1.00  0.00     0.186 HD
HETATM    4  C2  UNL     1      23.372 -16.050  43.796  1.00  0.00     0.720 A 
HETATM    5  N3  UNL     1      22.585 -16.125  42.688  1.00  0.00    -0.035 N 
HETATM    6  C3  UNL     1      23.070 -16.365  41.474  1.00  0.00     0.190 A 
HETATM    7  N4  UNL     1      22.284 -16.453  40.298  1.00  0.00    -0.077 NA
HETATM    8  C4  UNL     1      24.453 -16.535  41.421  1.00  0.00     0.136 A 
HETATM    9  N5  UNL     1      25.019 -16.792  40.167  1.00  0.00    -0.095 NA
HETATM   10  C5  UNL     1      25.256 -16.459  42.546  1.00  0.00     0.171 A 
HETATM   11  N8  UNL     1      24.732 -16.216  43.757  1.00  0.00    -0.123 N 
HETATM   12  C6  UNL     1      25.513 -16.136  44.831  1.00  0.00     0.102 A 
HETATM   13  C11 UNL     1      24.740 -15.848  46.039  1.00  0.00     0.119 A 
HETATM   14  N11 UNL     1      25.470 -15.734  47.246  1.00  0.00    -0.096 NA
ENDROOT
BRANCH  12  15
HETATM   15  C7  UNL     1      26.903 -16.273  45.056  1.00  0.00     0.116 C 
HETATM   16  N9  UNL     1      27.982 -15.541  45.425  1.00  0.00    -0.397 N 
ATOM     17  H9  UNL     1      27.946 -14.524  45.491  1.00  0.00     0.158 HD
BRANCH  16  18
HETATM   18  C8  UNL     1      29.205 -16.295  45.726  1.00  0.00     0.120 C 
BRANCH  18  19
HETATM   19  C9  UNL     1      30.406 -15.455  45.416  1.00  0.00     0.040 C 
BRANCH  19  20
HETATM   20  C10 UNL     1      29.997 -14.108  44.821  1.00  0.00     0.136 C 
BRANCH  20  21
HETATM   21  N10 UNL     1      30.589 -13.935  43.501  1.00  0.00    -0.301 N 
ATOM     22  H10 UNL     1      31.583 -13.792  43.321  1.00  0.00     0.174 HD
BRANCH  21  23
HETATM   23  S1  UNL     1      29.379 -14.008  42.296  1.00  0.00     0.204 S 
HETATM   24  O2  UNL     1      29.651 -12.930  41.258  1.00  0.00    -0.578 OA
HETATM   25  O3  UNL     1      29.349 -15.355  41.630  1.00  0.00    -0.578 OA
HETATM   26  O4  UNL     1      27.846 -13.774  42.979  1.00  0.00    -0.578 OA
ENDBRANCH  21  23
ENDBRANCH  20  21
ENDBRANCH  19  20
ENDBRANCH  18  19
ENDBRANCH  16  18
ENDBRANCH  12  15
BRANCH  10  27
HETATM   27  N6  UNL     1      26.486 -16.591  42.386  1.00  0.00    -0.289 N 
ATOM     28  H6  UNL     1      27.076 -15.792  42.617  1.00  0.00     0.188 HD
BRANCH  27  29
HETATM   29  N7  UNL     1      27.128 -17.749  41.913  1.00  0.00    -0.344 N 
ATOM     30  H72 UNL     1      27.060 -17.923  40.911  1.00  0.00     0.176 HD
ATOM     31  H71 UNL     1      27.646 -18.415  42.486  1.00  0.00     0.176 HD
ENDBRANCH  27  29
ENDBRANCH  10  27
BRANCH   1  32
HETATM   32  N1  UNL     1      22.750 -15.433  47.142  1.00  0.00    -0.383 N 
ATOM     33  H12 UNL     1      23.101 -15.687  48.065  1.00  0.00     0.157 HD
ATOM     34  H11 UNL     1      21.849 -14.962  47.058  1.00  0.00     0.157 HD
ENDBRANCH   1  32
BRANCH   5  35
HETATM   35  O1  UNL     1      21.209 -15.951  42.773  1.00  0.00    -0.268 OA
ATOM     36  H1  UNL     1      20.764 -15.300  42.244  1.00  0.00     0.246 HD
ENDBRANCH   5  35
TORSDOF 10
ENDMDL
MODEL 4
REMARK VINA RESULT: -7.179844310      3.907      6.130
REMARK  10 active torsions:
REMARK  status: ('A' for Active; 'I' for Inactive)
REMARK    1  A    between atoms: N1_1  and  C1_4 
REMARK    2  A    between atoms: N3_8  and  O1_9 
REMARK    3  A    between atoms: C5_15  and  N6_16 
REMARK    4  A    between atoms: N6_16  and  N7_18 
REMARK    5  A    between atoms: C6_22  and  C7_23 
REMARK    6  A    between atoms: N9_24  and  C8_26 
REMARK    7  A    between atoms: C8_26  and  C9_27 
REMARK    8  A    between atoms: C9_27  and  C10_28 
REMARK    9  A    between atoms: C10_28  and  N10_29 
REMARK   10  A    between atoms: N10_29  and  S1_31 
ROOT
HETATM    1  C1  UNL     1      28.542 -17.628  47.846  1.00  0.00     0.141 A 
HETATM    2  N2  UNL     1      27.618 -17.353  48.755  1.00  0.00    -0.172 N 
ATOM      3  H2  UNL     1      27.806 -17.521  49.744  1.00  0.00     0.186 HD
HETATM    4  C2  UNL     1      26.458 -16.864  48.376  1.00  0.00     0.720 A 
HETATM    5  N3  UNL     1      25.583 -16.606  49.386  1.00  0.00    -0.035 N 
HETATM    6  C3  UNL     1      24.372 -16.099  49.178  1.00  0.00     0.190 A 
HETATM    7  N4  UNL     1      23.432 -15.818  50.202  1.00  0.00    -0.077 NA
HETATM    8  C4  UNL     1      24.063 -15.850  47.842  1.00  0.00     0.136 A 
HETATM    9  N5  UNL     1      22.800 -15.316  47.564  1.00  0.00    -0.095 NA
HETATM   10  C5  UNL     1      24.952 -16.112  46.812  1.00  0.00     0.171 A 
HETATM   11  N8  UNL     1      26.167 -16.625  47.058  1.00  0.00    -0.123 N 
HETATM   12  C6  UNL     1      27.016 -16.865  46.063  1.00  0.00     0.102 A 
HETATM   13  C11 UNL     1      28.283 -17.406  46.554  1.00  0.00     0.119 A 
HETATM   14  N11 UNL     1      29.269 -17.694  45.580  1.00  0.00    -0.096 NA
ENDROOT
BRANCH  12  15
HETATM   15  C7  UNL     1      26.958 -16.720  44.656  1.00  0.00     0.116 C 
HETATM   16  N9  UNL     1      27.062 -17.454  43.521  1.00  0.00    -0.397 N 
ATOM     17  H9  UNL     1      27.393 -18.418  43.532  1.00  0.00     0.158 HD
BRANCH  16  18
HETATM   18  C8  UNL     1      26.672 -16.781  42.276  1.00  0.00     0.120 C 
BRANCH  18  19
HETATM   19  C9  UNL     1      26.024 -17.766  41.352  1.00  0.00     0.040 C 
BRANCH  19  20
HETATM   20  C10 UNL     1      24.572 -17.380  41.067  1.00  0.00     0.136 C 
BRANCH  20  21
HETATM   21  N10 UNL     1      23.907 -16.965  42.295  1.00  0.00    -0.301 N 
ATOM     22  H10 UNL     1      24.101 -17.347  43.221  1.00  0.00     0.174 HD
BRANCH  21  23
HETATM   23  S1  UNL     1      22.756 -15.748  41.961  1.00  0.00     0.204 S 
HETATM   24  O2  UNL     1      23.399 -14.386  42.185  1.00  0.00    -0.578 OA
HETATM   25  O3  UNL     1      22.251 -15.842  40.548  1.00  0.00    -0.578 OA
HETATM   26  O4  UNL     1      21.404 -15.916  42.968  1.00  0.00    -0.578 OA
ENDBRANCH  21  23
ENDBRANCH  20  21
ENDBRANCH  19  20
ENDBRANCH  18  19
ENDBRANCH  16  18
ENDBRANCH  12  15
BRANCH  10  27
HETATM   27  N6  UNL     1      24.593 -15.821  45.654  1.00  0.00    -0.289 N 
ATOM     28  H6  UNL     1      24.515 -16.585  44.983  1.00  0.00     0.188 HD
BRANCH  27  29
HETATM   29  N7  UNL     1      24.286 -14.528  45.194  1.00  0.00    -0.344 N 
ATOM     30  H72 UNL     1      25.020 -14.052  44.668  1.00  0.00     0.176 HD
ATOM     31  H71 UNL     1      23.404 -14.039  45.344  1.00  0.00     0.176 HD
ENDBRANCH  27  29
ENDBRANCH  10  27
BRANCH   1  32
HETATM   32  N1  UNL     1      29.682 -18.112  48.255  1.00  0.00    -0.383 N 
ATOM     33  H12 UNL     1      29.828 -19.110  48.406  1.00  0.00     0.157 HD
ATOM     34  H11 UNL     1      30.447 -17.458  48.428  1.00  0.00     0.157 HD
ENDBRANCH   1  32
BRANCH   5  35
HETATM   35  O1  UNL     1      25.920 -16.865  50.708  1.00  0.00    -0.268 OA
ATOM     36  H1  UNL     1      25.251 -16.933  51.380  1.00  0.00     0.246 HD
ENDBRANCH   5  35
TORSDOF 10
ENDMDL
MODEL 5
REMARK VINA RESULT: -7.121668008      1.488      1.635
REMARK  10 active torsions:
REMARK  status: ('A' for Active; 'I' for Inactive)
REMARK    1  A    between atoms: N1_1  and  C1_4 
REMARK    2  A    between atoms: N3_8  and  O1_9 
REMARK    3  A    between atoms: C5_15  and  N6_16 
REMARK    4  A    between atoms: N6_16  and  N7_18 
REMARK    5  A    between atoms: C6_22  and  C7_23 
REMARK    6  A    between atoms: N9_24  and  C8_26 
REMARK    7  A    between atoms: C8_26  and  C9_27 
REMARK    8  A    between atoms: C9_27  and  C10_28 
REMARK    9  A    between atoms: C10_28  and  N10_29 
REMARK   10  A    between atoms: N10_29  and  S1_31 
ROOT
HETATM    1  C1  UNL     1      24.626 -16.697  41.822  1.00  0.00     0.141 A 
HETATM    2  N2  UNL     1      23.604 -16.417  42.617  1.00  0.00    -0.172 N 
ATOM      3  H2  UNL     1      22.661 -16.716  42.366  1.00  0.00     0.186 HD
HETATM    4  C2  UNL     1      23.811 -15.751  43.733  1.00  0.00     0.720 A 
HETATM    5  N3  UNL     1      22.700 -15.525  44.484  1.00  0.00    -0.035 N 
HETATM    6  C3  UNL     1      22.734 -14.877  45.645  1.00  0.00     0.190 A 
HETATM    7  N4  UNL     1      21.599 -14.620  46.454  1.00  0.00    -0.077 NA
HETATM    8  C4  UNL     1      24.000 -14.446  46.036  1.00  0.00     0.136 A 
HETATM    9  N5  UNL     1      24.096 -13.759  47.251  1.00  0.00    -0.095 NA
HETATM   10  C5  UNL     1      25.133 -14.677  45.274  1.00  0.00     0.171 A 
HETATM   11  N8  UNL     1      25.062 -15.333  44.105  1.00  0.00    -0.123 N 
HETATM   12  C6  UNL     1      26.157 -15.555  43.385  1.00  0.00     0.102 A 
HETATM   13  C11 UNL     1      25.855 -16.299  42.162  1.00  0.00     0.119 A 
HETATM   14  N11 UNL     1      26.950 -16.600  41.317  1.00  0.00    -0.096 NA
ENDROOT
BRANCH  12  15
HETATM   15  C7  UNL     1      27.526 -15.230  43.538  1.00  0.00     0.116 C 
HETATM   16  N9  UNL     1      28.732 -15.825  43.705  1.00  0.00    -0.397 N 
ATOM     17  H9  UNL     1      28.818 -16.820  43.910  1.00  0.00     0.158 HD
BRANCH  16  18
HETATM   18  C8  UNL     1      29.908 -14.956  43.573  1.00  0.00     0.120 C 
BRANCH  18  19
HETATM   19  C9  UNL     1      29.563 -13.764  42.734  1.00  0.00     0.040 C 
BRANCH  19  20
HETATM   20  C10 UNL     1      30.668 -13.466  41.720  1.00  0.00     0.136 C 
BRANCH  20  21
HETATM   21  N10 UNL     1      31.136 -12.095  41.868  1.00  0.00    -0.301 N 
ATOM     22  H10 UNL     1      30.677 -11.379  42.433  1.00  0.00     0.174 HD
BRANCH  21  23
HETATM   23  S1  UNL     1      32.563 -11.856  40.959  1.00  0.00     0.204 S 
HETATM   24  O2  UNL     1      33.049 -13.202  40.441  1.00  0.00    -0.578 OA
HETATM   25  O3  UNL     1      32.328 -10.924  39.803  1.00  0.00    -0.578 OA
HETATM   26  O4  UNL     1      33.765 -11.141  41.917  1.00  0.00    -0.578 OA
ENDBRANCH  21  23
ENDBRANCH  20  21
ENDBRANCH  19  20
ENDBRANCH  18  19
ENDBRANCH  16  18
ENDBRANCH  12  15
BRANCH  10  27
HETATM   27  N6  UNL     1      26.225 -14.281  45.730  1.00  0.00    -0.289 N 
ATOM     28  H6  UNL     1      26.681 -13.508  45.245  1.00  0.00     0.188 HD
BRANCH  27  29
HETATM   29  N7  UNL     1      26.880 -14.810  46.856  1.00  0.00    -0.344 N 
ATOM     30  H72 UNL     1      26.281 -15.217  47.574  1.00  0.00     0.176 HD
ATOM     31  H71 UNL     1      27.889 -14.818  47.005  1.00  0.00     0.176 HD
ENDBRANCH  27  29
ENDBRANCH  10  27
BRANCH   1  32
HETATM   32  N1  UNL     1      24.386 -17.359  40.724  1.00  0.00    -0.383 N 
ATOM     33  H12 UNL     1      25.042 -17.378  39.944  1.00  0.00     0.157 HD
ATOM     34  H11 UNL     1      23.506 -17.872  40.655  1.00  0.00     0.157 HD
ENDBRANCH   1  32
BRANCH   5  35
HETATM   35  O1  UNL     1      21.451 -15.966  44.066  1.00  0.00    -0.268 OA
ATOM     36  H1  UNL     1      20.662 -15.484  44.284  1.00  0.00     0.246 HD
ENDBRANCH   5  35
TORSDOF 10
ENDMDL
