MODEL 1
REMARK VINA RESULT: -7.129420742      0.000      0.000
REMARK  13 active torsions:
REMARK  status: ('A' for Active; 'I' for Inactive)
REMARK    1  A    between atoms: N1_2  and  C2_3 
REMARK    2  A    between atoms: N1_2  and  C4_7 
REMARK    3  A    between atoms: C2_3  and  C3_4 
REMARK    4  A    between atoms: C3_4  and  O1_5 
REMARK    5  A    between atoms: C4_7  and  C5_8 
REMARK    6  A    between atoms: C5_8  and  O2_9 
REMARK    7  A    between atoms: C5_8  and  N2_11 
REMARK    8  A    between atoms: C7_15  and  N4_16 
REMARK    9  A    between atoms: C8_21  and  N6_22 
REMARK   10  A    between atoms: C10_27  and  N8_28 
REMARK   11  A    between atoms: C11_33  and  C12_34 
REMARK   12  A    between atoms: C12_34  and  N10_35 
REMARK   13  A    between atoms: N10_35  and  N11_37 
ROOT
HETATM    1  N2  UNL     1      25.660 -16.247  44.560  1.00  0.00    -0.219 N 
HETATM    2  C6  UNL     1      25.639 -16.914  43.379  1.00  0.00     0.175 A 
HETATM    3  N3  UNL     1      25.822 -16.512  42.107  1.00  0.00    -0.173 N 
ATOM      4  H3  UNL     1      26.014 -15.529  41.920  1.00  0.00     0.186 HD
HETATM    5  C7  UNL     1      25.757 -17.379  41.073  1.00  0.00     0.679 A 
HETATM    6  N5  UNL     1      25.507 -18.671  41.307  1.00  0.00    -0.175 N 
ATOM      7  H5  UNL     1      25.462 -19.316  40.518  1.00  0.00     0.186 HD
HETATM    8  C8  UNL     1      25.311 -19.156  42.569  1.00  0.00     0.148 A 
HETATM    9  C9  UNL     1      25.384 -18.251  43.598  1.00  0.00     0.167 A 
HETATM   10  N7  UNL     1      25.250 -18.371  44.955  1.00  0.00    -0.056 N 
HETATM   11  C10 UNL     1      25.011 -19.290  45.907  1.00  0.00     0.701 A 
HETATM   12  N9  UNL     1      25.049 -18.548  47.080  1.00  0.00    -0.174 N 
ATOM     13  H9  UNL     1      24.907 -18.930  48.015  1.00  0.00     0.185 HD
HETATM   14  C11 UNL     1      25.294 -17.285  46.817  1.00  0.00     0.158 A 
HETATM   15  N15 UNL     1      25.422 -17.161  45.488  1.00  0.00    -0.154 N 
ENDROOT
BRANCH   1  16
HETATM   16  C5  UNL     1      25.895 -14.809  44.692  1.00  0.00     0.273 C 
BRANCH  16  17
HETATM   17  C4  UNL     1      24.650 -14.070  44.337  1.00  0.00     0.327 C 
BRANCH  17  18
HETATM   18  N1  UNL     1      23.431 -14.705  44.724  1.00  0.00     0.090 N 
HETATM   19  C1  UNL     1      22.480 -14.815  43.638  1.00  0.00     0.310 C 
BRANCH  18  20
HETATM   20  C2  UNL     1      22.830 -14.271  45.944  1.00  0.00     0.297 C 
BRANCH  20  21
HETATM   21  C3  UNL     1      22.060 -15.332  46.685  1.00  0.00     0.194 C 
BRANCH  21  22
HETATM   22  O1  UNL     1      22.093 -15.089  48.053  1.00  0.00    -0.399 OA
ATOM     23  H1  UNL     1      22.034 -15.905  48.536  1.00  0.00     0.209 HD
ENDBRANCH  21  22
ENDBRANCH  20  21
ENDBRANCH  18  20
ENDBRANCH  17  18
ENDBRANCH  16  17
BRANCH  16  24
HETATM   24  O2  UNL     1      26.941 -14.554  43.775  1.00  0.00    -0.373 OA
ATOM     25  H2  UNL     1      27.653 -15.176  43.866  1.00  0.00     0.212 HD
ENDBRANCH  16  24
ENDBRANCH   1  16
BRANCH  14  26
HETATM   26  C12 UNL     1      25.429 -16.141  47.793  1.00  0.00     0.224 C 
BRANCH  26  27
HETATM   27  N10 UNL     1      24.712 -16.564  49.001  1.00  0.00    -0.291 N 
ATOM     28  H10 UNL     1      23.721 -16.342  49.099  1.00  0.00     0.184 HD
BRANCH  27  29
HETATM   29  N11 UNL     1      25.363 -17.265  50.018  1.00  0.00    -0.103 N 
HETATM   30  N12 UNL     1      24.946 -17.951  51.051  1.00  0.00    -0.189 N 
HETATM   31  N13 UNL     1      26.192 -18.212  51.407  1.00  0.00    -0.208 N 
ATOM     32  H12 UNL     1      24.029 -18.189  51.429  1.00  0.00     0.213 HD
HETATM   33  N14 UNL     1      26.603 -17.526  50.376  1.00  0.00    -0.189 N 
ATOM     34  H13 UNL     1      26.641 -18.728  52.164  1.00  0.00     0.211 HD
ATOM     35  H14 UNL     1      27.519 -17.287  49.997  1.00  0.00     0.213 HD
ENDBRANCH  27  29
ENDBRANCH  26  27
ENDBRANCH  14  26
BRANCH   5  36
HETATM   36  N4  UNL     1      25.941 -16.933  39.876  1.00  0.00    -0.234 N 
ATOM     37  H42 UNL     1      26.719 -16.313  39.651  1.00  0.00     0.174 HD
ATOM     38  H41 UNL     1      25.289 -17.210  39.143  1.00  0.00     0.174 HD
ENDBRANCH   5  36
BRANCH   8  39
HETATM   39  N6  UNL     1      25.075 -20.410  42.713  1.00  0.00    -0.383 N 
ATOM     40  H62 UNL     1      25.273 -21.123  42.011  1.00  0.00     0.157 HD
ATOM     41  H61 UNL     1      24.660 -20.730  43.588  1.00  0.00     0.157 HD
ENDBRANCH   8  39
BRANCH  11  42
HETATM   42  N8  UNL     1      24.791 -20.527  45.918  1.00  0.00    -0.233 N 
ATOM     43  H82 UNL     1      25.008 -21.115  45.114  1.00  0.00     0.174 HD
ATOM     44  H81 UNL     1      24.407 -21.188  46.593  1.00  0.00     0.174 HD
ENDBRANCH  11  42
TORSDOF 13
ENDMDL
MODEL 2
REMARK VINA RESULT: -7.094542493      0.830      1.224
REMARK  13 active torsions:
REMARK  status: ('A' for Active; 'I' for Inactive)
REMARK    1  A    between atoms: N1_2  and  C2_3 
REMARK    2  A    between atoms: N1_2  and  C4_7 
REMARK    3  A    between atoms: C2_3  and  C3_4 
REMARK    4  A    between atoms: C3_4  and  O1_5 
REMARK    5  A    between atoms: C4_7  and  C5_8 
REMARK    6  A    between atoms: C5_8  and  O2_9 
REMARK    7  A    between atoms: C5_8  and  N2_11 
REMARK    8  A    between atoms: C7_15  and  N4_16 
REMARK    9  A    between atoms: C8_21  and  N6_22 
REMARK   10  A    between atoms: C10_27  and  N8_28 
REMARK   11  A    between atoms: C11_33  and  C12_34 
REMARK   12  A    between atoms: C12_34  and  N10_35 
REMARK   13  A    between atoms: N10_35  and  N11_37 
ROOT
HETATM    1  N2  UNL     1      25.633 -16.269  44.616  1.00  0.00    -0.219 N 
HETATM    2  C6  UNL     1      25.629 -16.931  43.433  1.00  0.00     0.175 A 
HETATM    3  N3  UNL     1      25.826 -16.525  42.165  1.00  0.00    -0.173 N 
ATOM      4  H3  UNL     1      26.019 -15.540  41.984  1.00  0.00     0.186 HD
HETATM    5  C7  UNL     1      25.777 -17.388  41.127  1.00  0.00     0.679 A 
HETATM    6  N5  UNL     1      25.527 -18.681  41.353  1.00  0.00    -0.175 N 
ATOM      7  H5  UNL     1      25.494 -19.324  40.561  1.00  0.00     0.186 HD
HETATM    8  C8  UNL     1      25.316 -19.171  42.611  1.00  0.00     0.148 A 
HETATM    9  C9  UNL     1      25.374 -18.270  43.644  1.00  0.00     0.167 A 
HETATM   10  N7  UNL     1      25.223 -18.395  44.998  1.00  0.00    -0.056 N 
HETATM   11  C10 UNL     1      24.974 -19.318  45.944  1.00  0.00     0.701 A 
HETATM   12  N9  UNL     1      24.995 -18.580  47.121  1.00  0.00    -0.174 N 
ATOM     13  H9  UNL     1      24.842 -18.966  48.052  1.00  0.00     0.185 HD
HETATM   14  C11 UNL     1      25.240 -17.316  46.865  1.00  0.00     0.158 A 
HETATM   15  N15 UNL     1      25.385 -17.186  45.538  1.00  0.00    -0.154 N 
ENDROOT
BRANCH   1  16
HETATM   16  C5  UNL     1      25.863 -14.831  44.757  1.00  0.00     0.273 C 
BRANCH  16  17
HETATM   17  C4  UNL     1      24.631 -14.092  44.359  1.00  0.00     0.327 C 
BRANCH  17  18
HETATM   18  N1  UNL     1      23.400 -14.741  44.675  1.00  0.00     0.090 N 
HETATM   19  C1  UNL     1      22.503 -14.837  43.542  1.00  0.00     0.310 C 
BRANCH  18  20
HETATM   20  C2  UNL     1      22.738 -14.335  45.872  1.00  0.00     0.297 C 
BRANCH  20  21
HETATM   21  C3  UNL     1      21.976 -15.425  46.578  1.00  0.00     0.194 C 
BRANCH  21  22
HETATM   22  O1  UNL     1      21.672 -15.041  47.878  1.00  0.00    -0.399 OA
ATOM     23  H1  UNL     1      21.585 -15.803  48.439  1.00  0.00     0.209 HD
ENDBRANCH  21  22
ENDBRANCH  20  21
ENDBRANCH  18  20
ENDBRANCH  17  18
ENDBRANCH  16  17
BRANCH  16  24
HETATM   24  O2  UNL     1      26.940 -14.576  43.877  1.00  0.00    -0.373 OA
ATOM     25  H2  UNL     1      27.576 -13.980  44.256  1.00  0.00     0.212 HD
ENDBRANCH  16  24
ENDBRANCH   1  16
BRANCH  14  26
HETATM   26  C12 UNL     1      25.360 -16.175  47.846  1.00  0.00     0.224 C 
BRANCH  26  27
HETATM   27  N10 UNL     1      25.112 -16.762  49.168  1.00  0.00    -0.291 N 
ATOM     28  H10 UNL     1      25.625 -17.597  49.450  1.00  0.00     0.184 HD
BRANCH  27  29
HETATM   29  N11 UNL     1      24.185 -16.196  50.047  1.00  0.00    -0.103 N 
HETATM   30  N12 UNL     1      23.475 -15.099  50.026  1.00  0.00    -0.189 N 
HETATM   31  N13 UNL     1      22.942 -15.396  51.198  1.00  0.00    -0.208 N 
ATOM     32  H12 UNL     1      23.373 -14.326  49.369  1.00  0.00     0.213 HD
HETATM   33  N14 UNL     1      23.653 -16.489  51.215  1.00  0.00    -0.189 N 
ATOM     34  H13 UNL     1      22.265 -14.958  51.823  1.00  0.00     0.211 HD
ATOM     35  H14 UNL     1      23.756 -17.263  51.872  1.00  0.00     0.213 HD
ENDBRANCH  27  29
ENDBRANCH  26  27
ENDBRANCH  14  26
BRANCH   5  36
HETATM   36  N4  UNL     1      25.976 -16.937  39.934  1.00  0.00    -0.234 N 
ATOM     37  H42 UNL     1      25.957 -15.938  39.731  1.00  0.00     0.174 HD
ATOM     38  H41 UNL     1      26.154 -17.602  39.182  1.00  0.00     0.174 HD
ENDBRANCH   5  36
BRANCH   8  39
HETATM   39  N6  UNL     1      25.081 -20.426  42.747  1.00  0.00    -0.383 N 
ATOM     40  H62 UNL     1      25.751 -21.168  42.542  1.00  0.00     0.157 HD
ATOM     41  H61 UNL     1      24.163 -20.716  43.085  1.00  0.00     0.157 HD
ENDBRANCH   8  39
BRANCH  11  42
HETATM   42  N8  UNL     1      24.756 -20.555  45.948  1.00  0.00    -0.233 N 
ATOM     43  H82 UNL     1      24.376 -21.033  45.131  1.00  0.00     0.174 HD
ATOM     44  H81 UNL     1      24.868 -21.308  46.626  1.00  0.00     0.174 HD
ENDBRANCH  11  42
TORSDOF 13
ENDMDL
MODEL 3
REMARK VINA RESULT: -7.081144614      2.197      6.403
REMARK  13 active torsions:
REMARK  status: ('A' for Active; 'I' for Inactive)
REMARK    1  A    between atoms: N1_2  and  C2_3 
REMARK    2  A    between atoms: N1_2  and  C4_7 
REMARK    3  A    between atoms: C2_3  and  C3_4 
REMARK    4  A    between atoms: C3_4  and  O1_5 
REMARK    5  A    between atoms: C4_7  and  C5_8 
REMARK    6  A    between atoms: C5_8  and  O2_9 
REMARK    7  A    between atoms: C5_8  and  N2_11 
REMARK    8  A    between atoms: C7_15  and  N4_16 
REMARK    9  A    between atoms: C8_21  and  N6_22 
REMARK   10  A    between atoms: C10_27  and  N8_28 
REMARK   11  A    between atoms: C11_33  and  C12_34 
REMARK   12  A    between atoms: C12_34  and  N10_35 
REMARK   13  A    between atoms: N10_35  and  N11_37 
ROOT
HETATM    1  N2  UNL     1      25.586 -16.459  43.938  1.00  0.00    -0.219 N 
HETATM    2  C6  UNL     1      25.325 -16.994  45.157  1.00  0.00     0.175 A 
HETATM    3  N3  UNL     1      25.194 -16.445  46.379  1.00  0.00    -0.173 N 
ATOM      4  H3  UNL     1      25.302 -15.437  46.485  1.00  0.00     0.186 HD
HETATM    5  C7  UNL     1      24.923 -17.196  47.469  1.00  0.00     0.679 A 
HETATM    6  N5  UNL     1      24.779 -18.519  47.342  1.00  0.00    -0.175 N 
ATOM      7  H5  UNL     1      24.573 -19.075  48.172  1.00  0.00     0.186 HD
HETATM    8  C8  UNL     1      24.896 -19.150  46.137  1.00  0.00     0.148 A 
HETATM    9  C9  UNL     1      25.171 -18.360  45.048  1.00  0.00     0.167 A 
HETATM   10  N7  UNL     1      25.348 -18.634  43.719  1.00  0.00    -0.056 N 
HETATM   11  C10 UNL     1      25.353 -19.663  42.854  1.00  0.00     0.701 A 
HETATM   12  N9  UNL     1      25.620 -19.051  41.636  1.00  0.00    -0.174 N 
ATOM     13  H9  UNL     1      25.697 -19.540  40.744  1.00  0.00     0.185 HD
HETATM   14  C11 UNL     1      25.759 -17.755  41.794  1.00  0.00     0.158 A 
HETATM   15  N15 UNL     1      25.590 -17.481  43.096  1.00  0.00    -0.154 N 
ENDROOT
BRANCH   1  16
HETATM   16  C5  UNL     1      25.812 -15.035  43.692  1.00  0.00     0.273 C 
BRANCH  16  17
HETATM   17  C4  UNL     1      27.112 -14.630  44.302  1.00  0.00     0.327 C 
BRANCH  17  18
HETATM   18  N1  UNL     1      28.275 -15.171  43.677  1.00  0.00     0.090 N 
HETATM   19  C1  UNL     1      29.158 -15.841  44.609  1.00  0.00     0.310 C 
BRANCH  18  20
HETATM   20  C2  UNL     1      28.974 -14.330  42.761  1.00  0.00     0.297 C 
BRANCH  20  21
HETATM   21  C3  UNL     1      29.474 -15.019  41.519  1.00  0.00     0.194 C 
BRANCH  21  22
HETATM   22  O1  UNL     1      30.861 -14.959  41.455  1.00  0.00    -0.399 OA
ATOM     23  H1  UNL     1      31.160 -14.064  41.569  1.00  0.00     0.209 HD
ENDBRANCH  21  22
ENDBRANCH  20  21
ENDBRANCH  18  20
ENDBRANCH  17  18
ENDBRANCH  16  17
BRANCH  16  24
HETATM   24  O2  UNL     1      24.714 -14.406  44.324  1.00  0.00    -0.373 OA
ATOM     25  H2  UNL     1      24.053 -15.034  44.593  1.00  0.00     0.212 HD
ENDBRANCH  16  24
ENDBRANCH   1  16
BRANCH  14  26
HETATM   26  C12 UNL     1      26.044 -16.714  40.738  1.00  0.00     0.224 C 
BRANCH  26  27
HETATM   27  N10 UNL     1      24.813 -16.605  39.947  1.00  0.00    -0.291 N 
ATOM     28  H10 UNL     1      24.855 -16.729  38.935  1.00  0.00     0.184 HD
BRANCH  27  29
HETATM   29  N11 UNL     1      23.586 -16.335  40.556  1.00  0.00    -0.103 N 
HETATM   30  N12 UNL     1      22.354 -16.691  40.299  1.00  0.00    -0.189 N 
HETATM   31  N13 UNL     1      21.915 -15.995  41.333  1.00  0.00    -0.208 N 
ATOM     32  H12 UNL     1      21.911 -17.271  39.587  1.00  0.00     0.213 HD
HETATM   33  N14 UNL     1      23.146 -15.642  41.585  1.00  0.00    -0.189 N 
ATOM     34  H13 UNL     1      21.004 -15.811  41.755  1.00  0.00     0.211 HD
ATOM     35  H14 UNL     1      23.590 -15.062  42.296  1.00  0.00     0.213 HD
ENDBRANCH  27  29
ENDBRANCH  26  27
ENDBRANCH  14  26
BRANCH   5  36
HETATM   36  N4  UNL     1      24.809 -16.611  48.614  1.00  0.00    -0.234 N 
ATOM     37  H42 UNL     1      25.158 -15.665  48.767  1.00  0.00     0.174 HD
ATOM     38  H41 UNL     1      24.359 -17.114  49.379  1.00  0.00     0.174 HD
ENDBRANCH   5  36
BRANCH   8  39
HETATM   39  N6  UNL     1      24.745 -20.424  46.095  1.00  0.00    -0.383 N 
ATOM     40  H62 UNL     1      25.077 -21.072  46.810  1.00  0.00     0.157 HD
ATOM     41  H61 UNL     1      24.259 -20.831  45.296  1.00  0.00     0.157 HD
ENDBRANCH   8  39
BRANCH  11  42
HETATM   42  N8  UNL     1      25.183 -20.905  42.942  1.00  0.00    -0.233 N 
ATOM     43  H82 UNL     1      25.819 -21.493  43.480  1.00  0.00     0.174 HD
ATOM     44  H81 UNL     1      24.501 -21.570  42.579  1.00  0.00     0.174 HD
ENDBRANCH  11  42
TORSDOF 13
ENDMDL
MODEL 4
REMARK VINA RESULT: -7.018575508      1.253      1.635
REMARK  13 active torsions:
REMARK  status: ('A' for Active; 'I' for Inactive)
REMARK    1  A    between atoms: N1_2  and  C2_3 
REMARK    2  A    between atoms: N1_2  and  C4_7 
REMARK    3  A    between atoms: C2_3  and  C3_4 
REMARK    4  A    between atoms: C3_4  and  O1_5 
REMARK    5  A    between atoms: C4_7  and  C5_8 
REMARK    6  A    between atoms: C5_8  and  O2_9 
REMARK    7  A    between atoms: C5_8  and  N2_11 
REMARK    8  A    between atoms: C7_15  and  N4_16 
REMARK    9  A    between atoms: C8_21  and  N6_22 
REMARK   10  A    between atoms: C10_27  and  N8_28 
REMARK   11  A    between atoms: C11_33  and  C12_34 
REMARK   12  A    between atoms: C12_34  and  N10_35 
REMARK   13  A    between atoms: N10_35  and  N11_37 
ROOT
HETATM    1  N2  UNL     1      25.332 -16.401  44.625  1.00  0.00    -0.219 N 
HETATM    2  C6  UNL     1      25.463 -17.038  43.435  1.00  0.00     0.175 A 
HETATM    3  N3  UNL     1      25.731 -16.593  42.193  1.00  0.00    -0.173 N 
ATOM      4  H3  UNL     1      25.871 -15.595  42.043  1.00  0.00     0.186 HD
HETATM    5  C7  UNL     1      25.818 -17.437  41.141  1.00  0.00     0.679 A 
HETATM    6  N5  UNL     1      25.638 -18.748  41.327  1.00  0.00    -0.175 N 
ATOM      7  H5  UNL     1      25.708 -19.374  40.525  1.00  0.00     0.186 HD
HETATM    8  C8  UNL     1      25.363 -19.276  42.556  1.00  0.00     0.148 A 
HETATM    9  C9  UNL     1      25.281 -18.394  43.605  1.00  0.00     0.167 A 
HETATM   10  N7  UNL     1      25.035 -18.556  44.941  1.00  0.00    -0.056 N 
HETATM   11  C10 UNL     1      24.775 -19.513  45.850  1.00  0.00     0.701 A 
HETATM   12  N9  UNL     1      24.657 -18.800  47.036  1.00  0.00    -0.174 N 
ATOM     13  H9  UNL     1      24.458 -19.214  47.946  1.00  0.00     0.185 HD
HETATM   14  C11 UNL     1      24.837 -17.518  46.820  1.00  0.00     0.158 A 
HETATM   15  N15 UNL     1      25.076 -17.351  45.510  1.00  0.00    -0.154 N 
ENDROOT
BRANCH   1  16
HETATM   16  C5  UNL     1      25.456 -14.954  44.806  1.00  0.00     0.273 C 
BRANCH  16  17
HETATM   17  C4  UNL     1      24.430 -14.264  43.972  1.00  0.00     0.327 C 
BRANCH  17  18
HETATM   18  N1  UNL     1      23.100 -14.300  44.486  1.00  0.00     0.090 N 
HETATM   19  C1  UNL     1      23.040 -14.094  45.918  1.00  0.00     0.310 C 
BRANCH  18  20
HETATM   20  C2  UNL     1      22.259 -15.365  44.045  1.00  0.00     0.297 C 
BRANCH  20  21
HETATM   21  C3  UNL     1      22.324 -15.657  42.569  1.00  0.00     0.194 C 
BRANCH  21  22
HETATM   22  O1  UNL     1      21.137 -16.237  42.137  1.00  0.00    -0.399 OA
ATOM     23  H1  UNL     1      20.553 -15.576  41.785  1.00  0.00     0.209 HD
ENDBRANCH  21  22
ENDBRANCH  20  21
ENDBRANCH  18  20
ENDBRANCH  17  18
ENDBRANCH  16  17
BRANCH  16  24
HETATM   24  O2  UNL     1      26.770 -14.672  44.368  1.00  0.00    -0.373 OA
ATOM     25  H2  UNL     1      27.417 -14.871  45.035  1.00  0.00     0.212 HD
ENDBRANCH  16  24
ENDBRANCH   1  16
BRANCH  14  26
HETATM   26  C12 UNL     1      24.806 -16.391  47.825  1.00  0.00     0.224 C 
BRANCH  26  27
HETATM   27  N10 UNL     1      26.039 -16.526  48.609  1.00  0.00    -0.291 N 
ATOM     28  H10 UNL     1      26.899 -16.094  48.269  1.00  0.00     0.184 HD
BRANCH  27  29
HETATM   29  N11 UNL     1      26.056 -17.236  49.812  1.00  0.00    -0.103 N 
HETATM   30  N12 UNL     1      27.011 -17.633  50.612  1.00  0.00    -0.189 N 
HETATM   31  N13 UNL     1      26.129 -18.192  51.422  1.00  0.00    -0.208 N 
ATOM     32  H12 UNL     1      28.027 -17.546  50.610  1.00  0.00     0.213 HD
HETATM   33  N14 UNL     1      25.179 -17.794  50.620  1.00  0.00    -0.189 N 
ATOM     34  H13 UNL     1      26.171 -18.712  52.299  1.00  0.00     0.211 HD
ATOM     35  H14 UNL     1      24.163 -17.880  50.620  1.00  0.00     0.213 HD
ENDBRANCH  27  29
ENDBRANCH  26  27
ENDBRANCH  14  26
BRANCH   5  36
HETATM   36  N4  UNL     1      26.078 -16.950  39.975  1.00  0.00    -0.234 N 
ATOM     37  H42 UNL     1      26.760 -17.385  39.354  1.00  0.00     0.174 HD
ATOM     38  H41 UNL     1      25.588 -16.107  39.674  1.00  0.00     0.174 HD
ENDBRANCH   5  36
BRANCH   8  39
HETATM   39  N6  UNL     1      25.202 -20.546  42.655  1.00  0.00    -0.383 N 
ATOM     40  H62 UNL     1      25.076 -21.179  41.865  1.00  0.00     0.157 HD
ATOM     41  H61 UNL     1      25.197 -20.965  43.585  1.00  0.00     0.157 HD
ENDBRANCH   8  39
BRANCH  11  42
HETATM   42  N8  UNL     1      24.640 -20.761  45.818  1.00  0.00    -0.233 N 
ATOM     43  H82 UNL     1      24.209 -21.231  45.022  1.00  0.00     0.174 HD
ATOM     44  H81 UNL     1      24.871 -21.532  46.445  1.00  0.00     0.174 HD
ENDBRANCH  11  42
TORSDOF 13
ENDMDL
MODEL 5
REMARK VINA RESULT: -7.012205105      4.041      6.830
REMARK  13 active torsions:
REMARK  status: ('A' for Active; 'I' for Inactive)
REMARK    1  A    between atoms: N1_2  and  C2_3 
REMARK    2  A    between atoms: N1_2  and  C4_7 
REMARK    3  A    between atoms: C2_3  and  C3_4 
REMARK    4  A    between atoms: C3_4  and  O1_5 
REMARK    5  A    between atoms: C4_7  and  C5_8 
REMARK    6  A    between atoms: C5_8  and  O2_9 
REMARK    7  A    between atoms: C5_8  and  N2_11 
REMARK    8  A    between atoms: C7_15  and  N4_16 
REMARK    9  A    between atoms: C8_21  and  N6_22 
REMARK   10  A    between atoms: C10_27  and  N8_28 
REMARK   11  A    between atoms: C11_33  and  C12_34 
REMARK   12  A    between atoms: C12_34  and  N10_35 
REMARK   13  A    between atoms: N10_35  and  N11_37 
ROOT
HETATM    1  N2  UNL     1      27.541 -16.597  43.459  1.00  0.00    -0.219 N 
HETATM    2  C6  UNL     1      27.132 -17.182  44.613  1.00  0.00     0.175 A 
HETATM    3  N3  UNL     1      26.152 -18.063  44.886  1.00  0.00    -0.173 N 
ATOM      4  H3  UNL     1      25.560 -18.397  44.126  1.00  0.00     0.186 HD
HETATM    5  C7  UNL     1      25.933 -18.515  46.140  1.00  0.00     0.679 A 
HETATM    6  N5  UNL     1      26.705 -18.085  47.142  1.00  0.00    -0.175 N 
ATOM      7  H5  UNL     1      26.531 -18.436  48.085  1.00  0.00     0.186 HD
HETATM    8  C8  UNL     1      27.720 -17.193  46.947  1.00  0.00     0.148 A 
HETATM    9  C9  UNL     1      27.918 -16.752  45.662  1.00  0.00     0.167 A 
HETATM   10  N7  UNL     1      28.817 -15.885  45.103  1.00  0.00    -0.056 N 
HETATM   11  C10 UNL     1      29.855 -15.095  45.431  1.00  0.00     0.701 A 
HETATM   12  N9  UNL     1      30.224 -14.534  44.215  1.00  0.00    -0.174 N 
ATOM     13  H9  UNL     1      30.990 -13.874  44.089  1.00  0.00     0.185 HD
HETATM   14  C11 UNL     1      29.447 -14.974  43.253  1.00  0.00     0.158 A 
HETATM   15  N15 UNL     1      28.561 -15.822  43.796  1.00  0.00    -0.154 N 
ENDROOT
BRANCH   1  16
HETATM   16  C5  UNL     1      26.921 -16.824  42.154  1.00  0.00     0.273 C 
BRANCH  16  17
HETATM   17  C4  UNL     1      25.653 -16.045  42.068  1.00  0.00     0.327 C 
BRANCH  17  18
HETATM   18  N1  UNL     1      24.471 -16.820  41.875  1.00  0.00     0.090 N 
HETATM   19  C1  UNL     1      23.922 -16.695  40.541  1.00  0.00     0.310 C 
BRANCH  18  20
HETATM   20  C2  UNL     1      23.472 -16.750  42.892  1.00  0.00     0.297 C 
BRANCH  20  21
HETATM   21  C3  UNL     1      22.261 -15.929  42.539  1.00  0.00     0.194 C 
BRANCH  21  22
HETATM   22  O1  UNL     1      21.353 -15.924  43.591  1.00  0.00    -0.399 OA
ATOM     23  H1  UNL     1      21.536 -15.205  44.184  1.00  0.00     0.209 HD
ENDBRANCH  21  22
ENDBRANCH  20  21
ENDBRANCH  18  20
ENDBRANCH  17  18
ENDBRANCH  16  17
BRANCH  16  24
HETATM   24  O2  UNL     1      26.688 -18.218  42.131  1.00  0.00    -0.373 OA
ATOM     25  H2  UNL     1      27.008 -18.619  41.331  1.00  0.00     0.212 HD
ENDBRANCH  16  24
ENDBRANCH   1  16
BRANCH  14  26
HETATM   26  C12 UNL     1      29.503 -14.632  41.783  1.00  0.00     0.224 C 
BRANCH  26  27
HETATM   27  N10 UNL     1      30.929 -14.518  41.457  1.00  0.00    -0.291 N 
ATOM     28  H10 UNL     1      31.480 -15.364  41.315  1.00  0.00     0.184 HD
BRANCH  27  29
HETATM   29  N11 UNL     1      31.544 -13.269  41.339  1.00  0.00    -0.103 N 
HETATM   30  N12 UNL     1      31.246 -12.072  41.770  1.00  0.00    -0.189 N 
HETATM   31  N13 UNL     1      32.329 -11.573  41.201  1.00  0.00    -0.208 N 
ATOM     32  H12 UNL     1      30.484 -11.680  42.324  1.00  0.00     0.213 HD
HETATM   33  N14 UNL     1      32.622 -12.770  40.772  1.00  0.00    -0.189 N 
ATOM     34  H13 UNL     1      32.754 -10.649  41.127  1.00  0.00     0.211 HD
ATOM     35  H14 UNL     1      33.384 -13.163  40.218  1.00  0.00     0.213 HD
ENDBRANCH  27  29
ENDBRANCH  26  27
ENDBRANCH  14  26
BRANCH   5  36
HETATM   36  N4  UNL     1      24.978 -19.360  46.337  1.00  0.00    -0.234 N 
ATOM     37  H42 UNL     1      24.127 -19.345  45.775  1.00  0.00     0.174 HD
ATOM     38  H41 UNL     1      25.082 -20.055  47.076  1.00  0.00     0.174 HD
ENDBRANCH   5  36
BRANCH   8  39
HETATM   39  N6  UNL     1      28.417 -16.826  47.960  1.00  0.00    -0.383 N 
ATOM     40  H62 UNL     1      28.029 -16.526  48.855  1.00  0.00     0.157 HD
ATOM     41  H61 UNL     1      29.434 -16.830  47.880  1.00  0.00     0.157 HD
ENDBRANCH   8  39
BRANCH  11  42
HETATM   42  N8  UNL     1      30.462 -14.816  46.495  1.00  0.00    -0.233 N 
ATOM     43  H82 UNL     1      31.466 -14.967  46.592  1.00  0.00     0.174 HD
ATOM     44  H81 UNL     1      30.196 -14.433  47.402  1.00  0.00     0.174 HD
ENDBRANCH  11  42
TORSDOF 13
ENDMDL
