MODEL 1
REMARK VINA RESULT: -7.011319211      0.000      0.000
REMARK  13 active torsions:
REMARK  status: ('A' for Active; 'I' for Inactive)
REMARK    1  A    between atoms: C2_3  and  N2_4 
REMARK    2  A    between atoms: N2_4  and  C3_6 
REMARK    3  A    between atoms: N6_13  and  N7_14 
REMARK    4  A    between atoms: C5_17  and  N8_18 
REMARK    5  A    between atoms: N8_18  and  C6_20 
REMARK    6  A    between atoms: C6_20  and  O1_21 
REMARK    7  A    between atoms: C6_20  and  O2_23 
REMARK    8  A    between atoms: C7_25  and  N9_26 
REMARK    9  A    between atoms: N9_26  and  C8_28 
REMARK   10  A    between atoms: C8_28  and  N10_29 
REMARK   11  A    between atoms: C8_28  and  C9_33 
REMARK   12  A    between atoms: C9_33  and  C10_34 
REMARK   13  A    between atoms: C10_34  and  O3_37 
ROOT
HETATM    1  C1  UNL     1      23.590 -14.073  43.533  1.00  0.00     0.163 C 
HETATM    2  N1  UNL     1      24.509 -14.939  44.296  1.00  0.00    -0.288 N 
HETATM    3  C2  UNL     1      24.579 -16.263  44.160  1.00  0.00     0.143 A 
HETATM    4  C5  UNL     1      25.336 -17.065  45.027  1.00  0.00     0.121 A 
HETATM    5  C7  UNL     1      26.047 -16.461  46.047  1.00  0.00     0.137 A 
HETATM    6  N11 UNL     1      25.942 -15.086  46.135  1.00  0.00    -0.292 N 
ATOM      7  H11 UNL     1      26.452 -14.606  46.877  1.00  0.00     0.172 HD
HETATM    8  C13 UNL     1      25.208 -14.361  45.301  1.00  0.00     0.329 A 
HETATM    9  O4  UNL     1      25.129 -13.095  45.409  1.00  0.00    -0.246 OA
ENDROOT
BRANCH   3  10
HETATM   10  N2  UNL     1      24.103 -16.881  42.995  1.00  0.00    -0.321 N 
ATOM     11  H2  UNL     1      23.256 -17.435  43.121  1.00  0.00     0.169 HD
BRANCH  10  12
HETATM   12  C3  UNL     1      24.606 -16.860  41.674  1.00  0.00     0.190 A 
HETATM   13  C4  UNL     1      23.791 -16.462  40.589  1.00  0.00     0.180 A 
HETATM   14  N3  UNL     1      22.479 -15.935  40.676  1.00  0.00    -0.077 NA
HETATM   15  N4  UNL     1      24.531 -16.694  39.497  1.00  0.00    -0.268 N 
HETATM   16  N5  UNL     1      25.695 -17.189  39.833  1.00  0.00    -0.219 N 
ATOM     17  H4  UNL     1      24.230 -16.511  38.539  1.00  0.00     0.190 HD
HETATM   18  N6  UNL     1      25.758 -17.300  41.162  1.00  0.00    -0.168 N 
ATOM     19  H5  UNL     1      26.437 -17.448  39.183  1.00  0.00     0.210 HD
BRANCH  18  20
HETATM   20  N7  UNL     1      26.828 -17.890  41.863  1.00  0.00    -0.321 N 
ATOM     21  H72 UNL     1      27.685 -18.232  41.429  1.00  0.00     0.179 HD
ATOM     22  H71 UNL     1      26.858 -18.123  42.856  1.00  0.00     0.179 HD
ENDBRANCH  18  20
ENDBRANCH  10  12
ENDBRANCH   3  10
BRANCH   4  23
HETATM   23  N8  UNL     1      25.325 -18.506  44.931  1.00  0.00    -0.336 N 
ATOM     24  H8  UNL     1      26.017 -18.993  44.360  1.00  0.00     0.164 HD
BRANCH  23  25
HETATM   25  C6  UNL     1      24.325 -19.242  45.652  1.00  0.00     0.366 C 
BRANCH  25  26
HETATM   26  O1  UNL     1      24.819 -20.150  46.590  1.00  0.00    -0.355 OA
ATOM     27  H1  UNL     1      24.374 -20.144  47.429  1.00  0.00     0.214 HD
ENDBRANCH  25  26
BRANCH  25  28
HETATM   28  O2  UNL     1      23.309 -18.545  46.253  1.00  0.00    -0.355 OA
ATOM     29  H2  UNL     1      22.414 -18.812  46.080  1.00  0.00     0.214 HD
ENDBRANCH  25  28
ENDBRANCH  23  25
ENDBRANCH   4  23
BRANCH   5  30
HETATM   30  N9  UNL     1      26.831 -17.029  46.808  1.00  0.00    -0.347 N 
ATOM     31  H9  UNL     1      27.727 -16.994  46.322  1.00  0.00     0.163 HD
BRANCH  30  32
HETATM   32  C8  UNL     1      27.100 -17.676  47.968  1.00  0.00     0.285 C 
BRANCH  32  33
HETATM   33  N10 UNL     1      28.520 -18.021  48.061  1.00  0.00    -0.058 N 
ATOM     34 3H10 UNL     1      29.074 -17.237  48.404  1.00  0.00     0.276 HD
ATOM     35 2H10 UNL     1      28.697 -18.680  48.819  1.00  0.00     0.276 HD
ATOM     36 1H10 UNL     1      28.872 -18.368  47.169  1.00  0.00     0.276 HD
ENDBRANCH  32  33
BRANCH  32  37
HETATM   37  C9  UNL     1      26.715 -16.810  49.185  1.00  0.00     0.091 C 
BRANCH  37  38
HETATM   38  C10 UNL     1      25.280 -16.956  49.564  1.00  0.00     0.054 C 
HETATM   39  C11 UNL     1      24.429 -15.741  49.371  1.00  0.00     0.045 C 
HETATM   40  C12 UNL     1      25.136 -17.385  51.033  1.00  0.00     0.045 C 
BRANCH  38  41
HETATM   41  O3  UNL     1      24.717 -17.985  48.770  1.00  0.00    -0.391 OA
ATOM     42  H3  UNL     1      24.674 -18.774  49.296  1.00  0.00     0.210 HD
ENDBRANCH  38  41
ENDBRANCH  37  38
ENDBRANCH  32  37
ENDBRANCH  30  32
ENDBRANCH   5  30
TORSDOF 13
ENDMDL
MODEL 2
REMARK VINA RESULT: -6.968584209      1.895      3.352
REMARK  13 active torsions:
REMARK  status: ('A' for Active; 'I' for Inactive)
REMARK    1  A    between atoms: C2_3  and  N2_4 
REMARK    2  A    between atoms: N2_4  and  C3_6 
REMARK    3  A    between atoms: N6_13  and  N7_14 
REMARK    4  A    between atoms: C5_17  and  N8_18 
REMARK    5  A    between atoms: N8_18  and  C6_20 
REMARK    6  A    between atoms: C6_20  and  O1_21 
REMARK    7  A    between atoms: C6_20  and  O2_23 
REMARK    8  A    between atoms: C7_25  and  N9_26 
REMARK    9  A    between atoms: N9_26  and  C8_28 
REMARK   10  A    between atoms: C8_28  and  N10_29 
REMARK   11  A    between atoms: C8_28  and  C9_33 
REMARK   12  A    between atoms: C9_33  and  C10_34 
REMARK   13  A    between atoms: C10_34  and  O3_37 
ROOT
HETATM    1  C1  UNL     1      27.099 -16.925  42.085  1.00  0.00     0.163 C 
HETATM    2  N1  UNL     1      26.570 -16.385  43.351  1.00  0.00    -0.288 N 
HETATM    3  C2  UNL     1      25.274 -16.216  43.612  1.00  0.00     0.143 A 
HETATM    4  C5  UNL     1      24.822 -15.537  44.753  1.00  0.00     0.121 A 
HETATM    5  C7  UNL     1      25.752 -15.039  45.646  1.00  0.00     0.137 A 
HETATM    6  N11 UNL     1      27.080 -15.248  45.327  1.00  0.00    -0.292 N 
ATOM      7  H11 UNL     1      27.794 -14.893  45.963  1.00  0.00     0.172 HD
HETATM    8  C13 UNL     1      27.470 -15.889  44.233  1.00  0.00     0.329 A 
HETATM    9  O4  UNL     1      28.702 -16.065  43.965  1.00  0.00    -0.246 OA
ENDROOT
BRANCH   3  10
HETATM   10  N2  UNL     1      24.308 -16.931  42.888  1.00  0.00    -0.321 N 
ATOM     11  H2  UNL     1      24.096 -17.857  43.258  1.00  0.00     0.169 HD
BRANCH  10  12
HETATM   12  C3  UNL     1      23.581 -16.576  41.728  1.00  0.00     0.190 A 
HETATM   13  C4  UNL     1      22.206 -16.258  41.798  1.00  0.00     0.180 A 
HETATM   14  N3  UNL     1      21.435 -16.130  42.980  1.00  0.00    -0.077 NA
HETATM   15  N4  UNL     1      21.818 -16.112  40.525  1.00  0.00    -0.268 N 
HETATM   16  N5  UNL     1      22.828 -16.314  39.717  1.00  0.00    -0.219 N 
ATOM     17  H4  UNL     1      20.871 -15.878  40.227  1.00  0.00     0.190 HD
HETATM   18  N6  UNL     1      23.915 -16.602  40.435  1.00  0.00    -0.168 N 
ATOM     19  H5  UNL     1      22.790 -16.260  38.699  1.00  0.00     0.210 HD
BRANCH  18  20
HETATM   20  N7  UNL     1      25.158 -16.974  39.888  1.00  0.00    -0.321 N 
ATOM     21  H72 UNL     1      26.003 -16.403  39.930  1.00  0.00     0.179 HD
ATOM     22  H71 UNL     1      25.358 -17.799  39.322  1.00  0.00     0.179 HD
ENDBRANCH  18  20
ENDBRANCH  10  12
ENDBRANCH   3  10
BRANCH   4  23
HETATM   23  N8  UNL     1      23.419 -15.275  44.975  1.00  0.00    -0.336 N 
ATOM     24  H8  UNL     1      22.753 -16.045  45.047  1.00  0.00     0.164 HD
BRANCH  23  25
HETATM   25  C6  UNL     1      22.978 -13.914  45.092  1.00  0.00     0.366 C 
BRANCH  25  26
HETATM   26  O1  UNL     1      22.050 -13.507  44.133  1.00  0.00    -0.355 OA
ATOM     27  H1  UNL     1      22.417 -13.290  43.284  1.00  0.00     0.214 HD
ENDBRANCH  25  26
BRANCH  25  28
HETATM   28  O2  UNL     1      22.524 -13.478  46.311  1.00  0.00    -0.355 OA
ATOM     29  H2  UNL     1      21.645 -13.719  46.578  1.00  0.00     0.214 HD
ENDBRANCH  25  28
ENDBRANCH  23  25
ENDBRANCH   4  23
BRANCH   5  30
HETATM   30  N9  UNL     1      25.495 -14.520  46.733  1.00  0.00    -0.347 N 
ATOM     31  H9  UNL     1      25.302 -13.543  46.509  1.00  0.00     0.163 HD
BRANCH  30  32
HETATM   32  C8  UNL     1      25.341 -14.595  48.077  1.00  0.00     0.285 C 
BRANCH  32  33
HETATM   33  N10 UNL     1      24.829 -13.336  48.620  1.00  0.00    -0.058 N 
ATOM     34 3H10 UNL     1      24.235 -13.492  49.434  1.00  0.00     0.276 HD
ATOM     35 2H10 UNL     1      25.568 -12.793  49.067  1.00  0.00     0.276 HD
ATOM     36 1H10 UNL     1      24.347 -12.796  47.901  1.00  0.00     0.276 HD
ENDBRANCH  32  33
BRANCH  32  37
HETATM   37  C9  UNL     1      24.371 -15.734  48.457  1.00  0.00     0.091 C 
BRANCH  37  38
HETATM   38  C10 UNL     1      25.073 -16.919  49.030  1.00  0.00     0.054 C 
HETATM   39  C11 UNL     1      24.785 -17.215  50.468  1.00  0.00     0.045 C 
HETATM   40  C12 UNL     1      26.597 -16.781  48.890  1.00  0.00     0.045 C 
BRANCH  38  41
HETATM   41  O3  UNL     1      24.685 -18.061  48.288  1.00  0.00    -0.391 OA
ATOM     42  H3  UNL     1      23.739 -18.127  48.320  1.00  0.00     0.210 HD
ENDBRANCH  38  41
ENDBRANCH  37  38
ENDBRANCH  32  37
ENDBRANCH  30  32
ENDBRANCH   5  30
TORSDOF 13
ENDMDL
MODEL 3
REMARK VINA RESULT: -6.791682286      2.831      5.699
REMARK  13 active torsions:
REMARK  status: ('A' for Active; 'I' for Inactive)
REMARK    1  A    between atoms: C2_3  and  N2_4 
REMARK    2  A    between atoms: N2_4  and  C3_6 
REMARK    3  A    between atoms: N6_13  and  N7_14 
REMARK    4  A    between atoms: C5_17  and  N8_18 
REMARK    5  A    between atoms: N8_18  and  C6_20 
REMARK    6  A    between atoms: C6_20  and  O1_21 
REMARK    7  A    between atoms: C6_20  and  O2_23 
REMARK    8  A    between atoms: C7_25  and  N9_26 
REMARK    9  A    between atoms: N9_26  and  C8_28 
REMARK   10  A    between atoms: C8_28  and  N10_29 
REMARK   11  A    between atoms: C8_28  and  C9_33 
REMARK   12  A    between atoms: C9_33  and  C10_34 
REMARK   13  A    between atoms: C10_34  and  O3_37 
ROOT
HETATM    1  C1  UNL     1      29.757 -15.679  44.398  1.00  0.00     0.163 C 
HETATM    2  N1  UNL     1      28.338 -15.665  43.994  1.00  0.00    -0.288 N 
HETATM    3  C2  UNL     1      27.538 -16.730  44.025  1.00  0.00     0.143 A 
HETATM    4  C5  UNL     1      26.251 -16.716  43.467  1.00  0.00     0.121 A 
HETATM    5  C7  UNL     1      25.790 -15.553  42.880  1.00  0.00     0.137 A 
HETATM    6  N11 UNL     1      26.660 -14.480  42.883  1.00  0.00    -0.292 N 
ATOM      7  H11 UNL     1      26.354 -13.605  42.457  1.00  0.00     0.172 HD
HETATM    8  C13 UNL     1      27.874 -14.533  43.413  1.00  0.00     0.329 A 
HETATM    9  O4  UNL     1      28.655 -13.527  43.399  1.00  0.00    -0.246 OA
ENDROOT
BRANCH   3  10
HETATM   10  N2  UNL     1      27.854 -17.829  44.839  1.00  0.00    -0.321 N 
ATOM     11  H2  UNL     1      28.028 -18.698  44.334  1.00  0.00     0.169 HD
BRANCH  10  12
HETATM   12  C3  UNL     1      27.968 -17.927  46.244  1.00  0.00     0.190 A 
HETATM   13  C4  UNL     1      26.869 -17.642  47.087  1.00  0.00     0.180 A 
HETATM   14  N3  UNL     1      25.545 -17.360  46.670  1.00  0.00    -0.077 NA
HETATM   15  N4  UNL     1      27.363 -17.698  48.331  1.00  0.00    -0.268 N 
HETATM   16  N5  UNL     1      28.639 -17.986  48.300  1.00  0.00    -0.219 N 
ATOM     17  H4  UNL     1      26.821 -17.539  49.180  1.00  0.00     0.190 HD
HETATM   18  N6  UNL     1      29.028 -18.127  47.031  1.00  0.00    -0.168 N 
ATOM     19  H5  UNL     1      29.242 -18.087  49.117  1.00  0.00     0.210 HD
BRANCH  18  20
HETATM   20  N7  UNL     1      30.359 -18.340  46.623  1.00  0.00    -0.321 N 
ATOM     21  H72 UNL     1      30.753 -18.013  45.741  1.00  0.00     0.179 HD
ATOM     22  H71 UNL     1      31.065 -18.902  47.100  1.00  0.00     0.179 HD
ENDBRANCH  18  20
ENDBRANCH  10  12
ENDBRANCH   3  10
BRANCH   4  23
HETATM   23  N8  UNL     1      25.432 -17.905  43.419  1.00  0.00    -0.336 N 
ATOM     24  H8  UNL     1      24.928 -18.222  44.248  1.00  0.00     0.164 HD
BRANCH  23  25
HETATM   25  C6  UNL     1      25.337 -18.632  42.185  1.00  0.00     0.366 C 
BRANCH  25  26
HETATM   26  O1  UNL     1      25.297 -20.021  42.317  1.00  0.00    -0.355 OA
ATOM     27  H1  UNL     1      25.510 -20.508  41.530  1.00  0.00     0.214 HD
ENDBRANCH  25  26
BRANCH  25  28
HETATM   28  O2  UNL     1      24.359 -18.278  41.291  1.00  0.00    -0.355 OA
ATOM     29  H2  UNL     1      24.238 -17.356  41.096  1.00  0.00     0.214 HD
ENDBRANCH  25  28
ENDBRANCH  23  25
ENDBRANCH   4  23
BRANCH   5  30
HETATM   30  N9  UNL     1      24.650 -15.370  42.450  1.00  0.00    -0.347 N 
ATOM     31  H9  UNL     1      24.755 -15.388  41.436  1.00  0.00     0.163 HD
BRANCH  30  32
HETATM   32  C8  UNL     1      23.327 -15.157  42.650  1.00  0.00     0.285 C 
BRANCH  32  33
HETATM   33  N10 UNL     1      22.529 -15.767  41.585  1.00  0.00    -0.058 N 
ATOM     34 3H10 UNL     1      22.750 -16.756  41.470  1.00  0.00     0.276 HD
ATOM     35 2H10 UNL     1      21.549 -15.856  41.855  1.00  0.00     0.276 HD
ATOM     36 1H10 UNL     1      22.634 -15.255  40.709  1.00  0.00     0.276 HD
ENDBRANCH  32  33
BRANCH  32  37
HETATM   37  C9  UNL     1      22.874 -15.734  44.007  1.00  0.00     0.091 C 
BRANCH  37  38
HETATM   38  C10 UNL     1      22.827 -14.703  45.084  1.00  0.00     0.054 C 
HETATM   39  C11 UNL     1      24.150 -14.188  45.552  1.00  0.00     0.045 C 
HETATM   40  C12 UNL     1      22.079 -15.228  46.320  1.00  0.00     0.045 C 
BRANCH  38  41
HETATM   41  O3  UNL     1      22.100 -13.590  44.596  1.00  0.00    -0.391 OA
ATOM     42  H3  UNL     1      21.181 -13.728  44.793  1.00  0.00     0.210 HD
ENDBRANCH  38  41
ENDBRANCH  37  38
ENDBRANCH  32  37
ENDBRANCH  30  32
ENDBRANCH   5  30
TORSDOF 13
ENDMDL
MODEL 4
REMARK VINA RESULT: -6.676190192      2.364      6.535
REMARK  13 active torsions:
REMARK  status: ('A' for Active; 'I' for Inactive)
REMARK    1  A    between atoms: C2_3  and  N2_4 
REMARK    2  A    between atoms: N2_4  and  C3_6 
REMARK    3  A    between atoms: N6_13  and  N7_14 
REMARK    4  A    between atoms: C5_17  and  N8_18 
REMARK    5  A    between atoms: N8_18  and  C6_20 
REMARK    6  A    between atoms: C6_20  and  O1_21 
REMARK    7  A    between atoms: C6_20  and  O2_23 
REMARK    8  A    between atoms: C7_25  and  N9_26 
REMARK    9  A    between atoms: N9_26  and  C8_28 
REMARK   10  A    between atoms: C8_28  and  N10_29 
REMARK   11  A    between atoms: C8_28  and  C9_33 
REMARK   12  A    between atoms: C9_33  and  C10_34 
REMARK   13  A    between atoms: C10_34  and  O3_37 
ROOT
HETATM    1  C1  UNL     1      27.976 -13.926  46.694  1.00  0.00     0.163 C 
HETATM    2  N1  UNL     1      27.463 -15.054  45.893  1.00  0.00    -0.288 N 
HETATM    3  C2  UNL     1      26.914 -16.153  46.410  1.00  0.00     0.143 A 
HETATM    4  C5  UNL     1      26.603 -17.274  45.626  1.00  0.00     0.121 A 
HETATM    5  C7  UNL     1      26.859 -17.232  44.269  1.00  0.00     0.137 A 
HETATM    6  N11 UNL     1      27.422 -16.065  43.788  1.00  0.00    -0.292 N 
ATOM      7  H11 UNL     1      27.626 -15.999  42.790  1.00  0.00     0.172 HD
HETATM    8  C13 UNL     1      27.711 -15.028  44.562  1.00  0.00     0.329 A 
HETATM    9  O4  UNL     1      28.232 -13.966  44.090  1.00  0.00    -0.246 OA
ENDROOT
BRANCH   3  10
HETATM   10  N2  UNL     1      26.393 -16.138  47.713  1.00  0.00    -0.321 N 
ATOM     11  H2  UNL     1      25.561 -15.561  47.833  1.00  0.00     0.169 HD
BRANCH  10  12
HETATM   12  C3  UNL     1      26.834 -16.792  48.885  1.00  0.00     0.190 A 
HETATM   13  C4  UNL     1      25.914 -17.250  49.855  1.00  0.00     0.180 A 
HETATM   14  N3  UNL     1      24.502 -17.238  49.741  1.00  0.00    -0.077 NA
HETATM   15  N4  UNL     1      26.669 -17.682  50.873  1.00  0.00    -0.268 N 
HETATM   16  N5  UNL     1      27.939 -17.522  50.597  1.00  0.00    -0.219 N 
ATOM     17  H4  UNL     1      26.307 -18.079  51.741  1.00  0.00     0.190 HD
HETATM   18  N6  UNL     1      28.059 -16.976  49.385  1.00  0.00    -0.168 N 
ATOM     19  H5  UNL     1      28.713 -17.775  51.211  1.00  0.00     0.210 HD
BRANCH  18  20
HETATM   20  N7  UNL     1      29.280 -16.572  48.810  1.00  0.00    -0.321 N 
ATOM     21  H72 UNL     1      29.458 -15.644  48.425  1.00  0.00     0.179 HD
ATOM     22  H71 UNL     1      30.097 -17.155  48.630  1.00  0.00     0.179 HD
ENDBRANCH  18  20
ENDBRANCH  10  12
ENDBRANCH   3  10
BRANCH   4  23
HETATM   23  N8  UNL     1      26.100 -18.494  46.213  1.00  0.00    -0.336 N 
ATOM     24  H8  UNL     1      26.739 -19.164  46.643  1.00  0.00     0.164 HD
BRANCH  23  25
HETATM   25  C6  UNL     1      24.688 -18.749  46.181  1.00  0.00     0.366 C 
BRANCH  25  26
HETATM   26  O1  UNL     1      24.321 -20.081  46.378  1.00  0.00    -0.355 OA
ATOM     27  H1  UNL     1      23.579 -20.213  46.957  1.00  0.00     0.214 HD
ENDBRANCH  25  26
BRANCH  25  28
HETATM   28  O2  UNL     1      23.868 -17.978  46.965  1.00  0.00    -0.355 OA
ATOM     29  H2  UNL     1      22.931 -18.019  46.815  1.00  0.00     0.214 HD
ENDBRANCH  25  28
ENDBRANCH  23  25
ENDBRANCH   4  23
BRANCH   5  30
HETATM   30  N9  UNL     1      26.540 -18.097  43.452  1.00  0.00    -0.347 N 
ATOM     31  H9  UNL     1      27.152 -18.884  43.663  1.00  0.00     0.163 HD
BRANCH  30  32
HETATM   32  C8  UNL     1      25.782 -18.527  42.414  1.00  0.00     0.285 C 
BRANCH  32  33
HETATM   33  N10 UNL     1      25.514 -19.961  42.517  1.00  0.00    -0.058 N 
ATOM     34 3H10 UNL     1      25.788 -20.457  41.669  1.00  0.00     0.276 HD
ATOM     35 2H10 UNL     1      26.147 -20.416  43.175  1.00  0.00     0.276 HD
ATOM     36 1H10 UNL     1      24.537 -20.135  42.754  1.00  0.00     0.276 HD
ENDBRANCH  32  33
BRANCH  32  37
HETATM   37  C9  UNL     1      24.439 -17.769  42.360  1.00  0.00     0.091 C 
BRANCH  37  38
HETATM   38  C10 UNL     1      24.438 -16.671  41.351  1.00  0.00     0.054 C 
HETATM   39  C11 UNL     1      23.101 -16.300  40.794  1.00  0.00     0.045 C 
HETATM   40  C12 UNL     1      25.348 -17.013  40.161  1.00  0.00     0.045 C 
BRANCH  38  41
HETATM   41  O3  UNL     1      24.967 -15.509  41.964  1.00  0.00    -0.391 OA
ATOM     42  H3  UNL     1      25.461 -15.029  41.310  1.00  0.00     0.210 HD
ENDBRANCH  38  41
ENDBRANCH  37  38
ENDBRANCH  32  37
ENDBRANCH  30  32
ENDBRANCH   5  30
TORSDOF 13
ENDMDL
MODEL 5
REMARK VINA RESULT: -6.675265674      1.536      2.532
REMARK  13 active torsions:
REMARK  status: ('A' for Active; 'I' for Inactive)
REMARK    1  A    between atoms: C2_3  and  N2_4 
REMARK    2  A    between atoms: N2_4  and  C3_6 
REMARK    3  A    between atoms: N6_13  and  N7_14 
REMARK    4  A    between atoms: C5_17  and  N8_18 
REMARK    5  A    between atoms: N8_18  and  C6_20 
REMARK    6  A    between atoms: C6_20  and  O1_21 
REMARK    7  A    between atoms: C6_20  and  O2_23 
REMARK    8  A    between atoms: C7_25  and  N9_26 
REMARK    9  A    between atoms: N9_26  and  C8_28 
REMARK   10  A    between atoms: C8_28  and  N10_29 
REMARK   11  A    between atoms: C8_28  and  C9_33 
REMARK   12  A    between atoms: C9_33  and  C10_34 
REMARK   13  A    between atoms: C10_34  and  O3_37 
ROOT
HETATM    1  C1  UNL     1      21.950 -15.537  42.611  1.00  0.00     0.163 C 
HETATM    2  N1  UNL     1      22.912 -15.541  43.729  1.00  0.00    -0.288 N 
HETATM    3  C2  UNL     1      23.710 -16.566  44.028  1.00  0.00     0.143 A 
HETATM    4  C5  UNL     1      24.479 -16.598  45.201  1.00  0.00     0.121 A 
HETATM    5  C7  UNL     1      24.422 -15.523  46.068  1.00  0.00     0.137 A 
HETATM    6  N11 UNL     1      23.584 -14.487  45.703  1.00  0.00    -0.292 N 
ATOM      7  H11 UNL     1      23.515 -13.677  46.319  1.00  0.00     0.172 HD
HETATM    8  C13 UNL     1      22.864 -14.496  44.588  1.00  0.00     0.329 A 
HETATM    9  O4  UNL     1      22.098 -13.527  44.280  1.00  0.00    -0.246 OA
ENDROOT
BRANCH   3  10
HETATM   10  N2  UNL     1      24.004 -17.539  43.062  1.00  0.00    -0.321 N 
ATOM     11  H2  UNL     1      23.552 -18.441  43.212  1.00  0.00     0.169 HD
BRANCH  10  12
HETATM   12  C3  UNL     1      24.826 -17.473  41.914  1.00  0.00     0.190 A 
HETATM   13  C4  UNL     1      26.220 -17.691  42.001  1.00  0.00     0.180 A 
HETATM   14  N3  UNL     1      26.932 -18.108  43.154  1.00  0.00    -0.077 NA
HETATM   15  N4  UNL     1      26.691 -17.418  40.778  1.00  0.00    -0.268 N 
HETATM   16  N5  UNL     1      25.714 -17.061  39.984  1.00  0.00    -0.219 N 
ATOM     17  H4  UNL     1      27.672 -17.479  40.504  1.00  0.00     0.190 HD
HETATM   18  N6  UNL     1      24.565 -17.086  40.662  1.00  0.00    -0.168 N 
ATOM     19  H5  UNL     1      25.815 -16.804  39.002  1.00  0.00     0.210 HD
BRANCH  18  20
HETATM   20  N7  UNL     1      23.324 -16.663  40.147  1.00  0.00    -0.321 N 
ATOM     21  H72 UNL     1      22.944 -15.723  40.256  1.00  0.00     0.179 HD
ATOM     22  H71 UNL     1      22.623 -17.240  39.681  1.00  0.00     0.179 HD
ENDBRANCH  18  20
ENDBRANCH  10  12
ENDBRANCH   3  10
BRANCH   4  23
HETATM   23  N8  UNL     1      25.263 -17.756  45.563  1.00  0.00    -0.336 N 
ATOM     24  H8  UNL     1      26.256 -17.663  45.780  1.00  0.00     0.164 HD
BRANCH  23  25
HETATM   25  C6  UNL     1      24.622 -19.040  45.612  1.00  0.00     0.366 C 
BRANCH  25  26
HETATM   26  O1  UNL     1      24.900 -19.882  44.534  1.00  0.00    -0.355 OA
ATOM     27  H1  UNL     1      25.819 -19.950  44.303  1.00  0.00     0.214 HD
ENDBRANCH  25  26
BRANCH  25  28
HETATM   28  O2  UNL     1      24.742 -19.786  46.756  1.00  0.00    -0.355 OA
ATOM     29  H2  UNL     1      25.063 -20.676  46.683  1.00  0.00     0.214 HD
ENDBRANCH  25  28
ENDBRANCH  23  25
ENDBRANCH   4  23
BRANCH   5  30
HETATM   30  N9  UNL     1      25.120 -15.373  47.071  1.00  0.00    -0.347 N 
ATOM     31  H9  UNL     1      25.991 -15.856  46.849  1.00  0.00     0.163 HD
BRANCH  30  32
HETATM   32  C8  UNL     1      25.312 -14.888  48.321  1.00  0.00     0.285 C 
BRANCH  32  33
HETATM   33  N10 UNL     1      24.991 -13.461  48.388  1.00  0.00    -0.058 N 
ATOM     34 3H10 UNL     1      25.263 -13.057  49.283  1.00  0.00     0.276 HD
ATOM     35 2H10 UNL     1      25.597 -12.912  47.778  1.00  0.00     0.276 HD
ATOM     36 1H10 UNL     1      24.005 -13.298  48.185  1.00  0.00     0.276 HD
ENDBRANCH  32  33
BRANCH  32  37
HETATM   37  C9  UNL     1      24.440 -15.644  49.346  1.00  0.00     0.091 C 
BRANCH  37  38
HETATM   38  C10 UNL     1      24.998 -16.981  49.699  1.00  0.00     0.054 C 
HETATM   39  C11 UNL     1      24.584 -17.529  51.028  1.00  0.00     0.045 C 
HETATM   40  C12 UNL     1      26.535 -16.964  49.673  1.00  0.00     0.045 C 
BRANCH  38  41
HETATM   41  O3  UNL     1      24.572 -17.909  48.719  1.00  0.00    -0.391 OA
ATOM     42  H3  UNL     1      24.160 -18.641  49.163  1.00  0.00     0.210 HD
ENDBRANCH  38  41
ENDBRANCH  37  38
ENDBRANCH  32  37
ENDBRANCH  30  32
ENDBRANCH   5  30
TORSDOF 13
ENDMDL
