MODEL 1
REMARK VINA RESULT: -6.631995611      0.000      0.000
REMARK  11 active torsions:
REMARK  status: ('A' for Active; 'I' for Inactive)
REMARK    1  A    between atoms: C3_8  and  N4_9 
REMARK       I    between atoms: N4_9  and  C4_11 
REMARK       I    between atoms: C4_11  and  N5_12 
REMARK       I    between atoms: C4_11  and  N6_16 
REMARK    2  A    between atoms: C5_20  and  N7_21 
REMARK    3  A    between atoms: N7_21  and  C6_23 
REMARK    4  A    between atoms: C6_23  and  C7_24 
REMARK    5  A    between atoms: C8_29  and  S1_30 
REMARK    6  A    between atoms: S1_30  and  C9_31 
REMARK    7  A    between atoms: C9_31  and  C10_32 
REMARK    8  A    between atoms: C11_35  and  O1_36 
REMARK    9  A    between atoms: C11_35  and  C12_38 
REMARK   10  A    between atoms: C12_38  and  O2_39 
REMARK   11  A    between atoms: N11_41  and  N12_42 
ROOT
HETATM    1  N7  UNL     1      22.375 -16.541  43.917  1.00  0.00    -0.377 N 
ATOM      2  H7  UNL     1      21.763 -16.890  43.179  1.00  0.00     0.160 HD
ENDROOT
BRANCH   1   3
HETATM    3  C5  UNL     1      23.449 -15.733  43.522  1.00  0.00     0.114 A 
HETATM    4  C1  UNL     1      23.274 -14.355  43.578  1.00  0.00     0.147 A 
HETATM    5  N1  UNL     1      22.056 -13.762  44.006  1.00  0.00    -0.080 NA
HETATM    6  N2  UNL     1      24.299 -13.574  43.212  1.00  0.00    -0.339 N 
HETATM    7  C2  UNL     1      25.476 -14.067  42.798  1.00  0.00     0.183 A 
ATOM      8  H2  UNL     1      24.180 -12.562  43.251  1.00  0.00     0.167 HD
HETATM    9  N3  UNL     1      25.677 -15.393  42.733  1.00  0.00    -0.337 N 
HETATM   10  C3  UNL     1      24.676 -16.216  43.091  1.00  0.00     0.135 A 
ATOM     11  H3  UNL     1      26.571 -15.768  42.418  1.00  0.00     0.168 HD
BRANCH  10  12
HETATM   12  N4  UNL     1      24.870 -17.498  43.039  1.00  0.00    -0.325 N 
HETATM   13  C4  UNL     1      25.440 -18.133  41.896  1.00  0.00     0.481 C 
HETATM   14  N5  UNL     1      25.251 -19.583  42.090  1.00  0.00    -0.033 N 
HETATM   15  N6  UNL     1      26.873 -17.935  41.770  1.00  0.00    -0.033 N 
ATOM     16  H53 UNL     1      25.627 -19.926  42.974  1.00  0.00     0.278 HD
ATOM     17  H52 UNL     1      24.280 -19.846  42.257  1.00  0.00     0.278 HD
ATOM     18  H51 UNL     1      25.659 -20.037  41.273  1.00  0.00     0.278 HD
ATOM     19  H63 UNL     1      27.101 -16.940  41.779  1.00  0.00     0.278 HD
ATOM     20  H62 UNL     1      27.353 -18.229  42.621  1.00  0.00     0.278 HD
ATOM     21  H61 UNL     1      27.281 -18.389  40.953  1.00  0.00     0.278 HD
ATOM     22  H4  UNL     1      24.605 -18.070  43.841  1.00  0.00     0.165 HD
ENDBRANCH  10  12
ENDBRANCH   1   3
BRANCH   1  23
HETATM   23  C6  UNL     1      22.055 -16.925  45.265  1.00  0.00     0.199 C 
BRANCH  23  24
HETATM   24  C7  UNL     1      23.205 -17.394  46.068  1.00  0.00     0.137 A 
HETATM   25  N8  UNL     1      23.759 -18.609  46.103  1.00  0.00    -0.284 N 
HETATM   26  N9  UNL     1      24.783 -18.628  46.952  1.00  0.00    -0.277 N 
ATOM     27  H8  UNL     1      23.441 -19.409  45.557  1.00  0.00     0.188 HD
HETATM   28  C8  UNL     1      24.880 -17.406  47.464  1.00  0.00     0.186 A 
ATOM     29  H9  UNL     1      25.379 -19.427  47.168  1.00  0.00     0.189 HD
HETATM   30  N11 UNL     1      23.909 -16.635  46.924  1.00  0.00    -0.223 N 
BRANCH  28  31
HETATM   31  S1  UNL     1      26.077 -16.870  48.653  1.00  0.00    -0.060 SA
BRANCH  31  32
HETATM   32  C9  UNL     1      27.737 -17.236  48.158  1.00  0.00     0.083 C 
BRANCH  32  33
HETATM   33  C10 UNL     1      28.125 -17.394  46.914  1.00  0.00     0.072 A 
HETATM   34  N10 UNL     1      29.168 -18.015  46.081  1.00  0.00    -0.351 N 
HETATM   35  C11 UNL     1      28.095 -17.257  45.443  1.00  0.00     0.198 A 
ATOM     36  H10 UNL     1      30.020 -18.571  46.004  1.00  0.00     0.163 HD
BRANCH  35  37
HETATM   37  O1  UNL     1      27.160 -18.034  44.771  1.00  0.00    -0.364 OA
ATOM     38  H1  UNL     1      27.500 -18.620  44.104  1.00  0.00     0.213 HD
ENDBRANCH  35  37
BRANCH  35  39
HETATM   39  C12 UNL     1      28.585 -15.980  44.800  1.00  0.00     0.232 C 
BRANCH  39  40
HETATM   40  O2  UNL     1      28.492 -16.054  43.407  1.00  0.00    -0.396 OA
ATOM     41  H2  UNL     1      28.340 -15.195  43.031  1.00  0.00     0.209 HD
ENDBRANCH  39  40
ENDBRANCH  35  39
ENDBRANCH  32  33
ENDBRANCH  31  32
ENDBRANCH  28  31
BRANCH  30  42
HETATM   42  N12 UNL     1      23.660 -15.289  47.189  1.00  0.00    -0.335 N 
ATOM     43 2H12 UNL     1      23.634 -14.524  46.515  1.00  0.00     0.177 HD
ATOM     44 1H12 UNL     1      23.470 -14.901  48.114  1.00  0.00     0.177 HD
ENDBRANCH  30  42
ENDBRANCH  23  24
ENDBRANCH   1  23
TORSDOF 11
ENDMDL
MODEL 2
REMARK VINA RESULT: -6.502169464      2.638      4.952
REMARK  11 active torsions:
REMARK  status: ('A' for Active; 'I' for Inactive)
REMARK    1  A    between atoms: C3_8  and  N4_9 
REMARK       I    between atoms: N4_9  and  C4_11 
REMARK       I    between atoms: C4_11  and  N5_12 
REMARK       I    between atoms: C4_11  and  N6_16 
REMARK    2  A    between atoms: C5_20  and  N7_21 
REMARK    3  A    between atoms: N7_21  and  C6_23 
REMARK    4  A    between atoms: C6_23  and  C7_24 
REMARK    5  A    between atoms: C8_29  and  S1_30 
REMARK    6  A    between atoms: S1_30  and  C9_31 
REMARK    7  A    between atoms: C9_31  and  C10_32 
REMARK    8  A    between atoms: C11_35  and  O1_36 
REMARK    9  A    between atoms: C11_35  and  C12_38 
REMARK   10  A    between atoms: C12_38  and  O2_39 
REMARK   11  A    between atoms: N11_41  and  N12_42 
ROOT
HETATM    1  N7  UNL     1      24.593 -15.057  46.807  1.00  0.00    -0.377 N 
ATOM      2  H7  UNL     1      24.482 -15.540  47.698  1.00  0.00     0.160 HD
ENDROOT
BRANCH   1   3
HETATM    3  C5  UNL     1      25.851 -15.132  46.196  1.00  0.00     0.114 A 
HETATM    4  C1  UNL     1      26.730 -14.074  46.395  1.00  0.00     0.147 A 
HETATM    5  N1  UNL     1      26.385 -12.940  47.179  1.00  0.00    -0.080 NA
HETATM    6  N2  UNL     1      27.939 -14.142  45.823  1.00  0.00    -0.339 N 
HETATM    7  C2  UNL     1      28.329 -15.182  45.071  1.00  0.00     0.183 A 
ATOM      8  H2  UNL     1      28.590 -13.370  45.965  1.00  0.00     0.167 HD
HETATM    9  N3  UNL     1      27.504 -16.219  44.859  1.00  0.00    -0.337 N 
HETATM   10  C3  UNL     1      26.280 -16.195  45.414  1.00  0.00     0.135 A 
ATOM     11  H3  UNL     1      27.800 -17.010  44.288  1.00  0.00     0.168 HD
BRANCH  10  12
HETATM   12  N4  UNL     1      25.483 -17.201  45.220  1.00  0.00    -0.325 N 
HETATM   13  C4  UNL     1      25.644 -18.439  45.910  1.00  0.00     0.481 C 
HETATM   14  N5  UNL     1      24.749 -19.404  45.243  1.00  0.00    -0.033 N 
HETATM   15  N6  UNL     1      25.216 -18.397  47.297  1.00  0.00    -0.033 N 
ATOM     16  H53 UNL     1      23.780 -19.090  45.194  1.00  0.00     0.278 HD
ATOM     17  H52 UNL     1      24.908 -19.477  44.238  1.00  0.00     0.278 HD
ATOM     18  H51 UNL     1      24.864 -20.289  45.736  1.00  0.00     0.278 HD
ATOM     19  H63 UNL     1      25.689 -17.644  47.796  1.00  0.00     0.278 HD
ATOM     20  H62 UNL     1      24.252 -18.070  47.366  1.00  0.00     0.278 HD
ATOM     21  H61 UNL     1      25.331 -19.283  47.790  1.00  0.00     0.278 HD
ATOM     22  H4  UNL     1      24.718 -17.103  44.553  1.00  0.00     0.165 HD
ENDBRANCH  10  12
ENDBRANCH   1   3
BRANCH   1  23
HETATM   23  C6  UNL     1      23.443 -14.361  46.296  1.00  0.00     0.199 C 
BRANCH  23  24
HETATM   24  C7  UNL     1      23.285 -14.416  44.827  1.00  0.00     0.137 A 
HETATM   25  N8  UNL     1      23.744 -13.564  43.905  1.00  0.00    -0.284 N 
HETATM   26  N9  UNL     1      23.395 -13.966  42.687  1.00  0.00    -0.277 N 
ATOM     27  H8  UNL     1      24.285 -12.724  44.108  1.00  0.00     0.188 HD
HETATM   28  C8  UNL     1      22.704 -15.090  42.837  1.00  0.00     0.186 A 
ATOM     29  H9  UNL     1      23.616 -13.501  41.806  1.00  0.00     0.189 HD
HETATM   30  N11 UNL     1      22.630 -15.378  44.157  1.00  0.00    -0.223 N 
BRANCH  28  31
HETATM   31  S1  UNL     1      21.996 -16.057  41.533  1.00  0.00    -0.060 SA
BRANCH  31  32
HETATM   32  C9  UNL     1      23.186 -16.518  40.306  1.00  0.00     0.083 C 
BRANCH  32  33
HETATM   33  C10 UNL     1      24.440 -16.814  40.559  1.00  0.00     0.072 A 
HETATM   34  N10 UNL     1      25.739 -17.064  39.915  1.00  0.00    -0.351 N 
HETATM   35  C11 UNL     1      25.635 -17.132  41.369  1.00  0.00     0.198 A 
ATOM     36  H10 UNL     1      26.303 -17.137  39.067  1.00  0.00     0.163 HD
BRANCH  35  37
HETATM   37  O1  UNL     1      26.225 -16.069  42.040  1.00  0.00    -0.364 OA
ATOM     38  H1  UNL     1      25.885 -15.204  41.842  1.00  0.00     0.213 HD
ENDBRANCH  35  37
BRANCH  35  39
HETATM   39  C12 UNL     1      25.825 -18.533  41.903  1.00  0.00     0.232 C 
BRANCH  39  40
HETATM   40  O2  UNL     1      26.855 -18.573  42.848  1.00  0.00    -0.396 OA
ATOM     41  H2  UNL     1      27.409 -17.804  42.778  1.00  0.00     0.209 HD
ENDBRANCH  39  40
ENDBRANCH  35  39
ENDBRANCH  32  33
ENDBRANCH  31  32
ENDBRANCH  28  31
BRANCH  30  42
HETATM   42  N12 UNL     1      21.994 -16.470  44.744  1.00  0.00    -0.335 N 
ATOM     43 2H12 UNL     1      21.817 -16.617  45.738  1.00  0.00     0.177 HD
ATOM     44 1H12 UNL     1      21.622 -17.273  44.236  1.00  0.00     0.177 HD
ENDBRANCH  30  42
ENDBRANCH  23  24
ENDBRANCH   1  23
TORSDOF 11
ENDMDL
MODEL 3
REMARK VINA RESULT: -6.498368005      2.560      5.235
REMARK  11 active torsions:
REMARK  status: ('A' for Active; 'I' for Inactive)
REMARK    1  A    between atoms: C3_8  and  N4_9 
REMARK       I    between atoms: N4_9  and  C4_11 
REMARK       I    between atoms: C4_11  and  N5_12 
REMARK       I    between atoms: C4_11  and  N6_16 
REMARK    2  A    between atoms: C5_20  and  N7_21 
REMARK    3  A    between atoms: N7_21  and  C6_23 
REMARK    4  A    between atoms: C6_23  and  C7_24 
REMARK    5  A    between atoms: C8_29  and  S1_30 
REMARK    6  A    between atoms: S1_30  and  C9_31 
REMARK    7  A    between atoms: C9_31  and  C10_32 
REMARK    8  A    between atoms: C11_35  and  O1_36 
REMARK    9  A    between atoms: C11_35  and  C12_38 
REMARK   10  A    between atoms: C12_38  and  O2_39 
REMARK   11  A    between atoms: N11_41  and  N12_42 
ROOT
HETATM    1  N7  UNL     1      25.112 -14.839  46.790  1.00  0.00    -0.377 N 
ATOM      2  H7  UNL     1      25.841 -14.311  47.269  1.00  0.00     0.160 HD
ENDROOT
BRANCH   1   3
HETATM    3  C5  UNL     1      25.329 -16.214  46.624  1.00  0.00     0.114 A 
HETATM    4  C1  UNL     1      24.799 -17.071  47.581  1.00  0.00     0.147 A 
HETATM    5  N1  UNL     1      24.067 -16.595  48.702  1.00  0.00    -0.080 NA
HETATM    6  N2  UNL     1      24.992 -18.387  47.425  1.00  0.00    -0.339 N 
HETATM    7  C2  UNL     1      25.672 -18.904  46.391  1.00  0.00     0.183 A 
ATOM      8  H2  UNL     1      24.605 -19.023  48.122  1.00  0.00     0.167 HD
HETATM    9  N3  UNL     1      26.197 -18.103  45.450  1.00  0.00    -0.337 N 
HETATM   10  C3  UNL     1      26.028 -16.774  45.564  1.00  0.00     0.135 A 
ATOM     11  H3  UNL     1      26.715 -18.495  44.663  1.00  0.00     0.168 HD
BRANCH  10  12
HETATM   12  N4  UNL     1      26.525 -15.998  44.651  1.00  0.00    -0.325 N 
HETATM   13  C4  UNL     1      27.848 -15.471  44.742  1.00  0.00     0.481 C 
HETATM   14  N5  UNL     1      27.956 -14.439  43.693  1.00  0.00    -0.033 N 
HETATM   15  N6  UNL     1      28.886 -16.443  44.448  1.00  0.00    -0.033 N 
ATOM     16  H53 UNL     1      27.719 -14.782  42.762  1.00  0.00     0.278 HD
ATOM     17  H52 UNL     1      27.231 -13.724  43.752  1.00  0.00     0.278 HD
ATOM     18  H51 UNL     1      28.901 -14.063  43.758  1.00  0.00     0.278 HD
ATOM     19  H63 UNL     1      28.786 -17.266  45.042  1.00  0.00     0.278 HD
ATOM     20  H62 UNL     1      28.731 -16.870  43.535  1.00  0.00     0.278 HD
ATOM     21  H61 UNL     1      29.832 -16.066  44.513  1.00  0.00     0.278 HD
ATOM     22  H4  UNL     1      25.952 -15.756  43.843  1.00  0.00     0.165 HD
ENDBRANCH  10  12
ENDBRANCH   1   3
BRANCH   1  23
HETATM   23  C6  UNL     1      23.959 -14.105  46.346  1.00  0.00     0.199 C 
BRANCH  23  24
HETATM   24  C7  UNL     1      23.653 -14.235  44.906  1.00  0.00     0.137 A 
HETATM   25  N8  UNL     1      24.103 -13.496  43.887  1.00  0.00    -0.284 N 
HETATM   26  N9  UNL     1      23.599 -13.935  42.737  1.00  0.00    -0.277 N 
ATOM     27  H8  UNL     1      24.742 -12.707  43.979  1.00  0.00     0.188 HD
HETATM   28  C8  UNL     1      22.817 -14.968  43.031  1.00  0.00     0.186 A 
ATOM     29  H9  UNL     1      23.778 -13.552  41.809  1.00  0.00     0.189 HD
HETATM   30  N11 UNL     1      22.844 -15.162  44.369  1.00  0.00    -0.223 N 
BRANCH  28  31
HETATM   31  S1  UNL     1      21.892 -15.934  41.870  1.00  0.00    -0.060 SA
BRANCH  31  32
HETATM   32  C9  UNL     1      22.894 -16.545  40.544  1.00  0.00     0.083 C 
BRANCH  32  33
HETATM   33  C10 UNL     1      24.186 -16.762  40.626  1.00  0.00     0.072 A 
HETATM   34  N10 UNL     1      25.393 -16.981  39.813  1.00  0.00    -0.351 N 
HETATM   35  C11 UNL     1      25.500 -16.975  41.269  1.00  0.00     0.198 A 
ATOM     36  H10 UNL     1      25.834 -17.071  38.897  1.00  0.00     0.163 HD
BRANCH  35  37
HETATM   37  O1  UNL     1      26.118 -15.848  41.797  1.00  0.00    -0.364 OA
ATOM     38  H1  UNL     1      25.668 -15.419  42.516  1.00  0.00     0.213 HD
ENDBRANCH  35  37
BRANCH  35  39
HETATM   39  C12 UNL     1      25.845 -18.334  41.834  1.00  0.00     0.232 C 
BRANCH  39  40
HETATM   40  O2  UNL     1      27.027 -18.279  42.580  1.00  0.00    -0.396 OA
ATOM     41  H2  UNL     1      27.186 -19.103  43.025  1.00  0.00     0.209 HD
ENDBRANCH  39  40
ENDBRANCH  35  39
ENDBRANCH  32  33
ENDBRANCH  31  32
ENDBRANCH  28  31
BRANCH  30  42
HETATM   42  N12 UNL     1      22.162 -16.142  45.089  1.00  0.00    -0.335 N 
ATOM     43 2H12 UNL     1      21.164 -16.351  45.051  1.00  0.00     0.177 HD
ATOM     44 1H12 UNL     1      22.593 -16.783  45.756  1.00  0.00     0.177 HD
ENDBRANCH  30  42
ENDBRANCH  23  24
ENDBRANCH   1  23
TORSDOF 11
ENDMDL
MODEL 4
REMARK VINA RESULT: -6.461725687      2.801      4.296
REMARK  11 active torsions:
REMARK  status: ('A' for Active; 'I' for Inactive)
REMARK    1  A    between atoms: C3_8  and  N4_9 
REMARK       I    between atoms: N4_9  and  C4_11 
REMARK       I    between atoms: C4_11  and  N5_12 
REMARK       I    between atoms: C4_11  and  N6_16 
REMARK    2  A    between atoms: C5_20  and  N7_21 
REMARK    3  A    between atoms: N7_21  and  C6_23 
REMARK    4  A    between atoms: C6_23  and  C7_24 
REMARK    5  A    between atoms: C8_29  and  S1_30 
REMARK    6  A    between atoms: S1_30  and  C9_31 
REMARK    7  A    between atoms: C9_31  and  C10_32 
REMARK    8  A    between atoms: C11_35  and  O1_36 
REMARK    9  A    between atoms: C11_35  and  C12_38 
REMARK   10  A    between atoms: C12_38  and  O2_39 
REMARK   11  A    between atoms: N11_41  and  N12_42 
ROOT
HETATM    1  N7  UNL     1      25.356 -16.557  45.580  1.00  0.00    -0.377 N 
ATOM      2  H7  UNL     1      24.852 -16.738  46.447  1.00  0.00     0.160 HD
ENDROOT
BRANCH   1   3
HETATM    3  C5  UNL     1      24.608 -16.070  44.499  1.00  0.00     0.114 A 
HETATM    4  C1  UNL     1      24.198 -14.743  44.544  1.00  0.00     0.147 A 
HETATM    5  N1  UNL     1      24.505 -13.891  45.639  1.00  0.00    -0.080 NA
HETATM    6  N2  UNL     1      23.491 -14.266  43.510  1.00  0.00    -0.339 N 
HETATM    7  C2  UNL     1      23.166 -15.015  42.446  1.00  0.00     0.183 A 
ATOM      8  H2  UNL     1      23.187 -13.293  43.535  1.00  0.00     0.167 HD
HETATM    9  N3  UNL     1      23.547 -16.300  42.373  1.00  0.00    -0.337 N 
HETATM   10  C3  UNL     1      24.259 -16.822  43.386  1.00  0.00     0.135 A 
ATOM     11  H3  UNL     1      23.300 -16.870  41.563  1.00  0.00     0.168 HD
BRANCH  10  12
HETATM   12  N4  UNL     1      24.637 -18.061  43.315  1.00  0.00    -0.325 N 
HETATM   13  C4  UNL     1      25.345 -18.573  42.187  1.00  0.00     0.481 C 
HETATM   14  N5  UNL     1      25.358 -20.041  42.338  1.00  0.00    -0.033 N 
HETATM   15  N6  UNL     1      26.739 -18.169  42.136  1.00  0.00    -0.033 N 
ATOM     16  H53 UNL     1      25.740 -20.353  43.231  1.00  0.00     0.278 HD
ATOM     17  H52 UNL     1      24.429 -20.445  42.450  1.00  0.00     0.278 HD
ATOM     18  H51 UNL     1      25.864 -20.407  41.532  1.00  0.00     0.278 HD
ATOM     19  H63 UNL     1      26.820 -17.153  42.180  1.00  0.00     0.278 HD
ATOM     20  H62 UNL     1      27.216 -18.416  43.003  1.00  0.00     0.278 HD
ATOM     21  H61 UNL     1      27.244 -18.535  41.330  1.00  0.00     0.278 HD
ATOM     22  H4  UNL     1      24.422 -18.689  44.089  1.00  0.00     0.165 HD
ENDBRANCH  10  12
ENDBRANCH   1   3
BRANCH   1  23
HETATM   23  C6  UNL     1      26.768 -16.824  45.578  1.00  0.00     0.199 C 
BRANCH  23  24
HETATM   24  C7  UNL     1      27.624 -15.655  45.875  1.00  0.00     0.137 A 
HETATM   25  N8  UNL     1      27.289 -14.503  46.462  1.00  0.00    -0.284 N 
HETATM   26  N9  UNL     1      28.348 -13.704  46.553  1.00  0.00    -0.277 N 
ATOM     27  H8  UNL     1      26.354 -14.269  46.792  1.00  0.00     0.188 HD
HETATM   28  C8  UNL     1      29.371 -14.359  46.016  1.00  0.00     0.186 A 
ATOM     29  H9  UNL     1      28.371 -12.768  46.958  1.00  0.00     0.189 HD
HETATM   30  N11 UNL     1      28.934 -15.567  45.593  1.00  0.00    -0.223 N 
BRANCH  28  31
HETATM   31  S1  UNL     1      31.030 -13.758  45.874  1.00  0.00    -0.060 SA
BRANCH  31  32
HETATM   32  C9  UNL     1      31.312 -12.893  44.355  1.00  0.00     0.083 C 
BRANCH  32  33
HETATM   33  C10 UNL     1      30.734 -13.185  43.213  1.00  0.00     0.072 A 
HETATM   34  N10 UNL     1      30.275 -12.595  41.945  1.00  0.00    -0.351 N 
HETATM   35  C11 UNL     1      30.094 -14.024  42.178  1.00  0.00     0.198 A 
ATOM     36  H10 UNL     1      30.164 -11.779  41.342  1.00  0.00     0.163 HD
BRANCH  35  37
HETATM   37  O1  UNL     1      30.939 -14.841  41.438  1.00  0.00    -0.364 OA
ATOM     38  H1  UNL     1      30.894 -15.772  41.622  1.00  0.00     0.213 HD
ENDBRANCH  35  37
BRANCH  35  39
HETATM   39  C12 UNL     1      28.640 -14.413  42.324  1.00  0.00     0.232 C 
BRANCH  39  40
HETATM   40  O2  UNL     1      28.486 -15.801  42.268  1.00  0.00    -0.396 OA
ATOM     41  H2  UNL     1      28.547 -16.185  43.134  1.00  0.00     0.209 HD
ENDBRANCH  39  40
ENDBRANCH  35  39
ENDBRANCH  32  33
ENDBRANCH  31  32
ENDBRANCH  28  31
BRANCH  30  42
HETATM   42  N12 UNL     1      29.687 -16.563  44.973  1.00  0.00    -0.335 N 
ATOM     43 2H12 UNL     1      30.549 -16.440  44.441  1.00  0.00     0.177 HD
ATOM     44 1H12 UNL     1      29.460 -17.558  44.980  1.00  0.00     0.177 HD
ENDBRANCH  30  42
ENDBRANCH  23  24
ENDBRANCH   1  23
TORSDOF 11
ENDMDL
MODEL 5
REMARK VINA RESULT: -6.436035156      0.764      1.353
REMARK  11 active torsions:
REMARK  status: ('A' for Active; 'I' for Inactive)
REMARK    1  A    between atoms: C3_8  and  N4_9 
REMARK       I    between atoms: N4_9  and  C4_11 
REMARK       I    between atoms: C4_11  and  N5_12 
REMARK       I    between atoms: C4_11  and  N6_16 
REMARK    2  A    between atoms: C5_20  and  N7_21 
REMARK    3  A    between atoms: N7_21  and  C6_23 
REMARK    4  A    between atoms: C6_23  and  C7_24 
REMARK    5  A    between atoms: C8_29  and  S1_30 
REMARK    6  A    between atoms: S1_30  and  C9_31 
REMARK    7  A    between atoms: C9_31  and  C10_32 
REMARK    8  A    between atoms: C11_35  and  O1_36 
REMARK    9  A    between atoms: C11_35  and  C12_38 
REMARK   10  A    between atoms: C12_38  and  O2_39 
REMARK   11  A    between atoms: N11_41  and  N12_42 
ROOT
HETATM    1  N7  UNL     1      22.657 -16.733  44.590  1.00  0.00    -0.377 N 
ATOM      2  H7  UNL     1      21.728 -16.794  44.174  1.00  0.00     0.160 HD
ENDROOT
BRANCH   1   3
HETATM    3  C5  UNL     1      23.586 -15.900  43.953  1.00  0.00     0.114 A 
HETATM    4  C1  UNL     1      23.394 -14.527  44.048  1.00  0.00     0.147 A 
HETATM    5  N1  UNL     1      22.297 -13.962  44.752  1.00  0.00    -0.080 NA
HETATM    6  N2  UNL     1      24.283 -13.723  43.450  1.00  0.00    -0.339 N 
HETATM    7  C2  UNL     1      25.341 -14.189  42.769  1.00  0.00     0.183 A 
ATOM      8  H2  UNL     1      24.150 -12.714  43.515  1.00  0.00     0.167 HD
HETATM    9  N3  UNL     1      25.554 -15.510  42.658  1.00  0.00    -0.337 N 
HETATM   10  C3  UNL     1      24.688 -16.356  43.243  1.00  0.00     0.135 A 
ATOM     11  H3  UNL     1      26.358 -15.865  42.141  1.00  0.00     0.168 HD
BRANCH  10  12
HETATM   12  N4  UNL     1      24.896 -17.633  43.147  1.00  0.00    -0.325 N 
HETATM   13  C4  UNL     1      25.454 -18.224  41.974  1.00  0.00     0.481 C 
HETATM   14  N5  UNL     1      25.286 -19.682  42.126  1.00  0.00    -0.033 N 
HETATM   15  N6  UNL     1      26.882 -18.003  41.829  1.00  0.00    -0.033 N 
ATOM     16  H53 UNL     1      25.683 -20.047  42.991  1.00  0.00     0.278 HD
ATOM     17  H52 UNL     1      24.322 -19.963  42.302  1.00  0.00     0.278 HD
ATOM     18  H51 UNL     1      25.684 -20.104  41.287  1.00  0.00     0.278 HD
ATOM     19  H63 UNL     1      27.097 -17.006  41.865  1.00  0.00     0.278 HD
ATOM     20  H62 UNL     1      27.381 -18.317  42.661  1.00  0.00     0.278 HD
ATOM     21  H61 UNL     1      27.280 -18.426  40.990  1.00  0.00     0.278 HD
ATOM     22  H4  UNL     1      24.654 -18.233  43.935  1.00  0.00     0.165 HD
ENDBRANCH  10  12
ENDBRANCH   1   3
BRANCH   1  23
HETATM   23  C6  UNL     1      22.891 -17.509  45.777  1.00  0.00     0.199 C 
BRANCH  23  24
HETATM   24  C7  UNL     1      23.846 -16.910  46.735  1.00  0.00     0.137 A 
HETATM   25  N8  UNL     1      23.764 -15.739  47.373  1.00  0.00    -0.284 N 
HETATM   26  N9  UNL     1      24.824 -15.563  48.157  1.00  0.00    -0.277 N 
ATOM     27  H8  UNL     1      22.998 -15.074  47.272  1.00  0.00     0.188 HD
HETATM   28  C8  UNL     1      25.590 -16.639  48.014  1.00  0.00     0.186 A 
ATOM     29  H9  UNL     1      25.012 -14.758  48.753  1.00  0.00     0.189 HD
HETATM   30  N11 UNL     1      24.994 -17.479  47.137  1.00  0.00    -0.223 N 
BRANCH  28  31
HETATM   31  S1  UNL     1      27.133 -16.932  48.832  1.00  0.00    -0.060 SA
BRANCH  31  32
HETATM   32  C9  UNL     1      28.521 -16.380  47.883  1.00  0.00     0.083 C 
BRANCH  32  33
HETATM   33  C10 UNL     1      28.726 -16.680  46.621  1.00  0.00     0.072 A 
HETATM   34  N10 UNL     1      29.695 -17.306  45.706  1.00  0.00    -0.351 N 
HETATM   35  C11 UNL     1      28.448 -16.765  45.172  1.00  0.00     0.198 A 
ATOM     36  H10 UNL     1      30.588 -17.776  45.555  1.00  0.00     0.163 HD
BRANCH  35  37
HETATM   37  O1  UNL     1      27.526 -17.726  44.777  1.00  0.00    -0.364 OA
ATOM     38  H1  UNL     1      27.016 -17.527  44.000  1.00  0.00     0.213 HD
ENDBRANCH  35  37
BRANCH  35  39
HETATM   39  C12 UNL     1      28.666 -15.553  44.295  1.00  0.00     0.232 C 
BRANCH  39  40
HETATM   40  O2  UNL     1      28.513 -15.879  42.944  1.00  0.00    -0.396 OA
ATOM     41  H2  UNL     1      28.472 -15.096  42.408  1.00  0.00     0.209 HD
ENDBRANCH  39  40
ENDBRANCH  35  39
ENDBRANCH  32  33
ENDBRANCH  31  32
ENDBRANCH  28  31
BRANCH  30  42
HETATM   42  N12 UNL     1      25.465 -18.719  46.709  1.00  0.00    -0.335 N 
ATOM     43 2H12 UNL     1      25.203 -19.215  45.857  1.00  0.00     0.177 HD
ATOM     44 1H12 UNL     1      26.144 -19.292  47.211  1.00  0.00     0.177 HD
ENDBRANCH  30  42
ENDBRANCH  23  24
ENDBRANCH   1  23
TORSDOF 11
ENDMDL
