MODEL 1
REMARK VINA RESULT: -4.927961744      0.000      0.000
REMARK  4 active torsions:
REMARK  status: ('A' for Active; 'I' for Inactive)
REMARK    1  A    between atoms: N1_2  and  N2_4 
REMARK    2  A    between atoms: N2_4  and  C2_6 
REMARK    3  A    between atoms: C2_6  and  N3_7 
REMARK    4  A    between atoms: N3_7  and  C3_9 
ROOT
HETATM    1  C3  UNL     1     -23.832   7.604 -13.581  1.00  0.00     0.128 C 
HETATM    2  C4  UNL     1     -22.655   7.978 -12.698  1.00  0.00     0.056 C 
HETATM    3  C5  UNL     1     -22.109   9.201 -13.410  1.00  0.00     0.235 C 
HETATM    4  N4  UNL     1     -23.065   9.585 -14.402  1.00  0.00    -0.065 N 
ATOM      5  H41 UNL     1     -22.796   9.330 -15.352  1.00  0.00     0.278 HD
ATOM      6  H42 UNL     1     -23.114  10.591 -14.558  1.00  0.00     0.278 HD
HETATM    7  C6  UNL     1     -24.316   8.997 -13.973  1.00  0.00     0.139 C 
HETATM    8  C7  UNL     1     -24.812   9.780 -12.795  1.00  0.00     0.048 C 
HETATM    9  C8  UNL     1     -25.352   8.947 -15.052  1.00  0.00     0.048 C 
ENDROOT
BRANCH   1  10
HETATM   10  N3  UNL     1     -24.828   6.840 -12.905  1.00  0.00    -0.334 N 
ATOM     11  H3  UNL     1     -25.784   7.181 -12.808  1.00  0.00     0.171 HD
BRANCH  10  12
HETATM   12  C2  UNL     1     -24.470   5.702 -12.421  1.00  0.00     0.063 C 
BRANCH  12  13
HETATM   13  N2  UNL     1     -23.938   4.598 -12.096  1.00  0.00    -0.256 N 
ATOM     14  H2  UNL     1     -24.488   3.958 -11.523  1.00  0.00     0.198 HD
BRANCH  13  15
HETATM   15  N1  UNL     1     -22.668   4.204 -12.462  1.00  0.00    -0.333 N 
HETATM   16  C1  UNL     1     -22.269   4.306 -13.846  1.00  0.00     0.168 C 
ATOM     17  H1  UNL     1     -22.018   3.845 -11.763  1.00  0.00     0.180 HD
ENDBRANCH  13  15
ENDBRANCH  12  13
ENDBRANCH  10  12
ENDBRANCH   1  10
TORSDOF 4
ENDMDL
MODEL 2
REMARK VINA RESULT: -4.848065080      1.404      2.339
REMARK  4 active torsions:
REMARK  status: ('A' for Active; 'I' for Inactive)
REMARK    1  A    between atoms: N1_2  and  N2_4 
REMARK    2  A    between atoms: N2_4  and  C2_6 
REMARK    3  A    between atoms: C2_6  and  N3_7 
REMARK    4  A    between atoms: N3_7  and  C3_9 
ROOT
HETATM    1  C3  UNL     1     -24.701   9.199 -12.795  1.00  0.00     0.128 C 
HETATM    2  C4  UNL     1     -24.577   8.353 -14.050  1.00  0.00     0.056 C 
HETATM    3  C5  UNL     1     -24.250   9.401 -15.098  1.00  0.00     0.235 C 
HETATM    4  N4  UNL     1     -23.964  10.622 -14.413  1.00  0.00    -0.065 N 
ATOM      5  H41 UNL     1     -24.721  11.304 -14.455  1.00  0.00     0.278 HD
ATOM      6  H42 UNL     1     -23.259  11.197 -14.874  1.00  0.00     0.278 HD
HETATM    7  C6  UNL     1     -23.608  10.229 -13.066  1.00  0.00     0.139 C 
HETATM    8  C7  UNL     1     -22.243   9.612 -13.112  1.00  0.00     0.048 C 
HETATM    9  C8  UNL     1     -23.648  11.359 -12.085  1.00  0.00     0.048 C 
ENDROOT
BRANCH   1  10
HETATM   10  N3  UNL     1     -24.487   8.464 -11.592  1.00  0.00    -0.334 N 
ATOM     11  H3  UNL     1     -24.139   8.917 -10.748  1.00  0.00     0.171 HD
BRANCH  10  12
HETATM   12  C2  UNL     1     -24.748   7.204 -11.617  1.00  0.00     0.063 C 
BRANCH  12  13
HETATM   13  N2  UNL     1     -25.142   6.010 -11.456  1.00  0.00    -0.256 N 
ATOM     14  H2  UNL     1     -25.698   5.802 -10.627  1.00  0.00     0.198 HD
BRANCH  13  15
HETATM   15  N1  UNL     1     -24.870   4.973 -12.324  1.00  0.00    -0.333 N 
HETATM   16  C1  UNL     1     -23.555   4.870 -12.912  1.00  0.00     0.168 C 
ATOM     17  H1  UNL     1     -25.590   4.285 -12.548  1.00  0.00     0.180 HD
ENDBRANCH  13  15
ENDBRANCH  12  13
ENDBRANCH  10  12
ENDBRANCH   1  10
TORSDOF 4
ENDMDL
MODEL 3
REMARK VINA RESULT: -4.562995678      1.062      1.845
REMARK  4 active torsions:
REMARK  status: ('A' for Active; 'I' for Inactive)
REMARK    1  A    between atoms: N1_2  and  N2_4 
REMARK    2  A    between atoms: N2_4  and  C2_6 
REMARK    3  A    between atoms: C2_6  and  N3_7 
REMARK    4  A    between atoms: N3_7  and  C3_9 
ROOT
HETATM    1  C3  UNL     1     -24.606   8.230 -13.032  1.00  0.00     0.128 C 
HETATM    2  C4  UNL     1     -24.160   7.883 -14.441  1.00  0.00     0.056 C 
HETATM    3  C5  UNL     1     -24.338   9.209 -15.157  1.00  0.00     0.235 C 
HETATM    4  N4  UNL     1     -24.588  10.206 -14.163  1.00  0.00    -0.065 N 
ATOM      5  H41 UNL     1     -25.565  10.492 -14.104  1.00  0.00     0.278 HD
ATOM      6  H42 UNL     1     -24.208  11.123 -14.396  1.00  0.00     0.278 HD
HETATM    7  C6  UNL     1     -24.066   9.654 -12.930  1.00  0.00     0.139 C 
HETATM    8  C7  UNL     1     -22.571   9.703 -13.000  1.00  0.00     0.048 C 
HETATM    9  C8  UNL     1     -24.565  10.356 -11.706  1.00  0.00     0.048 C 
ENDROOT
BRANCH   1  10
HETATM   10  N3  UNL     1     -24.069   7.360 -12.037  1.00  0.00    -0.334 N 
ATOM     11  H3  UNL     1     -23.698   7.723 -11.159  1.00  0.00     0.171 HD
BRANCH  10  12
HETATM   12  C2  UNL     1     -24.070   6.099 -12.294  1.00  0.00     0.063 C 
BRANCH  12  13
HETATM   13  N2  UNL     1     -23.894   4.848 -12.394  1.00  0.00    -0.256 N 
ATOM     14  H2  UNL     1     -24.722   4.252 -12.410  1.00  0.00     0.198 HD
BRANCH  13  15
HETATM   15  N1  UNL     1     -22.661   4.237 -12.482  1.00  0.00    -0.333 N 
HETATM   16  C1  UNL     1     -21.645   4.814 -13.331  1.00  0.00     0.168 C 
ATOM     17  H1  UNL     1     -22.468   3.386 -11.953  1.00  0.00     0.180 HD
ENDBRANCH  13  15
ENDBRANCH  12  13
ENDBRANCH  10  12
ENDBRANCH   1  10
TORSDOF 4
ENDMDL
MODEL 4
REMARK VINA RESULT: -4.555179273      1.532      2.508
REMARK  4 active torsions:
REMARK  status: ('A' for Active; 'I' for Inactive)
REMARK    1  A    between atoms: N1_2  and  N2_4 
REMARK    2  A    between atoms: N2_4  and  C2_6 
REMARK    3  A    between atoms: C2_6  and  N3_7 
REMARK    4  A    between atoms: N3_7  and  C3_9 
ROOT
HETATM    1  C3  UNL     1     -22.989   7.698 -12.573  1.00  0.00     0.128 C 
HETATM    2  C4  UNL     1     -24.494   7.515 -12.646  1.00  0.00     0.056 C 
HETATM    3  C5  UNL     1     -24.993   8.895 -12.260  1.00  0.00     0.235 C 
HETATM    4  N4  UNL     1     -23.867   9.775 -12.255  1.00  0.00    -0.065 N 
ATOM      5  H41 UNL     1     -23.529  10.006 -11.321  1.00  0.00     0.278 HD
ATOM      6  H42 UNL     1     -24.088  10.728 -12.542  1.00  0.00     0.278 HD
HETATM    7  C6  UNL     1     -22.875   9.130 -13.090  1.00  0.00     0.139 C 
HETATM    8  C7  UNL     1     -23.320   9.258 -14.515  1.00  0.00     0.048 C 
HETATM    9  C8  UNL     1     -21.496   9.682 -12.911  1.00  0.00     0.048 C 
ENDROOT
BRANCH   1  10
HETATM   10  N3  UNL     1     -22.265   6.762 -13.368  1.00  0.00    -0.334 N 
ATOM     11  H3  UNL     1     -21.783   7.049 -14.220  1.00  0.00     0.171 HD
BRANCH  10  12
HETATM   12  C2  UNL     1     -22.245   5.539 -12.967  1.00  0.00     0.063 C 
BRANCH  12  13
HETATM   13  N2  UNL     1     -22.458   4.346 -12.596  1.00  0.00    -0.256 N 
ATOM     14  H2  UNL     1     -22.046   3.596 -13.151  1.00  0.00     0.198 HD
BRANCH  13  15
HETATM   15  N1  UNL     1     -23.208   3.992 -11.494  1.00  0.00    -0.333 N 
HETATM   16  C1  UNL     1     -24.644   4.133 -11.543  1.00  0.00     0.168 C 
ATOM     17  H1  UNL     1     -22.754   3.633 -10.654  1.00  0.00     0.180 HD
ENDBRANCH  13  15
ENDBRANCH  12  13
ENDBRANCH  10  12
ENDBRANCH   1  10
TORSDOF 4
ENDMDL
MODEL 5
REMARK VINA RESULT: -4.410741727      1.580      2.276
REMARK  4 active torsions:
REMARK  status: ('A' for Active; 'I' for Inactive)
REMARK    1  A    between atoms: N1_2  and  N2_4 
REMARK    2  A    between atoms: N2_4  and  C2_6 
REMARK    3  A    between atoms: C2_6  and  N3_7 
REMARK    4  A    between atoms: N3_7  and  C3_9 
ROOT
HETATM    1  C3  UNL     1     -23.486   7.697 -13.581  1.00  0.00     0.128 C 
HETATM    2  C4  UNL     1     -23.272   8.495 -14.855  1.00  0.00     0.056 C 
HETATM    3  C5  UNL     1     -24.545   9.318 -14.924  1.00  0.00     0.235 C 
HETATM    4  N4  UNL     1     -25.223   9.167 -13.674  1.00  0.00    -0.065 N 
ATOM      5  H41 UNL     1     -26.028   8.542 -13.716  1.00  0.00     0.278 HD
ATOM      6  H42 UNL     1     -25.734   9.999 -13.380  1.00  0.00     0.278 HD
HETATM    7  C6  UNL     1     -24.205   8.746 -12.736  1.00  0.00     0.139 C 
HETATM    8  C7  UNL     1     -23.336   9.929 -12.437  1.00  0.00     0.048 C 
HETATM    9  C8  UNL     1     -24.762   8.162 -11.475  1.00  0.00     0.048 C 
ENDROOT
BRANCH   1  10
HETATM   10  N3  UNL     1     -22.273   7.241 -12.987  1.00  0.00    -0.334 N 
ATOM     11  H3  UNL     1     -21.570   7.896 -12.646  1.00  0.00     0.171 HD
BRANCH  10  12
HETATM   12  C2  UNL     1     -22.102   5.968 -12.901  1.00  0.00     0.063 C 
BRANCH  12  13
HETATM   13  N2  UNL     1     -22.165   4.703 -12.853  1.00  0.00    -0.256 N 
ATOM     14  H2  UNL     1     -21.570   4.175 -13.491  1.00  0.00     0.198 HD
BRANCH  13  15
HETATM   15  N1  UNL     1     -22.981   3.992 -11.998  1.00  0.00    -0.333 N 
HETATM   16  C1  UNL     1     -24.302   4.494 -11.703  1.00  0.00     0.168 C 
ATOM     17  H1  UNL     1     -22.655   3.121 -11.578  1.00  0.00     0.180 HD
ENDBRANCH  13  15
ENDBRANCH  12  13
ENDBRANCH  10  12
ENDBRANCH   1  10
TORSDOF 4
ENDMDL
