MODEL 1
REMARK VINA RESULT: -4.943736976      0.000      0.000
REMARK  4 active torsions:
REMARK  status: ('A' for Active; 'I' for Inactive)
REMARK    1  A    between atoms: C2_2  and  O1_5 
REMARK    2  A    between atoms: O1_5  and  C5_6 
REMARK    3  A    between atoms: C5_6  and  C6_7 
REMARK    4  A    between atoms: C8_9  and  N1_10 
ROOT
HETATM    1  C6  UNL     1     -24.352   6.802 -12.659  1.00  0.00     0.211 C 
HETATM    2  C7  UNL     1     -22.863   6.490 -12.831  1.00  0.00     0.069 C 
HETATM    3  C8  UNL     1     -22.777   4.989 -12.801  1.00  0.00     0.211 C 
HETATM    4  C9  UNL     1     -24.003   4.583 -12.052  1.00  0.00     0.265 C 
HETATM    5  N2  UNL     1     -24.766   5.773 -11.762  1.00  0.00    -0.067 N 
ATOM      6  H21 UNL     1     -25.772   5.611 -11.789  1.00  0.00     0.277 HD
ATOM      7  H22 UNL     1     -24.696   6.054 -10.784  1.00  0.00     0.277 HD
ENDROOT
BRANCH   1   8
HETATM    8  C5  UNL     1     -24.469   8.184 -12.119  1.00  0.00     0.201 C 
BRANCH   8   9
HETATM    9  O1  UNL     1     -25.240   9.025 -12.879  1.00  0.00    -0.379 OA
BRANCH   9  10
HETATM   10  C2  UNL     1     -24.501   9.990 -13.515  1.00  0.00     0.050 C 
HETATM   11  C1  UNL     1     -24.188   9.625 -14.967  1.00  0.00     0.045 C 
HETATM   12  C3  UNL     1     -25.204  11.342 -13.565  1.00  0.00     0.045 C 
HETATM   13  C4  UNL     1     -23.178  10.230 -12.821  1.00  0.00     0.045 C 
ENDBRANCH   9  10
ENDBRANCH   8   9
ENDBRANCH   1   8
BRANCH   3  14
HETATM   14  N1  UNL     1     -22.824   4.394 -14.121  1.00  0.00    -0.073 N 
ATOM     15  H13 UNL     1     -22.656   5.095 -14.842  1.00  0.00     0.274 HD
ATOM     16  H12 UNL     1     -22.014   3.794 -14.279  1.00  0.00     0.274 HD
ATOM     17  H11 UNL     1     -23.692   3.888 -14.298  1.00  0.00     0.274 HD
ENDBRANCH   3  14
TORSDOF 4
ENDMDL
MODEL 2
REMARK VINA RESULT: -4.938479068      0.020      1.217
REMARK  4 active torsions:
REMARK  status: ('A' for Active; 'I' for Inactive)
REMARK    1  A    between atoms: C2_2  and  O1_5 
REMARK    2  A    between atoms: O1_5  and  C5_6 
REMARK    3  A    between atoms: C5_6  and  C6_7 
REMARK    4  A    between atoms: C8_9  and  N1_10 
ROOT
HETATM    1  C6  UNL     1     -24.358   6.802 -12.649  1.00  0.00     0.211 C 
HETATM    2  C7  UNL     1     -22.870   6.490 -12.829  1.00  0.00     0.069 C 
HETATM    3  C8  UNL     1     -22.784   4.989 -12.803  1.00  0.00     0.211 C 
HETATM    4  C9  UNL     1     -24.008   4.581 -12.050  1.00  0.00     0.265 C 
HETATM    5  N2  UNL     1     -24.768   5.771 -11.752  1.00  0.00    -0.067 N 
ATOM      6  H21 UNL     1     -25.775   5.610 -11.775  1.00  0.00     0.277 HD
ATOM      7  H22 UNL     1     -24.694   6.050 -10.774  1.00  0.00     0.277 HD
ENDROOT
BRANCH   1   8
HETATM    8  C5  UNL     1     -24.472   8.183 -12.105  1.00  0.00     0.201 C 
BRANCH   8   9
HETATM    9  O1  UNL     1     -25.236   9.030 -12.867  1.00  0.00    -0.379 OA
BRANCH   9  10
HETATM   10  C2  UNL     1     -24.487   9.981 -13.511  1.00  0.00     0.050 C 
HETATM   11  C1  UNL     1     -23.135  10.217 -12.837  1.00  0.00     0.045 C 
HETATM   12  C3  UNL     1     -24.176   9.614 -14.958  1.00  0.00     0.045 C 
HETATM   13  C4  UNL     1     -25.198  11.315 -13.560  1.00  0.00     0.045 C 
ENDBRANCH   9  10
ENDBRANCH   8   9
ENDBRANCH   1   8
BRANCH   3  14
HETATM   14  N1  UNL     1     -22.838   4.397 -14.124  1.00  0.00    -0.073 N 
ATOM     15  H13 UNL     1     -23.766   4.505 -14.533  1.00  0.00     0.274 HD
ATOM     16  H12 UNL     1     -22.296   4.947 -14.792  1.00  0.00     0.274 HD
ATOM     17  H11 UNL     1     -22.546   3.420 -14.134  1.00  0.00     0.274 HD
ENDBRANCH   3  14
TORSDOF 4
ENDMDL
MODEL 3
REMARK VINA RESULT: -4.935290192      0.021      1.223
REMARK  4 active torsions:
REMARK  status: ('A' for Active; 'I' for Inactive)
REMARK    1  A    between atoms: C2_2  and  O1_5 
REMARK    2  A    between atoms: O1_5  and  C5_6 
REMARK    3  A    between atoms: C5_6  and  C6_7 
REMARK    4  A    between atoms: C8_9  and  N1_10 
ROOT
HETATM    1  C6  UNL     1     -24.362   6.797 -12.658  1.00  0.00     0.211 C 
HETATM    2  C7  UNL     1     -22.872   6.492 -12.832  1.00  0.00     0.069 C 
HETATM    3  C8  UNL     1     -22.779   4.992 -12.803  1.00  0.00     0.211 C 
HETATM    4  C9  UNL     1     -24.003   4.579 -12.054  1.00  0.00     0.265 C 
HETATM    5  N2  UNL     1     -24.770   5.766 -11.761  1.00  0.00    -0.067 N 
ATOM      6  H21 UNL     1     -25.776   5.599 -11.787  1.00  0.00     0.277 HD
ATOM      7  H22 UNL     1     -24.701   6.047 -10.783  1.00  0.00     0.277 HD
ENDROOT
BRANCH   1   8
HETATM    8  C5  UNL     1     -24.485   8.178 -12.118  1.00  0.00     0.201 C 
BRANCH   8   9
HETATM    9  O1  UNL     1     -25.239   9.024 -12.890  1.00  0.00    -0.379 OA
BRANCH   9  10
HETATM   10  C2  UNL     1     -24.486   9.989 -13.507  1.00  0.00     0.050 C 
HETATM   11  C1  UNL     1     -25.184  11.351 -13.527  1.00  0.00     0.045 C 
HETATM   12  C3  UNL     1     -23.140  10.219 -12.829  1.00  0.00     0.045 C 
HETATM   13  C4  UNL     1     -24.177   9.627 -14.942  1.00  0.00     0.045 C 
ENDBRANCH   9  10
ENDBRANCH   8   9
ENDBRANCH   1   8
BRANCH   3  14
HETATM   14  N1  UNL     1     -22.824   4.397 -14.123  1.00  0.00    -0.073 N 
ATOM     15  H13 UNL     1     -23.375   4.971 -14.761  1.00  0.00     0.274 HD
ATOM     16  H12 UNL     1     -21.916   4.461 -14.583  1.00  0.00     0.274 HD
ATOM     17  H11 UNL     1     -23.161   3.435 -14.114  1.00  0.00     0.274 HD
ENDBRANCH   3  14
TORSDOF 4
ENDMDL
MODEL 4
REMARK VINA RESULT: -4.836459115      0.948      1.047
REMARK  4 active torsions:
REMARK  status: ('A' for Active; 'I' for Inactive)
REMARK    1  A    between atoms: C2_2  and  O1_5 
REMARK    2  A    between atoms: O1_5  and  C5_6 
REMARK    3  A    between atoms: C5_6  and  C6_7 
REMARK    4  A    between atoms: C8_9  and  N1_10 
ROOT
HETATM    1  C6  UNL     1     -24.457   6.217 -13.011  1.00  0.00     0.211 C 
HETATM    2  C7  UNL     1     -22.929   6.304 -12.973  1.00  0.00     0.069 C 
HETATM    3  C8  UNL     1     -22.472   4.918 -12.613  1.00  0.00     0.211 C 
HETATM    4  C9  UNL     1     -23.652   4.331 -11.912  1.00  0.00     0.265 C 
HETATM    5  N2  UNL     1     -24.725   5.295 -11.956  1.00  0.00    -0.067 N 
ATOM      6  H21 UNL     1     -25.643   4.858 -12.041  1.00  0.00     0.277 HD
ATOM      7  H22 UNL     1     -24.874   5.758 -11.059  1.00  0.00     0.277 HD
ENDROOT
BRANCH   1   8
HETATM    8  C5  UNL     1     -24.998   7.586 -12.795  1.00  0.00     0.201 C 
BRANCH   8   9
HETATM    9  O1  UNL     1     -24.191   8.402 -12.045  1.00  0.00    -0.379 OA
BRANCH   9  10
HETATM   10  C2  UNL     1     -24.129   9.681 -12.536  1.00  0.00     0.050 C 
HETATM   11  C1  UNL     1     -24.944   9.855 -13.818  1.00  0.00     0.045 C 
HETATM   12  C3  UNL     1     -24.661  10.721 -11.557  1.00  0.00     0.045 C 
HETATM   13  C4  UNL     1     -22.708  10.090 -12.854  1.00  0.00     0.045 C 
ENDBRANCH   9  10
ENDBRANCH   8   9
ENDBRANCH   1   8
BRANCH   3  14
HETATM   14  N1  UNL     1     -22.172   4.103 -13.772  1.00  0.00    -0.073 N 
ATOM     15  H13 UNL     1     -21.527   4.584 -14.398  1.00  0.00     0.274 HD
ATOM     16  H12 UNL     1     -21.591   3.304 -13.515  1.00  0.00     0.274 HD
ATOM     17  H11 UNL     1     -23.008   3.799 -14.272  1.00  0.00     0.274 HD
ENDBRANCH   3  14
TORSDOF 4
ENDMDL
MODEL 5
REMARK VINA RESULT: -4.744957324      2.577      5.102
REMARK  4 active torsions:
REMARK  status: ('A' for Active; 'I' for Inactive)
REMARK    1  A    between atoms: C2_2  and  O1_5 
REMARK    2  A    between atoms: O1_5  and  C5_6 
REMARK    3  A    between atoms: C5_6  and  C6_7 
REMARK    4  A    between atoms: C8_9  and  N1_10 
ROOT
HETATM    1  C6  UNL     1     -24.291   8.747 -13.549  1.00  0.00     0.211 C 
HETATM    2  C7  UNL     1     -25.270   9.267 -14.605  1.00  0.00     0.069 C 
HETATM    3  C8  UNL     1     -25.327  10.752 -14.382  1.00  0.00     0.211 C 
HETATM    4  C9  UNL     1     -24.917  10.907 -12.954  1.00  0.00     0.265 C 
HETATM    5  N2  UNL     1     -24.571   9.602 -12.443  1.00  0.00    -0.067 N 
ATOM      6  H21 UNL     1     -23.806   9.635 -11.770  1.00  0.00     0.277 HD
ATOM      7  H22 UNL     1     -25.286   9.222 -11.824  1.00  0.00     0.277 HD
ENDROOT
BRANCH   1   8
HETATM    8  C5  UNL     1     -24.593   7.308 -13.317  1.00  0.00     0.201 C 
BRANCH   8   9
HETATM    9  O1  UNL     1     -23.884   6.445 -14.112  1.00  0.00    -0.379 OA
BRANCH   9  10
HETATM   10  C2  UNL     1     -23.200   5.502 -13.389  1.00  0.00     0.050 C 
HETATM   11  C1  UNL     1     -24.059   4.866 -12.295  1.00  0.00     0.045 C 
HETATM   12  C3  UNL     1     -22.691   4.348 -14.245  1.00  0.00     0.045 C 
HETATM   13  C4  UNL     1     -21.982   6.090 -12.711  1.00  0.00     0.045 C 
ENDBRANCH   9  10
ENDBRANCH   8   9
ENDBRANCH   1   8
BRANCH   3  14
HETATM   14  N1  UNL     1     -24.392  11.485 -15.211  1.00  0.00    -0.073 N 
ATOM     15  H13 UNL     1     -23.430  11.263 -14.958  1.00  0.00     0.274 HD
ATOM     16  H12 UNL     1     -24.399  11.131 -16.168  1.00  0.00     0.274 HD
ATOM     17  H11 UNL     1     -24.551  12.492 -15.195  1.00  0.00     0.274 HD
ENDBRANCH   3  14
TORSDOF 4
ENDMDL
