MODEL 1
REMARK VINA RESULT: -5.863381664      0.000      0.000
REMARK  2 active torsions:
REMARK  status: ('A' for Active; 'I' for Inactive)
REMARK    1  A    between atoms: C2_2  and  C3_3 
REMARK    2  A    between atoms: C2_2  and  C7_7 
ROOT
HETATM    1  C7  UNL     1     -17.286 -17.276  17.523  1.00  0.00     0.227 C 
HETATM    2  C8  UNL     1     -17.885 -18.318  18.399  1.00  0.00     0.088 C 
HETATM    3  N1  UNL     1     -16.986 -19.089  19.163  1.00  0.00    -0.399 N 
ATOM      4  H1  UNL     1     -17.198 -19.360  20.123  1.00  0.00     0.158 HD
HETATM    5  C9  UNL     1     -15.768 -19.471  18.535  1.00  0.00     0.146 C 
HETATM    6  C10 UNL     1     -15.140 -18.337  17.758  1.00  0.00     0.252 C 
HETATM    7  N2  UNL     1     -16.121 -17.825  16.814  1.00  0.00    -0.065 N 
ATOM      8  H21 UNL     1     -15.711 -17.144  16.175  1.00  0.00     0.278 HD
ATOM      9  H22 UNL     1     -16.393 -18.532  16.131  1.00  0.00     0.278 HD
ENDROOT
BRANCH   1  10
HETATM   10  C2  UNL     1     -18.246 -16.811  16.464  1.00  0.00     0.021 C 
HETATM   11  C1  UNL     1     -18.474 -15.326  16.544  1.00  0.00     0.012 C 
BRANCH  10  12
HETATM   12  C3  UNL     1     -19.535 -17.573  16.442  1.00  0.00    -0.009 A 
HETATM   13  C4  UNL     1     -19.918 -18.014  15.045  1.00  0.00     0.005 A 
HETATM   14  C5  UNL     1     -21.124 -17.112  15.045  1.00  0.00     0.001 A 
HETATM   15  C6  UNL     1     -20.790 -16.732  16.461  1.00  0.00     0.005 A 
ENDBRANCH  10  12
ENDBRANCH   1  10
TORSDOF 2
ENDMDL
MODEL 2
REMARK VINA RESULT: -5.501233534      1.057      1.613
REMARK  2 active torsions:
REMARK  status: ('A' for Active; 'I' for Inactive)
REMARK    1  A    between atoms: C2_2  and  C3_3 
REMARK    2  A    between atoms: C2_2  and  C7_7 
ROOT
HETATM    1  C7  UNL     1     -16.699 -17.965  16.825  1.00  0.00     0.227 C 
HETATM    2  C8  UNL     1     -15.389 -17.269  16.931  1.00  0.00     0.088 C 
HETATM    3  N1  UNL     1     -14.359 -17.965  17.595  1.00  0.00    -0.399 N 
ATOM      4  H1  UNL     1     -13.395 -17.933  17.265  1.00  0.00     0.158 HD
HETATM    5  C9  UNL     1     -14.726 -18.716  18.746  1.00  0.00     0.146 C 
HETATM    6  C10 UNL     1     -16.000 -19.501  18.540  1.00  0.00     0.252 C 
HETATM    7  N2  UNL     1     -17.044 -18.583  18.114  1.00  0.00    -0.065 N 
ATOM      8  H21 UNL     1     -17.958 -19.037  18.083  1.00  0.00     0.278 HD
ATOM      9  H22 UNL     1     -17.245 -17.882  18.827  1.00  0.00     0.278 HD
ENDROOT
BRANCH   1  10
HETATM   10  C2  UNL     1     -17.816 -17.015  16.498  1.00  0.00     0.021 C 
HETATM   11  C1  UNL     1     -17.797 -15.812  17.402  1.00  0.00     0.012 C 
BRANCH  10  12
HETATM   12  C3  UNL     1     -19.167 -17.662  16.458  1.00  0.00    -0.009 A 
HETATM   13  C4  UNL     1     -19.616 -17.969  15.045  1.00  0.00     0.005 A 
HETATM   14  C5  UNL     1     -20.739 -16.970  15.139  1.00  0.00     0.001 A 
HETATM   15  C6  UNL     1     -20.344 -16.720  16.569  1.00  0.00     0.005 A 
ENDBRANCH  10  12
ENDBRANCH   1  10
TORSDOF 2
ENDMDL
MODEL 3
REMARK VINA RESULT: -5.210788891      1.945      4.634
REMARK  2 active torsions:
REMARK  status: ('A' for Active; 'I' for Inactive)
REMARK    1  A    between atoms: C2_2  and  C3_3 
REMARK    2  A    between atoms: C2_2  and  C7_7 
ROOT
HETATM    1  C7  UNL     1     -19.234 -17.472  17.157  1.00  0.00     0.227 C 
HETATM    2  C8  UNL     1     -20.010 -16.204  17.225  1.00  0.00     0.088 C 
HETATM    3  N1  UNL     1     -21.114 -16.097  16.356  1.00  0.00    -0.399 N 
ATOM      4  H1  UNL     1     -21.986 -15.659  16.653  1.00  0.00     0.158 HD
HETATM    5  C9  UNL     1     -20.958 -16.627  15.045  1.00  0.00     0.146 C 
HETATM    6  C10 UNL     1     -20.273 -17.973  15.046  1.00  0.00     0.252 C 
HETATM    7  N2  UNL     1     -19.009 -17.848  15.754  1.00  0.00    -0.065 N 
ATOM      8  H21 UNL     1     -18.445 -18.695  15.675  1.00  0.00     0.278 HD
ATOM      9  H22 UNL     1     -18.376 -17.199  15.286  1.00  0.00     0.278 HD
ENDROOT
BRANCH   1  10
HETATM   10  C2  UNL     1     -17.876 -17.334  17.783  1.00  0.00     0.021 C 
HETATM   11  C1  UNL     1     -17.359 -15.925  17.668  1.00  0.00     0.012 C 
BRANCH  10  12
HETATM   12  C3  UNL     1     -16.877 -18.336  17.288  1.00  0.00    -0.009 A 
HETATM   13  C4  UNL     1     -16.200 -19.080  18.420  1.00  0.00     0.005 A 
HETATM   14  C5  UNL     1     -14.870 -18.457  18.090  1.00  0.00     0.001 A 
HETATM   15  C6  UNL     1     -15.523 -17.778  16.917  1.00  0.00     0.005 A 
ENDBRANCH  10  12
ENDBRANCH   1  10
TORSDOF 2
ENDMDL
MODEL 4
REMARK VINA RESULT: -5.090818744      2.013      4.601
REMARK  2 active torsions:
REMARK  status: ('A' for Active; 'I' for Inactive)
REMARK    1  A    between atoms: C2_2  and  C3_3 
REMARK    2  A    between atoms: C2_2  and  C7_7 
ROOT
HETATM    1  C7  UNL     1     -19.239 -18.002  16.995  1.00  0.00     0.227 C 
HETATM    2  C8  UNL     1     -19.699 -16.625  17.323  1.00  0.00     0.088 C 
HETATM    3  N1  UNL     1     -20.863 -16.179  16.665  1.00  0.00    -0.399 N 
ATOM      4  H1  UNL     1     -21.566 -15.619  17.147  1.00  0.00     0.158 HD
HETATM    5  C9  UNL     1     -21.012 -16.545  15.298  1.00  0.00     0.146 C 
HETATM    6  C10 UNL     1     -20.648 -17.989  15.046  1.00  0.00     0.252 C 
HETATM    7  N2  UNL     1     -19.301 -18.219  15.543  1.00  0.00    -0.065 N 
ATOM      8  H21 UNL     1     -18.955 -19.144  15.284  1.00  0.00     0.278 HD
ATOM      9  H22 UNL     1     -18.613 -17.653  15.047  1.00  0.00     0.278 HD
ENDROOT
BRANCH   1  10
HETATM   10  C2  UNL     1     -17.809 -18.228  17.398  1.00  0.00     0.021 C 
HETATM   11  C1  UNL     1     -17.659 -18.260  18.895  1.00  0.00     0.012 C 
BRANCH  10  12
HETATM   12  C3  UNL     1     -16.845 -17.275  16.761  1.00  0.00    -0.009 A 
HETATM   13  C4  UNL     1     -15.542 -17.946  16.378  1.00  0.00     0.005 A 
HETATM   14  C5  UNL     1     -14.777 -17.134  17.389  1.00  0.00     0.001 A 
HETATM   15  C6  UNL     1     -16.055 -16.411  17.717  1.00  0.00     0.005 A 
ENDBRANCH  10  12
ENDBRANCH   1  10
TORSDOF 2
ENDMDL
MODEL 5
REMARK VINA RESULT: -5.052586898      7.856      9.602
REMARK  2 active torsions:
REMARK  status: ('A' for Active; 'I' for Inactive)
REMARK    1  A    between atoms: C2_2  and  C3_3 
REMARK    2  A    between atoms: C2_2  and  C7_7 
ROOT
HETATM    1  C7  UNL     1     -24.790 -16.199  21.976  1.00  0.00     0.227 C 
HETATM    2  C8  UNL     1     -26.150 -16.116  22.573  1.00  0.00     0.088 C 
HETATM    3  N1  UNL     1     -27.230 -16.045  21.669  1.00  0.00    -0.399 N 
ATOM      4  H1  UNL     1     -28.104 -16.541  21.843  1.00  0.00     0.158 HD
HETATM    5  C9  UNL     1     -27.044 -15.251  20.504  1.00  0.00     0.146 C 
HETATM    6  C10 UNL     1     -25.690 -15.468  19.869  1.00  0.00     0.252 C 
HETATM    7  N2  UNL     1     -24.666 -15.234  20.875  1.00  0.00    -0.065 N 
ATOM      8  H21 UNL     1     -23.730 -15.241  20.470  1.00  0.00     0.278 HD
ATOM      9  H22 UNL     1     -24.680 -14.272  21.212  1.00  0.00     0.278 HD
ENDROOT
BRANCH   1  10
HETATM   10  C2  UNL     1     -23.718 -15.850  22.969  1.00  0.00     0.021 C 
HETATM   11  C1  UNL     1     -22.927 -14.649  22.524  1.00  0.00     0.012 C 
BRANCH  10  12
HETATM   12  C3  UNL     1     -22.829 -17.001  23.329  1.00  0.00    -0.009 A 
HETATM   13  C4  UNL     1     -23.082 -17.504  24.735  1.00  0.00     0.005 A 
HETATM   14  C5  UNL     1     -21.715 -17.062  25.184  1.00  0.00     0.001 A 
HETATM   15  C6  UNL     1     -21.432 -16.633  23.771  1.00  0.00     0.005 A 
ENDBRANCH  10  12
ENDBRANCH   1  10
TORSDOF 2
ENDMDL
