MODEL 1
REMARK VINA RESULT: -5.356603410      0.000      0.000
REMARK  2 active torsions:
REMARK  status: ('A' for Active; 'I' for Inactive)
REMARK    1  A    between atoms: N1_1  and  C1_5 
REMARK    2  A    between atoms: C1_5  and  C2_6 
ROOT
HETATM    1  C2  UNL     1     -24.263 -17.072  23.307  1.00  0.00     0.150 C 
HETATM    2  C3  UNL     1     -22.967 -16.614  23.941  1.00  0.00     0.045 C 
HETATM    3  C4  UNL     1     -22.238 -15.681  22.996  1.00  0.00    -0.010 C 
HETATM    4  C5  UNL     1     -21.897 -16.492  21.754  1.00  0.00     0.009 C 
HETATM    5  C6  UNL     1     -23.152 -17.043  21.144  1.00  0.00    -0.010 C 
HETATM    6  C7  UNL     1     -24.002 -15.854  20.718  1.00  0.00     0.037 C 
HETATM    7  C8  UNL     1     -24.379 -15.101  21.954  1.00  0.00     0.187 C 
HETATM    8  C9  UNL     1     -23.124 -14.542  22.608  1.00  0.00     0.037 C 
HETATM    9  N2  UNL     1     -25.076 -15.931  22.892  1.00  0.00    -0.060 N 
ATOM     10  H21 UNL     1     -25.403 -15.393  23.695  1.00  0.00     0.278 HD
ATOM     11  H22 UNL     1     -25.980 -16.230  22.525  1.00  0.00     0.278 HD
HETATM   12  C10 UNL     1     -23.958 -17.879  22.100  1.00  0.00     0.045 C 
ENDROOT
BRANCH   1  13
HETATM   13  C1  UNL     1     -25.045 -17.815  24.361  1.00  0.00     0.268 C 
BRANCH  13  14
HETATM   14  N1  UNL     1     -25.658 -19.006  23.766  1.00  0.00    -0.077 N 
ATOM     15  H13 UNL     1     -26.663 -19.052  23.941  1.00  0.00     0.274 HD
ATOM     16  H12 UNL     1     -25.691 -18.955  22.747  1.00  0.00     0.274 HD
ATOM     17  H11 UNL     1     -25.170 -19.839  24.095  1.00  0.00     0.274 HD
ENDBRANCH  13  14
ENDBRANCH   1  13
TORSDOF 2
ENDMDL
MODEL 2
REMARK VINA RESULT: -5.334090239      0.840      2.128
REMARK  2 active torsions:
REMARK  status: ('A' for Active; 'I' for Inactive)
REMARK    1  A    between atoms: N1_1  and  C1_5 
REMARK    2  A    between atoms: C1_5  and  C2_6 
ROOT
HETATM    1  C2  UNL     1     -24.264 -17.010  23.298  1.00  0.00     0.150 C 
HETATM    2  C3  UNL     1     -24.944 -15.752  22.799  1.00  0.00     0.045 C 
HETATM    3  C4  UNL     1     -24.072 -15.078  21.760  1.00  0.00    -0.010 C 
HETATM    4  C5  UNL     1     -22.785 -14.672  22.464  1.00  0.00     0.009 C 
HETATM    5  C6  UNL     1     -22.123 -15.882  23.053  1.00  0.00    -0.010 C 
HETATM    6  C7  UNL     1     -21.764 -16.804  21.896  1.00  0.00     0.037 C 
HETATM    7  C8  UNL     1     -23.041 -17.242  21.253  1.00  0.00     0.187 C 
HETATM    8  C9  UNL     1     -23.747 -16.033  20.658  1.00  0.00     0.037 C 
HETATM    9  N2  UNL     1     -23.912 -17.892  22.186  1.00  0.00    -0.060 N 
ATOM     10  H21 UNL     1     -24.744 -18.261  21.725  1.00  0.00     0.278 HD
ATOM     11  H22 UNL     1     -23.514 -18.771  22.519  1.00  0.00     0.278 HD
HETATM   12  C10 UNL     1     -23.011 -16.641  24.001  1.00  0.00     0.045 C 
ENDROOT
BRANCH   1  13
HETATM   13  C1  UNL     1     -25.256 -17.752  24.157  1.00  0.00     0.268 C 
BRANCH  13  14
HETATM   14  N1  UNL     1     -25.590 -19.031  23.524  1.00  0.00    -0.077 N 
ATOM     15  H13 UNL     1     -26.561 -19.064  23.210  1.00  0.00     0.274 HD
ATOM     16  H12 UNL     1     -25.139 -19.141  22.615  1.00  0.00     0.274 HD
ATOM     17  H11 UNL     1     -25.365 -19.795  24.162  1.00  0.00     0.274 HD
ENDBRANCH  13  14
ENDBRANCH   1  13
TORSDOF 2
ENDMDL
MODEL 3
REMARK VINA RESULT: -5.235112925      0.794      2.090
REMARK  2 active torsions:
REMARK  status: ('A' for Active; 'I' for Inactive)
REMARK    1  A    between atoms: N1_1  and  C1_5 
REMARK    2  A    between atoms: C1_5  and  C2_6 
ROOT
HETATM    1  C2  UNL     1     -24.306 -16.987  23.290  1.00  0.00     0.150 C 
HETATM    2  C3  UNL     1     -23.947 -17.857  22.105  1.00  0.00     0.045 C 
HETATM    3  C4  UNL     1     -23.030 -17.094  21.171  1.00  0.00    -0.010 C 
HETATM    4  C5  UNL     1     -23.822 -15.899  20.658  1.00  0.00     0.009 C 
HETATM    5  C6  UNL     1     -24.276 -15.056  21.812  1.00  0.00    -0.010 C 
HETATM    6  C7  UNL     1     -23.026 -14.537  22.507  1.00  0.00     0.037 C 
HETATM    7  C8  UNL     1     -22.291 -15.717  23.057  1.00  0.00     0.187 C 
HETATM    8  C9  UNL     1     -21.829 -16.604  21.911  1.00  0.00     0.037 C 
HETATM    9  N2  UNL     1     -23.106 -16.482  23.954  1.00  0.00    -0.060 N 
ATOM     10  H21 UNL     1     -22.575 -17.237  24.389  1.00  0.00     0.278 HD
ATOM     11  H22 UNL     1     -23.339 -15.950  24.793  1.00  0.00     0.278 HD
HETATM   12  C10 UNL     1     -25.092 -15.820  22.819  1.00  0.00     0.045 C 
ENDROOT
BRANCH   1  13
HETATM   13  C1  UNL     1     -25.033 -17.855  24.286  1.00  0.00     0.268 C 
BRANCH  13  14
HETATM   14  N1  UNL     1     -25.670 -18.974  23.586  1.00  0.00    -0.077 N 
ATOM     15  H13 UNL     1     -25.536 -18.923  22.575  1.00  0.00     0.274 HD
ATOM     16  H12 UNL     1     -25.189 -19.858  23.752  1.00  0.00     0.274 HD
ATOM     17  H11 UNL     1     -26.657 -19.017  23.842  1.00  0.00     0.274 HD
ENDBRANCH  13  14
ENDBRANCH   1  13
TORSDOF 2
ENDMDL
MODEL 4
REMARK VINA RESULT: -5.139386549      7.343      8.892
REMARK  2 active torsions:
REMARK  status: ('A' for Active; 'I' for Inactive)
REMARK    1  A    between atoms: N1_1  and  C1_5 
REMARK    2  A    between atoms: C1_5  and  C2_6 
ROOT
HETATM    1  C2  UNL     1     -16.579 -17.478  17.502  1.00  0.00     0.150 C 
HETATM    2  C3  UNL     1     -16.913 -17.804  16.062  1.00  0.00     0.045 C 
HETATM    3  C4  UNL     1     -18.362 -17.459  15.783  1.00  0.00    -0.010 C 
HETATM    4  C5  UNL     1     -19.207 -18.353  16.680  1.00  0.00     0.009 C 
HETATM    5  C6  UNL     1     -18.841 -18.126  18.116  1.00  0.00    -0.010 C 
HETATM    6  C7  UNL     1     -19.174 -16.676  18.439  1.00  0.00     0.037 C 
HETATM    7  C8  UNL     1     -18.294 -15.811  17.595  1.00  0.00     0.187 C 
HETATM    8  C9  UNL     1     -18.628 -16.030  16.127  1.00  0.00     0.037 C 
HETATM    9  N2  UNL     1     -16.905 -16.087  17.814  1.00  0.00    -0.060 N 
ATOM     10  H21 UNL     1     -16.309 -15.440  17.299  1.00  0.00     0.278 HD
ATOM     11  H22 UNL     1     -16.621 -15.841  18.763  1.00  0.00     0.278 HD
HETATM   12  C10 UNL     1     -17.380 -18.347  18.399  1.00  0.00     0.045 C 
ENDROOT
BRANCH   1  13
HETATM   13  C1  UNL     1     -15.088 -17.632  17.668  1.00  0.00     0.268 C 
BRANCH  13  14
HETATM   14  N1  UNL     1     -14.416 -16.417  17.198  1.00  0.00    -0.077 N 
ATOM     15  H13 UNL     1     -15.032 -15.603  17.216  1.00  0.00     0.274 HD
ATOM     16  H12 UNL     1     -13.715 -16.083  17.860  1.00  0.00     0.274 HD
ATOM     17  H11 UNL     1     -14.023 -16.583  16.271  1.00  0.00     0.274 HD
ENDBRANCH  13  14
ENDBRANCH   1  13
TORSDOF 2
ENDMDL
MODEL 5
REMARK VINA RESULT: -4.993982662      7.361      8.890
REMARK  2 active torsions:
REMARK  status: ('A' for Active; 'I' for Inactive)
REMARK    1  A    between atoms: N1_1  and  C1_5 
REMARK    2  A    between atoms: C1_5  and  C2_6 
ROOT
HETATM    1  C2  UNL     1     -16.702 -17.615  17.461  1.00  0.00     0.150 C 
HETATM    2  C3  UNL     1     -17.606 -18.488  18.305  1.00  0.00     0.045 C 
HETATM    3  C4  UNL     1     -19.054 -18.199  17.971  1.00  0.00    -0.010 C 
HETATM    4  C5  UNL     1     -19.311 -16.747  18.350  1.00  0.00     0.009 C 
HETATM    5  C6  UNL     1     -18.371 -15.851  17.600  1.00  0.00    -0.010 C 
HETATM    6  C7  UNL     1     -18.678 -16.019  16.118  1.00  0.00     0.037 C 
HETATM    7  C8  UNL     1     -18.365 -17.433  15.748  1.00  0.00     0.187 C 
HETATM    8  C9  UNL     1     -19.292 -18.371  16.506  1.00  0.00     0.037 C 
HETATM    9  N2  UNL     1     -17.003 -17.771  16.038  1.00  0.00    -0.060 N 
ATOM     10  H21 UNL     1     -16.772 -18.708  15.709  1.00  0.00     0.278 HD
ATOM     11  H22 UNL     1     -16.354 -17.236  15.459  1.00  0.00     0.278 HD
HETATM   12  C10 UNL     1     -16.922 -16.193  17.821  1.00  0.00     0.045 C 
ENDROOT
BRANCH   1  13
HETATM   13  C1  UNL     1     -15.287 -18.090  17.670  1.00  0.00     0.268 C 
BRANCH  13  14
HETATM   14  N1  UNL     1     -14.354 -17.013  17.328  1.00  0.00    -0.077 N 
ATOM     15  H13 UNL     1     -14.801 -16.095  17.343  1.00  0.00     0.274 HD
ATOM     16  H12 UNL     1     -13.665 -16.850  18.064  1.00  0.00     0.274 HD
ATOM     17  H11 UNL     1     -13.917 -17.214  16.429  1.00  0.00     0.274 HD
ENDBRANCH  13  14
ENDBRANCH   1  13
TORSDOF 2
ENDMDL
