MODEL 1
REMARK VINA RESULT: -6.324741279      0.000      0.000
REMARK  14 active torsions:
REMARK  status: ('A' for Active; 'I' for Inactive)
REMARK    1  A    between atoms: N1_1  and  C1_5 
REMARK    2  A    between atoms: C1_5  and  C2_6 
REMARK    3  A    between atoms: C2_6  and  N5_21 
REMARK    4  A    between atoms: C3_7  and  C4_8 
REMARK    5  A    between atoms: C4_8  and  N2_9 
REMARK    6  A    between atoms: C4_8  and  C5_13 
REMARK    7  A    between atoms: C5_13  and  N3_14 
REMARK    8  A    between atoms: C5_13  and  C7_18 
REMARK    9  A    between atoms: N3_14  and  C6_15 
REMARK   10  A    between atoms: C6_15  and  O1_16 
REMARK   11  A    between atoms: N5_21  and  C8_23 
REMARK   12  A    between atoms: C8_23  and  C9_24 
REMARK   13  A    between atoms: C8_23  and  C10_29 
REMARK   14  A    between atoms: C9_24  and  N6_25 
ROOT
HETATM    1  C2  UNL     1      60.057  38.214  46.063  1.00  0.00     0.033 C 
HETATM    2  C3  UNL     1      60.644  37.816  47.273  1.00  0.00     0.036 C 
ENDROOT
BRANCH   1   3
HETATM    3  C1  UNL     1      59.857  37.218  45.015  1.00  0.00     0.286 C 
BRANCH   3   4
HETATM    4  N1  UNL     1      58.382  36.901  44.929  1.00  0.00    -0.074 N 
ATOM      5  H13 UNL     1      58.142  36.382  44.084  1.00  0.00     0.274 HD
ATOM      6  H12 UNL     1      58.093  36.199  45.610  1.00  0.00     0.274 HD
ATOM      7  H11 UNL     1      57.856  37.771  45.016  1.00  0.00     0.274 HD
ENDBRANCH   3   4
ENDBRANCH   1   3
BRANCH   1   8
HETATM    8  N5  UNL     1      60.539  39.466  45.504  1.00  0.00    -0.356 N 
ATOM      9  H5  UNL     1      61.532  39.696  45.538  1.00  0.00     0.166 HD
BRANCH   8  10
HETATM   10  C8  UNL     1      59.648  40.337  44.929  1.00  0.00     0.100 C 
BRANCH  10  11
HETATM   11  C9  UNL     1      58.349  40.611  45.567  1.00  0.00     0.291 C 
BRANCH  11  12
HETATM   12  N6  UNL     1      57.627  41.613  44.656  1.00  0.00    -0.074 N 
ATOM     13  H63 UNL     1      57.713  42.580  44.968  1.00  0.00     0.274 HD
ATOM     14  H62 UNL     1      58.079  41.734  43.749  1.00  0.00     0.274 HD
ATOM     15  H61 UNL     1      56.662  41.291  44.589  1.00  0.00     0.274 HD
ENDBRANCH  11  12
ENDBRANCH  10  11
BRANCH  10  16
HETATM   16  C10 UNL     1      59.910  41.031  43.687  1.00  0.00     0.279 C 
HETATM   17  N7  UNL     1      60.630  42.351  43.804  1.00  0.00    -0.056 NA
HETATM   18  O3  UNL     1      59.654  40.684  42.537  1.00  0.00    -0.270 OA
ENDBRANCH  10  16
ENDBRANCH   8  10
ENDBRANCH   1   8
BRANCH   2  19
HETATM   19  C4  UNL     1      59.962  36.745  48.147  1.00  0.00     0.252 C 
BRANCH  19  20
HETATM   20  N2  UNL     1      60.273  35.361  47.607  1.00  0.00    -0.068 N 
ATOM     21  H23 UNL     1      61.258  35.120  47.715  1.00  0.00     0.275 HD
ATOM     22  H22 UNL     1      59.876  34.624  48.190  1.00  0.00     0.275 HD
ATOM     23  H21 UNL     1      59.965  35.289  46.637  1.00  0.00     0.275 HD
ENDBRANCH  19  20
BRANCH  19  24
HETATM   24  C5  UNL     1      60.493  36.808  49.483  1.00  0.00     0.287 C 
BRANCH  24  25
HETATM   25  N3  UNL     1      60.950  35.663  50.375  1.00  0.00    -0.420 NA
BRANCH  25  26
HETATM   26  C6  UNL     1      61.380  34.765  51.086  1.00  0.00     0.310 C 
BRANCH  26  27
HETATM   27  O1  UNL     1      62.035  34.682  52.225  1.00  0.00    -0.346 OA
ATOM     28  H1  UNL     1      62.307  33.988  52.813  1.00  0.00     0.219 HD
ENDBRANCH  26  27
ENDBRANCH  25  26
ENDBRANCH  24  25
BRANCH  24  29
HETATM   29  C7  UNL     1      58.983  36.454  50.322  1.00  0.00     0.269 C 
HETATM   30  N4  UNL     1      58.667  37.291  51.395  1.00  0.00    -0.059 NA
HETATM   31  O2  UNL     1      58.378  35.602  49.862  1.00  0.00    -0.273 OA
ENDBRANCH  24  29
ENDBRANCH  19  24
ENDBRANCH   2  19
TORSDOF 14
ENDMDL
MODEL 2
REMARK VINA RESULT: -6.296524642      0.981      1.570
REMARK  14 active torsions:
REMARK  status: ('A' for Active; 'I' for Inactive)
REMARK    1  A    between atoms: N1_1  and  C1_5 
REMARK    2  A    between atoms: C1_5  and  C2_6 
REMARK    3  A    between atoms: C2_6  and  N5_21 
REMARK    4  A    between atoms: C3_7  and  C4_8 
REMARK    5  A    between atoms: C4_8  and  N2_9 
REMARK    6  A    between atoms: C4_8  and  C5_13 
REMARK    7  A    between atoms: C5_13  and  N3_14 
REMARK    8  A    between atoms: C5_13  and  C7_18 
REMARK    9  A    between atoms: N3_14  and  C6_15 
REMARK   10  A    between atoms: C6_15  and  O1_16 
REMARK   11  A    between atoms: N5_21  and  C8_23 
REMARK   12  A    between atoms: C8_23  and  C9_24 
REMARK   13  A    between atoms: C8_23  and  C10_29 
REMARK   14  A    between atoms: C9_24  and  N6_25 
ROOT
HETATM    1  C2  UNL     1      60.229  38.264  46.085  1.00  0.00     0.033 C 
HETATM    2  C3  UNL     1      60.797  37.795  47.278  1.00  0.00     0.036 C 
ENDROOT
BRANCH   1   3
HETATM    3  C1  UNL     1      59.917  37.306  45.029  1.00  0.00     0.286 C 
BRANCH   3   4
HETATM    4  N1  UNL     1      58.423  37.076  45.013  1.00  0.00    -0.074 N 
ATOM      5  H13 UNL     1      58.179  36.089  44.929  1.00  0.00     0.274 HD
ATOM      6  H12 UNL     1      57.991  37.250  45.921  1.00  0.00     0.274 HD
ATOM      7  H11 UNL     1      58.015  37.644  44.270  1.00  0.00     0.274 HD
ENDBRANCH   3   4
ENDBRANCH   1   3
BRANCH   1   8
HETATM    8  N5  UNL     1      60.816  39.473  45.533  1.00  0.00    -0.356 N 
ATOM      9  H5  UNL     1      61.792  39.702  45.720  1.00  0.00     0.166 HD
BRANCH   8  10
HETATM   10  C8  UNL     1      60.047  40.303  44.756  1.00  0.00     0.100 C 
BRANCH  10  11
HETATM   11  C9  UNL     1      60.565  40.830  43.481  1.00  0.00     0.291 C 
BRANCH  11  12
HETATM   12  N6  UNL     1      59.767  42.109  43.193  1.00  0.00    -0.074 N 
ATOM     13  H63 UNL     1      59.003  42.267  43.849  1.00  0.00     0.274 HD
ATOM     14  H62 UNL     1      60.285  42.964  43.396  1.00  0.00     0.274 HD
ATOM     15  H61 UNL     1      59.462  42.040  42.222  1.00  0.00     0.274 HD
ENDBRANCH  11  12
ENDBRANCH  10  11
BRANCH  10  16
HETATM   16  C10 UNL     1      58.709  40.713  45.122  1.00  0.00     0.279 C 
HETATM   17  N7  UNL     1      57.586  40.100  44.324  1.00  0.00    -0.056 NA
HETATM   18  O3  UNL     1      58.350  41.473  46.018  1.00  0.00    -0.270 OA
ENDBRANCH  10  16
ENDBRANCH   8  10
ENDBRANCH   1   8
BRANCH   2  19
HETATM   19  C4  UNL     1      60.033  36.780  48.153  1.00  0.00     0.252 C 
BRANCH  19  20
HETATM   20  N2  UNL     1      60.282  35.371  47.646  1.00  0.00    -0.068 N 
ATOM     21  H23 UNL     1      60.659  35.365  46.699  1.00  0.00     0.275 HD
ATOM     22  H22 UNL     1      61.068  34.927  48.121  1.00  0.00     0.275 HD
ATOM     23  H21 UNL     1      59.428  34.818  47.723  1.00  0.00     0.275 HD
ENDBRANCH  19  20
BRANCH  19  24
HETATM   24  C5  UNL     1      60.530  36.840  49.501  1.00  0.00     0.287 C 
BRANCH  24  25
HETATM   25  N3  UNL     1      60.968  35.693  50.401  1.00  0.00    -0.420 NA
BRANCH  25  26
HETATM   26  C6  UNL     1      61.381  34.780  51.102  1.00  0.00     0.310 C 
BRANCH  26  27
HETATM   27  O1  UNL     1      62.029  34.672  52.242  1.00  0.00    -0.346 OA
ATOM     28  H1  UNL     1      62.518  33.994  52.694  1.00  0.00     0.219 HD
ENDBRANCH  26  27
ENDBRANCH  25  26
ENDBRANCH  24  25
BRANCH  24  29
HETATM   29  C7  UNL     1      59.001  36.480  50.301  1.00  0.00     0.269 C 
HETATM   30  N4  UNL     1      58.667  37.298  51.384  1.00  0.00    -0.059 NA
HETATM   31  O2  UNL     1      58.400  35.641  49.811  1.00  0.00    -0.273 OA
ENDBRANCH  24  29
ENDBRANCH  19  24
ENDBRANCH   2  19
TORSDOF 14
ENDMDL
MODEL 3
REMARK VINA RESULT: -6.275275584      1.967      7.145
REMARK  14 active torsions:
REMARK  status: ('A' for Active; 'I' for Inactive)
REMARK    1  A    between atoms: N1_1  and  C1_5 
REMARK    2  A    between atoms: C1_5  and  C2_6 
REMARK    3  A    between atoms: C2_6  and  N5_21 
REMARK    4  A    between atoms: C3_7  and  C4_8 
REMARK    5  A    between atoms: C4_8  and  N2_9 
REMARK    6  A    between atoms: C4_8  and  C5_13 
REMARK    7  A    between atoms: C5_13  and  N3_14 
REMARK    8  A    between atoms: C5_13  and  C7_18 
REMARK    9  A    between atoms: N3_14  and  C6_15 
REMARK   10  A    between atoms: C6_15  and  O1_16 
REMARK   11  A    between atoms: N5_21  and  C8_23 
REMARK   12  A    between atoms: C8_23  and  C9_24 
REMARK   13  A    between atoms: C8_23  and  C10_29 
REMARK   14  A    between atoms: C9_24  and  N6_25 
ROOT
HETATM    1  C2  UNL     1      60.463  37.289  48.231  1.00  0.00     0.033 C 
HETATM    2  C3  UNL     1      59.906  38.573  48.150  1.00  0.00     0.036 C 
ENDROOT
BRANCH   1   3
HETATM    3  C1  UNL     1      59.686  36.151  47.750  1.00  0.00     0.286 C 
BRANCH   3   4
HETATM    4  N1  UNL     1      60.398  35.550  46.559  1.00  0.00    -0.074 N 
ATOM      5  H13 UNL     1      59.860  34.805  46.117  1.00  0.00     0.274 HD
ATOM      6  H12 UNL     1      60.435  36.187  45.764  1.00  0.00     0.274 HD
ATOM      7  H11 UNL     1      61.324  35.241  46.857  1.00  0.00     0.274 HD
ENDBRANCH   3   4
ENDBRANCH   1   3
BRANCH   1   8
HETATM    8  N5  UNL     1      61.141  36.966  49.476  1.00  0.00    -0.356 N 
ATOM      9  H5  UNL     1      62.060  37.359  49.677  1.00  0.00     0.166 HD
BRANCH   8  10
HETATM   10  C8  UNL     1      60.534  36.129  50.378  1.00  0.00     0.100 C 
BRANCH  10  11
HETATM   11  C9  UNL     1      61.136  34.828  50.718  1.00  0.00     0.291 C 
BRANCH  11  12
HETATM   12  N6  UNL     1      61.410  34.865  52.226  1.00  0.00    -0.074 N 
ATOM     13  H63 UNL     1      60.656  35.292  52.766  1.00  0.00     0.274 HD
ATOM     14  H62 UNL     1      61.375  33.946  52.668  1.00  0.00     0.274 HD
ATOM     15  H61 UNL     1      62.308  35.336  52.340  1.00  0.00     0.274 HD
ENDBRANCH  11  12
ENDBRANCH  10  11
BRANCH  10  16
HETATM   16  C10 UNL     1      59.291  36.453  51.044  1.00  0.00     0.279 C 
HETATM   17  N7  UNL     1      58.491  35.285  51.561  1.00  0.00    -0.056 NA
HETATM   18  O3  UNL     1      58.802  37.556  51.276  1.00  0.00    -0.270 OA
ENDBRANCH  10  16
ENDBRANCH   8  10
ENDBRANCH   1   8
BRANCH   2  19
HETATM   19  C4  UNL     1      59.520  39.164  46.779  1.00  0.00     0.252 C 
BRANCH  19  20
HETATM   20  N2  UNL     1      58.990  40.576  46.956  1.00  0.00    -0.068 N 
ATOM     21  H23 UNL     1      59.737  41.243  47.151  1.00  0.00     0.275 HD
ATOM     22  H22 UNL     1      58.662  40.974  46.076  1.00  0.00     0.275 HD
ATOM     23  H21 UNL     1      58.267  40.588  47.675  1.00  0.00     0.275 HD
ENDBRANCH  19  20
BRANCH  19  24
HETATM   24  C5  UNL     1      60.690  39.251  45.948  1.00  0.00     0.287 C 
BRANCH  24  25
HETATM   25  N3  UNL     1      60.992  40.249  44.839  1.00  0.00    -0.420 NA
BRANCH  25  26
HETATM   26  C6  UNL     1      61.240  41.097  43.993  1.00  0.00     0.310 C 
BRANCH  26  27
HETATM   27  O1  UNL     1      61.062  42.395  43.865  1.00  0.00    -0.346 OA
ATOM     28  H1  UNL     1      60.750  43.104  44.414  1.00  0.00     0.219 HD
ENDBRANCH  26  27
ENDBRANCH  25  26
ENDBRANCH  24  25
BRANCH  24  29
HETATM   29  C7  UNL     1      60.028  38.380  44.566  1.00  0.00     0.269 C 
HETATM   30  N4  UNL     1      58.868  38.916  44.001  1.00  0.00    -0.059 NA
HETATM   31  O2  UNL     1      60.655  37.487  44.229  1.00  0.00    -0.273 OA
ENDBRANCH  24  29
ENDBRANCH  19  24
ENDBRANCH   2  19
TORSDOF 14
ENDMDL
MODEL 4
REMARK VINA RESULT: -6.268856777      1.797      7.294
REMARK  14 active torsions:
REMARK  status: ('A' for Active; 'I' for Inactive)
REMARK    1  A    between atoms: N1_1  and  C1_5 
REMARK    2  A    between atoms: C1_5  and  C2_6 
REMARK    3  A    between atoms: C2_6  and  N5_21 
REMARK    4  A    between atoms: C3_7  and  C4_8 
REMARK    5  A    between atoms: C4_8  and  N2_9 
REMARK    6  A    between atoms: C4_8  and  C5_13 
REMARK    7  A    between atoms: C5_13  and  N3_14 
REMARK    8  A    between atoms: C5_13  and  C7_18 
REMARK    9  A    between atoms: N3_14  and  C6_15 
REMARK   10  A    between atoms: C6_15  and  O1_16 
REMARK   11  A    between atoms: N5_21  and  C8_23 
REMARK   12  A    between atoms: C8_23  and  C9_24 
REMARK   13  A    between atoms: C8_23  and  C10_29 
REMARK   14  A    between atoms: C9_24  and  N6_25 
ROOT
HETATM    1  C2  UNL     1      60.595  37.153  48.079  1.00  0.00     0.033 C 
HETATM    2  C3  UNL     1      60.033  38.390  47.731  1.00  0.00     0.036 C 
ENDROOT
BRANCH   1   3
HETATM    3  C1  UNL     1      59.887  35.929  47.715  1.00  0.00     0.286 C 
BRANCH   3   4
HETATM    4  N1  UNL     1      60.451  35.417  46.410  1.00  0.00    -0.074 N 
ATOM      5  H13 UNL     1      60.299  36.064  45.637  1.00  0.00     0.274 HD
ATOM      6  H12 UNL     1      61.471  35.420  46.396  1.00  0.00     0.274 HD
ATOM      7  H11 UNL     1      60.060  34.492  46.229  1.00  0.00     0.274 HD
ENDBRANCH   3   4
ENDBRANCH   1   3
BRANCH   1   8
HETATM    8  N5  UNL     1      61.142  37.057  49.422  1.00  0.00    -0.356 N 
ATOM      9  H5  UNL     1      61.972  37.591  49.678  1.00  0.00     0.166 HD
BRANCH   8  10
HETATM   10  C8  UNL     1      60.531  36.244  50.344  1.00  0.00     0.100 C 
BRANCH  10  11
HETATM   11  C9  UNL     1      61.168  34.988  50.775  1.00  0.00     0.291 C 
BRANCH  11  12
HETATM   12  N6  UNL     1      61.391  35.120  52.288  1.00  0.00    -0.074 N 
ATOM     13  H63 UNL     1      61.516  34.224  52.759  1.00  0.00     0.274 HD
ATOM     14  H62 UNL     1      62.298  35.517  52.531  1.00  0.00     0.274 HD
ATOM     15  H61 UNL     1      60.602  35.660  52.645  1.00  0.00     0.274 HD
ENDBRANCH  11  12
ENDBRANCH  10  11
BRANCH  10  16
HETATM   16  C10 UNL     1      59.250  36.552  50.942  1.00  0.00     0.279 C 
HETATM   17  N7  UNL     1      58.470  35.379  51.479  1.00  0.00    -0.056 NA
HETATM   18  O3  UNL     1      58.713  37.646  51.103  1.00  0.00    -0.270 OA
ENDBRANCH  10  16
ENDBRANCH   8  10
ENDBRANCH   1   8
BRANCH   2  19
HETATM   19  C4  UNL     1      59.787  38.738  46.249  1.00  0.00     0.252 C 
BRANCH  19  20
HETATM   20  N2  UNL     1      58.453  38.170  45.799  1.00  0.00    -0.068 N 
ATOM     21  H23 UNL     1      57.837  37.970  46.587  1.00  0.00     0.275 HD
ATOM     22  H22 UNL     1      57.876  38.870  45.334  1.00  0.00     0.275 HD
ATOM     23  H21 UNL     1      58.605  37.349  45.213  1.00  0.00     0.275 HD
ENDBRANCH  19  20
BRANCH  19  24
HETATM   24  C5  UNL     1      59.711  40.167  46.099  1.00  0.00     0.287 C 
BRANCH  24  25
HETATM   25  N3  UNL     1      58.778  40.978  45.212  1.00  0.00    -0.420 NA
BRANCH  25  26
HETATM   26  C6  UNL     1      57.978  41.612  44.538  1.00  0.00     0.310 C 
BRANCH  26  27
HETATM   27  O1  UNL     1      56.739  41.448  44.124  1.00  0.00    -0.346 OA
ATOM     28  H1  UNL     1      56.236  41.677  43.352  1.00  0.00     0.219 HD
ENDBRANCH  26  27
ENDBRANCH  25  26
ENDBRANCH  24  25
BRANCH  24  29
HETATM   29  C7  UNL     1      60.695  40.274  44.640  1.00  0.00     0.269 C 
HETATM   30  N4  UNL     1      61.591  41.345  44.581  1.00  0.00    -0.059 NA
HETATM   31  O2  UNL     1      60.541  39.413  43.906  1.00  0.00    -0.273 OA
ENDBRANCH  24  29
ENDBRANCH  19  24
ENDBRANCH   2  19
TORSDOF 14
ENDMDL
MODEL 5
REMARK VINA RESULT: -6.201596688      1.632      7.288
REMARK  14 active torsions:
REMARK  status: ('A' for Active; 'I' for Inactive)
REMARK    1  A    between atoms: N1_1  and  C1_5 
REMARK    2  A    between atoms: C1_5  and  C2_6 
REMARK    3  A    between atoms: C2_6  and  N5_21 
REMARK    4  A    between atoms: C3_7  and  C4_8 
REMARK    5  A    between atoms: C4_8  and  N2_9 
REMARK    6  A    between atoms: C4_8  and  C5_13 
REMARK    7  A    between atoms: C5_13  and  N3_14 
REMARK    8  A    between atoms: C5_13  and  C7_18 
REMARK    9  A    between atoms: N3_14  and  C6_15 
REMARK   10  A    between atoms: C6_15  and  O1_16 
REMARK   11  A    between atoms: N5_21  and  C8_23 
REMARK   12  A    between atoms: C8_23  and  C9_24 
REMARK   13  A    between atoms: C8_23  and  C10_29 
REMARK   14  A    between atoms: C9_24  and  N6_25 
ROOT
HETATM    1  C2  UNL     1      60.480  37.162  47.818  1.00  0.00     0.033 C 
HETATM    2  C3  UNL     1      59.863  38.392  47.548  1.00  0.00     0.036 C 
ENDROOT
BRANCH   1   3
HETATM    3  C1  UNL     1      59.861  35.938  47.319  1.00  0.00     0.286 C 
BRANCH   3   4
HETATM    4  N1  UNL     1      60.611  35.487  46.087  1.00  0.00    -0.074 N 
ATOM      5  H13 UNL     1      60.064  34.852  45.506  1.00  0.00     0.274 HD
ATOM      6  H12 UNL     1      60.728  36.235  45.404  1.00  0.00     0.274 HD
ATOM      7  H11 UNL     1      61.501  35.081  46.379  1.00  0.00     0.274 HD
ENDBRANCH   3   4
ENDBRANCH   1   3
BRANCH   1   8
HETATM    8  N5  UNL     1      60.972  36.980  49.173  1.00  0.00    -0.356 N 
ATOM      9  H5  UNL     1      61.851  37.409  49.462  1.00  0.00     0.166 HD
BRANCH   8  10
HETATM   10  C8  UNL     1      60.244  36.228  50.061  1.00  0.00     0.100 C 
BRANCH  10  11
HETATM   11  C9  UNL     1      59.077  36.803  50.751  1.00  0.00     0.291 C 
BRANCH  11  12
HETATM   12  N6  UNL     1      58.719  35.822  51.875  1.00  0.00    -0.074 N 
ATOM     13  H63 UNL     1      59.534  35.437  52.352  1.00  0.00     0.274 HD
ATOM     14  H62 UNL     1      58.300  36.272  52.689  1.00  0.00     0.274 HD
ATOM     15  H61 UNL     1      58.123  35.111  51.451  1.00  0.00     0.274 HD
ENDBRANCH  11  12
ENDBRANCH  10  11
BRANCH  10  16
HETATM   16  C10 UNL     1      60.562  34.852  50.376  1.00  0.00     0.279 C 
HETATM   17  N7  UNL     1      61.711  34.638  51.328  1.00  0.00    -0.056 NA
HETATM   18  O3  UNL     1      60.006  33.823  49.999  1.00  0.00    -0.270 OA
ENDBRANCH  10  16
ENDBRANCH   8  10
ENDBRANCH   1   8
BRANCH   2  19
HETATM   19  C4  UNL     1      59.661  38.854  46.091  1.00  0.00     0.252 C 
BRANCH  19  20
HETATM   20  N2  UNL     1      58.300  38.404  45.590  1.00  0.00    -0.068 N 
ATOM     21  H23 UNL     1      57.972  37.567  46.071  1.00  0.00     0.275 HD
ATOM     22  H22 UNL     1      57.557  39.041  45.878  1.00  0.00     0.275 HD
ATOM     23  H21 UNL     1      58.326  38.280  44.578  1.00  0.00     0.275 HD
ENDBRANCH  19  20
BRANCH  19  24
HETATM   24  C5  UNL     1      59.679  40.291  46.037  1.00  0.00     0.287 C 
BRANCH  24  25
HETATM   25  N3  UNL     1      58.745  41.222  45.277  1.00  0.00    -0.420 NA
BRANCH  25  26
HETATM   26  C6  UNL     1      57.998  42.012  44.718  1.00  0.00     0.310 C 
BRANCH  26  27
HETATM   27  O1  UNL     1      57.584  43.244  44.927  1.00  0.00    -0.346 OA
ATOM     28  H1  UNL     1      57.935  44.118  44.802  1.00  0.00     0.219 HD
ENDBRANCH  26  27
ENDBRANCH  25  26
ENDBRANCH  24  25
BRANCH  24  29
HETATM   29  C7  UNL     1      60.558  40.429  44.515  1.00  0.00     0.269 C 
HETATM   30  N4  UNL     1      61.570  41.393  44.476  1.00  0.00    -0.059 NA
HETATM   31  O2  UNL     1      60.249  39.667  43.723  1.00  0.00    -0.273 OA
ENDBRANCH  24  29
ENDBRANCH  19  24
ENDBRANCH   2  19
TORSDOF 14
ENDMDL
