MODEL 1
REMARK VINA RESULT: -7.078410143      0.000      0.000
REMARK  12 active torsions:
REMARK  status: ('A' for Active; 'I' for Inactive)
REMARK    1  A    between atoms: C2_2  and  N1_3 
REMARK    2  A    between atoms: C2_2  and  C6_12 
REMARK       I    between atoms: N1_3  and  C3_5 
REMARK    3  A    between atoms: C3_5  and  C4_7 
REMARK    4  A    between atoms: C4_7  and  N2_8 
REMARK    5  A    between atoms: N2_8  and  C5_10 
REMARK       I    between atoms: C6_12  and  N3_14 
REMARK    6  A    between atoms: N3_14  and  C7_16 
REMARK    7  A    between atoms: C7_16  and  C8_17 
REMARK    8  A    between atoms: C8_17  and  O4_18 
REMARK    9  A    between atoms: C8_17  and  N4_20 
REMARK   10  A    between atoms: N4_20  and  N5_21 
REMARK   11  A    between atoms: N5_21  and  C9_22 
REMARK   12  A    between atoms: C9_22  and  N6_23 
ROOT
HETATM    1  C6  UNL     1      59.451  36.507  46.535  1.00  0.00     0.240 C 
HETATM    2  O3  UNL     1      60.095  35.516  46.119  1.00  0.00    -0.271 OA
HETATM    3  N3  UNL     1      58.497  37.103  45.677  1.00  0.00    -0.356 N 
ATOM      4  H3  UNL     1      57.964  37.911  46.001  1.00  0.00     0.162 HD
ENDROOT
BRANCH   3   5
HETATM    5  C7  UNL     1      58.267  36.584  44.346  1.00  0.00     0.173 C 
BRANCH   5   6
HETATM    6  C8  UNL     1      57.960  37.716  43.393  1.00  0.00     0.244 C 
BRANCH   6   7
HETATM    7  O4  UNL     1      58.435  38.927  43.898  1.00  0.00    -0.377 OA
ATOM      8  H4  UNL     1      57.940  39.188  44.666  1.00  0.00     0.211 HD
ENDBRANCH   6   7
BRANCH   6   9
HETATM    9  N4  UNL     1      58.709  37.441  42.155  1.00  0.00    -0.113 NA
BRANCH   9  10
HETATM   10  N5  UNL     1      58.808  36.061  41.952  1.00  0.00    -0.125 NA
BRANCH  10  11
HETATM   11  C9  UNL     1      58.380  35.716  40.616  1.00  0.00     0.268 C 
BRANCH  11  12
HETATM   12  N6  UNL     1      58.793  34.384  40.353  1.00  0.00    -0.327 N 
HETATM   13  N7  UNL     1      58.764  33.946  39.190  1.00  0.00    -0.348 N 
ATOM     14  H72 UNL     1      58.442  34.555  38.438  1.00  0.00     0.176 HD
ATOM     15  H71 UNL     1      59.061  32.988  39.001  1.00  0.00     0.176 HD
ATOM     16  H6  UNL     1      59.112  33.787  41.117  1.00  0.00     0.181 HD
ENDBRANCH  11  12
ENDBRANCH  10  11
ENDBRANCH   9  10
ENDBRANCH   6   9
ENDBRANCH   5   6
ENDBRANCH   3   5
BRANCH   1  17
HETATM   17  C2  UNL     1      59.705  37.010  47.887  1.00  0.00     0.172 C 
HETATM   18  C1  UNL     1      60.271  38.420  47.838  1.00  0.00     0.042 C 
BRANCH  17  19
HETATM   19  N1  UNL     1      60.599  36.129  48.640  1.00  0.00    -0.347 N 
HETATM   20  C3  UNL     1      60.170  35.252  49.620  1.00  0.00     0.236 C 
HETATM   21  O1  UNL     1      58.912  35.226  49.864  1.00  0.00    -0.272 OA
ATOM     22  H1  UNL     1      61.597  36.164  48.430  1.00  0.00     0.163 HD
BRANCH  20  23
HETATM   23  C4  UNL     1      61.003  34.360  50.393  1.00  0.00     0.224 C 
BRANCH  23  24
HETATM   24  N2  UNL     1      61.980  35.058  51.188  1.00  0.00    -0.359 N 
ATOM     25  H2  UNL     1      62.954  34.757  51.191  1.00  0.00     0.162 HD
BRANCH  24  26
HETATM   26  C5  UNL     1      61.559  36.194  51.983  1.00  0.00     0.348 C 
HETATM   27  O2  UNL     1      60.919  36.013  53.050  1.00  0.00    -0.284 OA
ENDBRANCH  24  26
ENDBRANCH  23  24
ENDBRANCH  20  23
ENDBRANCH  17  19
ENDBRANCH   1  17
TORSDOF 12
ENDMDL
MODEL 2
REMARK VINA RESULT: -6.848593528      1.092      1.232
REMARK  12 active torsions:
REMARK  status: ('A' for Active; 'I' for Inactive)
REMARK    1  A    between atoms: C2_2  and  N1_3 
REMARK    2  A    between atoms: C2_2  and  C6_12 
REMARK       I    between atoms: N1_3  and  C3_5 
REMARK    3  A    between atoms: C3_5  and  C4_7 
REMARK    4  A    between atoms: C4_7  and  N2_8 
REMARK    5  A    between atoms: N2_8  and  C5_10 
REMARK       I    between atoms: C6_12  and  N3_14 
REMARK    6  A    between atoms: N3_14  and  C7_16 
REMARK    7  A    between atoms: C7_16  and  C8_17 
REMARK    8  A    between atoms: C8_17  and  O4_18 
REMARK    9  A    between atoms: C8_17  and  N4_20 
REMARK   10  A    between atoms: N4_20  and  N5_21 
REMARK   11  A    between atoms: N5_21  and  C9_22 
REMARK   12  A    between atoms: C9_22  and  N6_23 
ROOT
HETATM    1  C6  UNL     1      59.789  36.902  46.252  1.00  0.00     0.240 C 
HETATM    2  O3  UNL     1      59.832  35.739  45.787  1.00  0.00    -0.271 OA
HETATM    3  N3  UNL     1      59.673  37.987  45.352  1.00  0.00    -0.356 N 
ATOM      4  H3  UNL     1      59.636  38.940  45.715  1.00  0.00     0.162 HD
ENDROOT
BRANCH   3   5
HETATM    5  C7  UNL     1      59.605  37.764  43.924  1.00  0.00     0.173 C 
BRANCH   5   6
HETATM    6  C8  UNL     1      58.162  37.686  43.480  1.00  0.00     0.244 C 
BRANCH   6   7
HETATM    7  O4  UNL     1      57.898  38.636  42.491  1.00  0.00    -0.377 OA
ATOM      8  H4  UNL     1      57.407  39.365  42.850  1.00  0.00     0.211 HD
ENDBRANCH   6   7
BRANCH   6   9
HETATM    9  N4  UNL     1      57.981  36.360  42.864  1.00  0.00    -0.113 NA
BRANCH   9  10
HETATM   10  N5  UNL     1      59.040  36.090  41.991  1.00  0.00    -0.125 NA
BRANCH  10  11
HETATM   11  C9  UNL     1      58.618  35.175  40.956  1.00  0.00     0.268 C 
BRANCH  11  12
HETATM   12  N6  UNL     1      58.327  35.932  39.792  1.00  0.00    -0.327 N 
HETATM   13  N7  UNL     1      58.037  37.137  39.894  1.00  0.00    -0.348 N 
ATOM     14  H72 UNL     1      58.014  37.565  40.819  1.00  0.00     0.176 HD
ATOM     15  H71 UNL     1      57.828  37.681  39.057  1.00  0.00     0.176 HD
ATOM     16  H6  UNL     1      58.355  35.488  38.873  1.00  0.00     0.181 HD
ENDBRANCH  11  12
ENDBRANCH  10  11
ENDBRANCH   9  10
ENDBRANCH   6   9
ENDBRANCH   5   6
ENDBRANCH   3   5
BRANCH   1  17
HETATM   17  C2  UNL     1      59.860  37.096  47.703  1.00  0.00     0.172 C 
HETATM   18  C1  UNL     1      60.623  38.367  48.038  1.00  0.00     0.042 C 
BRANCH  17  19
HETATM   19  N1  UNL     1      60.463  35.946  48.380  1.00  0.00    -0.347 N 
HETATM   20  C3  UNL     1      59.818  35.198  49.348  1.00  0.00     0.236 C 
HETATM   21  O1  UNL     1      58.624  35.550  49.653  1.00  0.00    -0.272 OA
ATOM     22  H1  UNL     1      61.413  35.682  48.122  1.00  0.00     0.163 HD
BRANCH  20  23
HETATM   23  C4  UNL     1      60.361  34.058  50.049  1.00  0.00     0.224 C 
BRANCH  23  24
HETATM   24  N2  UNL     1      60.514  34.290  51.461  1.00  0.00    -0.359 N 
ATOM     25  H2  UNL     1      60.064  33.675  52.139  1.00  0.00     0.162 HD
BRANCH  24  26
HETATM   26  C5  UNL     1      61.317  35.411  51.907  1.00  0.00     0.348 C 
HETATM   27  O2  UNL     1      60.994  36.042  52.946  1.00  0.00    -0.284 OA
ENDBRANCH  24  26
ENDBRANCH  23  24
ENDBRANCH  20  23
ENDBRANCH  17  19
ENDBRANCH   1  17
TORSDOF 12
ENDMDL
MODEL 3
REMARK VINA RESULT: -6.806335644      2.278      3.266
REMARK  12 active torsions:
REMARK  status: ('A' for Active; 'I' for Inactive)
REMARK    1  A    between atoms: C2_2  and  N1_3 
REMARK    2  A    between atoms: C2_2  and  C6_12 
REMARK       I    between atoms: N1_3  and  C3_5 
REMARK    3  A    between atoms: C3_5  and  C4_7 
REMARK    4  A    between atoms: C4_7  and  N2_8 
REMARK    5  A    between atoms: N2_8  and  C5_10 
REMARK       I    between atoms: C6_12  and  N3_14 
REMARK    6  A    between atoms: N3_14  and  C7_16 
REMARK    7  A    between atoms: C7_16  and  C8_17 
REMARK    8  A    between atoms: C8_17  and  O4_18 
REMARK    9  A    between atoms: C8_17  and  N4_20 
REMARK   10  A    between atoms: N4_20  and  N5_21 
REMARK   11  A    between atoms: N5_21  and  C9_22 
REMARK   12  A    between atoms: C9_22  and  N6_23 
ROOT
HETATM    1  C6  UNL     1      59.450  36.462  46.415  1.00  0.00     0.240 C 
HETATM    2  O3  UNL     1      60.063  35.438  46.034  1.00  0.00    -0.271 OA
HETATM    3  N3  UNL     1      58.591  37.117  45.501  1.00  0.00    -0.356 N 
ATOM      4  H3  UNL     1      58.085  37.952  45.797  1.00  0.00     0.162 HD
ENDROOT
BRANCH   3   5
HETATM    5  C7  UNL     1      58.421  36.619  44.153  1.00  0.00     0.173 C 
BRANCH   5   6
HETATM    6  C8  UNL     1      58.762  37.700  43.154  1.00  0.00     0.244 C 
BRANCH   6   7
HETATM    7  O4  UNL     1      57.633  38.463  42.850  1.00  0.00    -0.377 OA
ATOM      8  H4  UNL     1      57.434  39.064  43.559  1.00  0.00     0.211 HD
ENDBRANCH   6   7
BRANCH   6   9
HETATM    9  N4  UNL     1      59.725  38.598  43.815  1.00  0.00    -0.113 NA
BRANCH   9  10
HETATM   10  N5  UNL     1      59.314  39.927  43.674  1.00  0.00    -0.125 NA
BRANCH  10  11
HETATM   11  C9  UNL     1      59.141  40.541  44.969  1.00  0.00     0.268 C 
BRANCH  11  12
HETATM   12  N6  UNL     1      57.749  40.654  45.221  1.00  0.00    -0.327 N 
HETATM   13  N7  UNL     1      56.991  41.072  44.328  1.00  0.00    -0.348 N 
ATOM     14  H72 UNL     1      57.385  41.330  43.423  1.00  0.00     0.176 HD
ATOM     15  H71 UNL     1      55.991  41.153  44.508  1.00  0.00     0.176 HD
ATOM     16  H6  UNL     1      57.371  40.392  46.131  1.00  0.00     0.181 HD
ENDBRANCH  11  12
ENDBRANCH  10  11
ENDBRANCH   9  10
ENDBRANCH   6   9
ENDBRANCH   5   6
ENDBRANCH   3   5
BRANCH   1  17
HETATM   17  C2  UNL     1      59.643  36.942  47.786  1.00  0.00     0.172 C 
HETATM   18  C1  UNL     1      60.157  38.373  47.787  1.00  0.00     0.042 C 
BRANCH  17  19
HETATM   19  N1  UNL     1      60.544  36.076  48.548  1.00  0.00    -0.347 N 
HETATM   20  C3  UNL     1      60.127  35.233  49.562  1.00  0.00     0.236 C 
HETATM   21  O1  UNL     1      58.875  35.227  49.832  1.00  0.00    -0.272 OA
ATOM     22  H1  UNL     1      61.538  36.096  48.317  1.00  0.00     0.163 HD
BRANCH  20  23
HETATM   23  C4  UNL     1      60.968  34.359  50.346  1.00  0.00     0.224 C 
BRANCH  23  24
HETATM   24  N2  UNL     1      61.949  35.074  51.121  1.00  0.00    -0.359 N 
ATOM     25  H2  UNL     1      62.927  34.785  51.110  1.00  0.00     0.162 HD
BRANCH  24  26
HETATM   26  C5  UNL     1      61.528  36.211  51.915  1.00  0.00     0.348 C 
HETATM   27  O2  UNL     1      60.987  36.029  53.035  1.00  0.00    -0.284 OA
ENDBRANCH  24  26
ENDBRANCH  23  24
ENDBRANCH  20  23
ENDBRANCH  17  19
ENDBRANCH   1  17
TORSDOF 12
ENDMDL
MODEL 4
REMARK VINA RESULT: -6.733045508      2.956      8.133
REMARK  12 active torsions:
REMARK  status: ('A' for Active; 'I' for Inactive)
REMARK    1  A    between atoms: C2_2  and  N1_3 
REMARK    2  A    between atoms: C2_2  and  C6_12 
REMARK       I    between atoms: N1_3  and  C3_5 
REMARK    3  A    between atoms: C3_5  and  C4_7 
REMARK    4  A    between atoms: C4_7  and  N2_8 
REMARK    5  A    between atoms: N2_8  and  C5_10 
REMARK       I    between atoms: C6_12  and  N3_14 
REMARK    6  A    between atoms: N3_14  and  C7_16 
REMARK    7  A    between atoms: C7_16  and  C8_17 
REMARK    8  A    between atoms: C8_17  and  O4_18 
REMARK    9  A    between atoms: C8_17  and  N4_20 
REMARK   10  A    between atoms: N4_20  and  N5_21 
REMARK   11  A    between atoms: N5_21  and  C9_22 
REMARK   12  A    between atoms: C9_22  and  N6_23 
ROOT
HETATM    1  C6  UNL     1      59.497  36.897  46.138  1.00  0.00     0.240 C 
HETATM    2  O3  UNL     1      59.838  35.729  45.837  1.00  0.00    -0.271 OA
HETATM    3  N3  UNL     1      59.643  37.320  47.480  1.00  0.00    -0.356 N 
ATOM      4  H3  UNL     1      59.370  38.269  47.741  1.00  0.00     0.162 HD
ENDROOT
BRANCH   3   5
HETATM    5  C7  UNL     1      60.173  36.428  48.488  1.00  0.00     0.173 C 
BRANCH   5   6
HETATM    6  C8  UNL     1      59.106  36.104  49.507  1.00  0.00     0.244 C 
BRANCH   6   7
HETATM    7  O4  UNL     1      59.180  34.763  49.889  1.00  0.00    -0.377 OA
ATOM      8  H4  UNL     1      59.041  34.673  50.825  1.00  0.00     0.211 HD
ENDBRANCH   6   7
BRANCH   6   9
HETATM    9  N4  UNL     1      59.405  36.911  50.703  1.00  0.00    -0.113 NA
BRANCH   9  10
HETATM   10  N5  UNL     1      59.427  36.094  51.837  1.00  0.00    -0.125 NA
BRANCH  10  11
HETATM   11  C9  UNL     1      60.706  36.187  52.501  1.00  0.00     0.268 C 
BRANCH  11  12
HETATM   12  N6  UNL     1      61.479  35.058  52.127  1.00  0.00    -0.327 N 
HETATM   13  N7  UNL     1      62.146  35.085  51.078  1.00  0.00    -0.348 N 
ATOM     14  H72 UNL     1      62.126  35.924  50.498  1.00  0.00     0.176 HD
ATOM     15  H71 UNL     1      62.702  34.273  50.809  1.00  0.00     0.176 HD
ATOM     16  H6  UNL     1      61.488  34.226  52.718  1.00  0.00     0.181 HD
ENDBRANCH  11  12
ENDBRANCH  10  11
ENDBRANCH   9  10
ENDBRANCH   6   9
ENDBRANCH   5   6
ENDBRANCH   3   5
BRANCH   1  17
HETATM   17  C2  UNL     1      58.963  37.778  45.096  1.00  0.00     0.172 C 
HETATM   18  C1  UNL     1      58.310  36.965  43.989  1.00  0.00     0.042 C 
BRANCH  17  19
HETATM   19  N1  UNL     1      59.994  38.656  44.541  1.00  0.00    -0.347 N 
HETATM   20  C3  UNL     1      60.291  39.910  45.046  1.00  0.00     0.236 C 
HETATM   21  O1  UNL     1      59.611  40.302  46.059  1.00  0.00    -0.272 OA
ATOM     22  H1  UNL     1      60.525  38.325  43.735  1.00  0.00     0.163 HD
BRANCH  20  23
HETATM   23  C4  UNL     1      61.294  40.818  44.542  1.00  0.00     0.224 C 
BRANCH  23  24
HETATM   24  N2  UNL     1      61.085  41.170  43.161  1.00  0.00    -0.359 N 
ATOM     25  H2  UNL     1      61.071  40.449  42.440  1.00  0.00     0.162 HD
BRANCH  24  26
HETATM   26  C5  UNL     1      60.896  42.564  42.811  1.00  0.00     0.348 C 
HETATM   27  O2  UNL     1      60.883  43.442  43.710  1.00  0.00    -0.284 OA
ENDBRANCH  24  26
ENDBRANCH  23  24
ENDBRANCH  20  23
ENDBRANCH  17  19
ENDBRANCH   1  17
TORSDOF 12
ENDMDL
MODEL 5
REMARK VINA RESULT: -6.727115652      3.119      8.120
REMARK  12 active torsions:
REMARK  status: ('A' for Active; 'I' for Inactive)
REMARK    1  A    between atoms: C2_2  and  N1_3 
REMARK    2  A    between atoms: C2_2  and  C6_12 
REMARK       I    between atoms: N1_3  and  C3_5 
REMARK    3  A    between atoms: C3_5  and  C4_7 
REMARK    4  A    between atoms: C4_7  and  N2_8 
REMARK    5  A    between atoms: N2_8  and  C5_10 
REMARK       I    between atoms: C6_12  and  N3_14 
REMARK    6  A    between atoms: N3_14  and  C7_16 
REMARK    7  A    between atoms: C7_16  and  C8_17 
REMARK    8  A    between atoms: C8_17  and  O4_18 
REMARK    9  A    between atoms: C8_17  and  N4_20 
REMARK   10  A    between atoms: N4_20  and  N5_21 
REMARK   11  A    between atoms: N5_21  and  C9_22 
REMARK   12  A    between atoms: C9_22  and  N6_23 
ROOT
HETATM    1  C6  UNL     1      60.185  36.971  46.699  1.00  0.00     0.240 C 
HETATM    2  O3  UNL     1      59.841  38.070  47.193  1.00  0.00    -0.271 OA
HETATM    3  N3  UNL     1      60.254  35.840  47.546  1.00  0.00    -0.356 N 
ATOM      4  H3  UNL     1      60.532  34.938  47.158  1.00  0.00     0.162 HD
ENDROOT
BRANCH   3   5
HETATM    5  C7  UNL     1      59.936  35.945  48.953  1.00  0.00     0.173 C 
BRANCH   5   6
HETATM    6  C8  UNL     1      60.087  34.597  49.621  1.00  0.00     0.244 C 
BRANCH   6   7
HETATM    7  O4  UNL     1      61.412  34.383  50.005  1.00  0.00    -0.377 OA
ATOM      8  H4  UNL     1      61.775  33.629  49.554  1.00  0.00     0.211 HD
ENDBRANCH   6   7
BRANCH   6   9
HETATM    9  N4  UNL     1      59.283  34.643  50.854  1.00  0.00    -0.113 NA
BRANCH   9  10
HETATM   10  N5  UNL     1      58.687  35.901  50.988  1.00  0.00    -0.125 NA
BRANCH  10  11
HETATM   11  C9  UNL     1      59.204  36.581  52.153  1.00  0.00     0.268 C 
BRANCH  11  12
HETATM   12  N6  UNL     1      60.264  35.801  52.684  1.00  0.00    -0.327 N 
HETATM   13  N7  UNL     1      61.442  36.161  52.514  1.00  0.00    -0.348 N 
ATOM     14  H72 UNL     1      61.629  37.018  51.992  1.00  0.00     0.176 HD
ATOM     15  H71 UNL     1      62.203  35.601  52.895  1.00  0.00     0.176 HD
ATOM     16  H6  UNL     1      60.060  34.947  53.203  1.00  0.00     0.181 HD
ENDBRANCH  11  12
ENDBRANCH  10  11
ENDBRANCH   9  10
ENDBRANCH   6   9
ENDBRANCH   5   6
ENDBRANCH   3   5
BRANCH   1  17
HETATM   17  C2  UNL     1      60.501  36.897  45.270  1.00  0.00     0.172 C 
HETATM   18  C1  UNL     1      61.826  36.185  45.049  1.00  0.00     0.042 C 
BRANCH  17  19
HETATM   19  N1  UNL     1      60.523  38.220  44.645  1.00  0.00    -0.347 N 
HETATM   20  C3  UNL     1      59.560  38.668  43.758  1.00  0.00     0.236 C 
HETATM   21  O1  UNL     1      58.603  37.862  43.485  1.00  0.00    -0.272 OA
ATOM     22  H1  UNL     1      61.293  38.848  44.876  1.00  0.00     0.163 HD
BRANCH  20  23
HETATM   23  C4  UNL     1      59.529  39.960  43.112  1.00  0.00     0.224 C 
BRANCH  23  24
HETATM   24  N2  UNL     1      60.844  40.492  42.865  1.00  0.00    -0.359 N 
ATOM     25  H2  UNL     1      61.389  40.175  42.063  1.00  0.00     0.162 HD
BRANCH  24  26
HETATM   26  C5  UNL     1      61.384  41.486  43.772  1.00  0.00     0.348 C 
HETATM   27  O2  UNL     1      61.623  41.181  44.968  1.00  0.00    -0.284 OA
ENDBRANCH  24  26
ENDBRANCH  23  24
ENDBRANCH  20  23
ENDBRANCH  17  19
ENDBRANCH   1  17
TORSDOF 12
ENDMDL
