MODEL 1
REMARK VINA RESULT: -6.473369101      0.000      0.000
REMARK  12 active torsions:
REMARK  status: ('A' for Active; 'I' for Inactive)
REMARK    1  A    between atoms: N1_1  and  N2_4 
REMARK    2  A    between atoms: N2_4  and  C1_5 
REMARK    3  A    between atoms: C1_5  and  C2_6 
REMARK    4  A    between atoms: C2_6  and  N3_7 
REMARK    5  A    between atoms: C2_6  and  C7_17 
REMARK    6  A    between atoms: N3_7  and  C3_9 
REMARK    7  A    between atoms: C3_9  and  C4_10 
REMARK    8  A    between atoms: C3_9  and  C6_14 
REMARK    9  A    between atoms: C4_10  and  C5_11 
REMARK   10  A    between atoms: C7_17  and  N6_18 
REMARK   11  A    between atoms: C7_17  and  C9_22 
REMARK   12  A    between atoms: N6_18  and  C8_20 
ROOT
HETATM    1  C2  UNL     1      59.923  35.339  49.065  1.00  0.00     0.125 C 
ENDROOT
BRANCH   1   2
HETATM    2  C1  UNL     1      58.720  35.822  49.827  1.00  0.00     0.161 C 
BRANCH   2   3
HETATM    3  N2  UNL     1      59.112  37.186  50.336  1.00  0.00    -0.146 NA
BRANCH   3   4
HETATM    4  N1  UNL     1      58.610  37.366  51.621  1.00  0.00    -0.348 N 
ATOM      5  H12 UNL     1      57.648  37.168  51.897  1.00  0.00     0.172 HD
ATOM      6  H11 UNL     1      59.347  37.723  52.230  1.00  0.00     0.172 HD
ENDBRANCH   3   4
ENDBRANCH   2   3
ENDBRANCH   1   2
BRANCH   1   7
HETATM    7  N3  UNL     1      60.652  36.309  48.422  1.00  0.00    -0.401 N 
ATOM      8  H3  UNL     1      61.571  36.443  48.844  1.00  0.00     0.154 HD
BRANCH   7   9
HETATM    9  C3  UNL     1      60.448  37.145  47.351  1.00  0.00     0.175 C 
BRANCH   9  10
HETATM   10  C4  UNL     1      61.241  38.407  47.483  1.00  0.00     0.133 C 
BRANCH  10  11
HETATM   11  C5  UNL     1      60.644  39.585  46.837  1.00  0.00     0.233 C 
HETATM   12  N4  UNL     1      61.039  40.221  45.663  1.00  0.00    -0.062 NA
HETATM   13  O1  UNL     1      59.630  40.068  47.448  1.00  0.00    -0.277 OA
ENDBRANCH  10  11
ENDBRANCH   9  10
BRANCH   9  14
HETATM   14  C6  UNL     1      60.558  36.539  46.010  1.00  0.00     0.254 C 
HETATM   15  N5  UNL     1      59.393  36.000  45.349  1.00  0.00    -0.060 NA
HETATM   16  O2  UNL     1      61.640  36.441  45.323  1.00  0.00    -0.275 OA
ENDBRANCH   9  14
ENDBRANCH   7   9
ENDBRANCH   1   7
BRANCH   1  17
HETATM   17  C7  UNL     1      60.743  34.349  49.883  1.00  0.00     0.196 C 
BRANCH  17  18
HETATM   18  N6  UNL     1      60.534  34.576  51.289  1.00  0.00    -0.353 N 
ATOM     19  H6  UNL     1      59.647  34.207  51.633  1.00  0.00     0.162 HD
BRANCH  18  20
HETATM   20  C8  UNL     1      61.275  35.180  52.247  1.00  0.00     0.349 C 
HETATM   21  O3  UNL     1      61.118  36.184  52.955  1.00  0.00    -0.284 OA
ENDBRANCH  18  20
ENDBRANCH  17  18
BRANCH  17  22
HETATM   22  C9  UNL     1      60.350  32.993  49.534  1.00  0.00     0.256 C 
HETATM   23  N7  UNL     1      61.188  32.353  48.540  1.00  0.00    -0.060 NA
HETATM   24  O4  UNL     1      59.405  32.279  49.956  1.00  0.00    -0.274 OA
ENDBRANCH  17  22
ENDBRANCH   1  17
TORSDOF 12
ENDMDL
MODEL 2
REMARK VINA RESULT: -6.144544733      1.309      2.517
REMARK  12 active torsions:
REMARK  status: ('A' for Active; 'I' for Inactive)
REMARK    1  A    between atoms: N1_1  and  N2_4 
REMARK    2  A    between atoms: N2_4  and  C1_5 
REMARK    3  A    between atoms: C1_5  and  C2_6 
REMARK    4  A    between atoms: C2_6  and  N3_7 
REMARK    5  A    between atoms: C2_6  and  C7_17 
REMARK    6  A    between atoms: N3_7  and  C3_9 
REMARK    7  A    between atoms: C3_9  and  C4_10 
REMARK    8  A    between atoms: C3_9  and  C6_14 
REMARK    9  A    between atoms: C4_10  and  C5_11 
REMARK   10  A    between atoms: C7_17  and  N6_18 
REMARK   11  A    between atoms: C7_17  and  C9_22 
REMARK   12  A    between atoms: N6_18  and  C8_20 
ROOT
HETATM    1  C2  UNL     1      59.435  36.237  49.740  1.00  0.00     0.125 C 
ENDROOT
BRANCH   1   2
HETATM    2  C1  UNL     1      58.767  37.000  50.851  1.00  0.00     0.161 C 
BRANCH   2   3
HETATM    3  N2  UNL     1      58.371  35.946  51.854  1.00  0.00    -0.146 NA
BRANCH   3   4
HETATM    4  N1  UNL     1      59.127  36.097  53.012  1.00  0.00    -0.348 N 
ATOM      5  H12 UNL     1      60.147  36.117  53.036  1.00  0.00     0.172 HD
ATOM      6  H11 UNL     1      58.507  36.182  53.817  1.00  0.00     0.172 HD
ENDBRANCH   3   4
ENDBRANCH   2   3
ENDBRANCH   1   2
BRANCH   1   7
HETATM    7  N3  UNL     1      60.151  36.991  48.844  1.00  0.00    -0.401 N 
ATOM      8  H3  UNL     1      61.103  37.167  49.164  1.00  0.00     0.154 HD
BRANCH   7   9
HETATM    9  C3  UNL     1      59.901  37.567  47.622  1.00  0.00     0.175 C 
BRANCH   9  10
HETATM   10  C4  UNL     1      60.986  38.523  47.236  1.00  0.00     0.133 C 
BRANCH  10  11
HETATM   11  C5  UNL     1      60.521  39.768  46.607  1.00  0.00     0.233 C 
HETATM   12  N4  UNL     1      61.036  40.418  45.490  1.00  0.00    -0.062 NA
HETATM   13  O1  UNL     1      59.507  40.302  47.176  1.00  0.00    -0.277 OA
ENDBRANCH  10  11
ENDBRANCH   9  10
BRANCH   9  14
HETATM   14  C6  UNL     1      59.528  36.654  46.525  1.00  0.00     0.254 C 
HETATM   15  N5  UNL     1      58.502  37.023  45.579  1.00  0.00    -0.060 NA
HETATM   16  O2  UNL     1      60.054  35.503  46.302  1.00  0.00    -0.275 OA
ENDBRANCH   9  14
ENDBRANCH   7   9
ENDBRANCH   1   7
BRANCH   1  17
HETATM   17  C7  UNL     1      60.152  34.998  50.264  1.00  0.00     0.196 C 
BRANCH  17  18
HETATM   18  N6  UNL     1      60.455  34.106  49.177  1.00  0.00    -0.353 N 
ATOM     19  H6  UNL     1      60.696  34.587  48.310  1.00  0.00     0.162 HD
BRANCH  18  20
HETATM   20  C8  UNL     1      60.485  32.757  49.071  1.00  0.00     0.349 C 
HETATM   21  O3  UNL     1      59.837  31.836  49.588  1.00  0.00    -0.284 OA
ENDBRANCH  18  20
ENDBRANCH  17  18
BRANCH  17  22
HETATM   22  C9  UNL     1      61.378  35.400  50.936  1.00  0.00     0.256 C 
HETATM   23  N7  UNL     1      61.778  34.544  52.035  1.00  0.00    -0.060 NA
HETATM   24  O4  UNL     1      62.154  36.364  50.717  1.00  0.00    -0.274 OA
ENDBRANCH  17  22
ENDBRANCH   1  17
TORSDOF 12
ENDMDL
MODEL 3
REMARK VINA RESULT: -6.139240782      2.373      6.452
REMARK  12 active torsions:
REMARK  status: ('A' for Active; 'I' for Inactive)
REMARK    1  A    between atoms: N1_1  and  N2_4 
REMARK    2  A    between atoms: N2_4  and  C1_5 
REMARK    3  A    between atoms: C1_5  and  C2_6 
REMARK    4  A    between atoms: C2_6  and  N3_7 
REMARK    5  A    between atoms: C2_6  and  C7_17 
REMARK    6  A    between atoms: N3_7  and  C3_9 
REMARK    7  A    between atoms: C3_9  and  C4_10 
REMARK    8  A    between atoms: C3_9  and  C6_14 
REMARK    9  A    between atoms: C4_10  and  C5_11 
REMARK   10  A    between atoms: C7_17  and  N6_18 
REMARK   11  A    between atoms: C7_17  and  C9_22 
REMARK   12  A    between atoms: N6_18  and  C8_20 
ROOT
HETATM    1  C2  UNL     1      59.632  37.171  47.145  1.00  0.00     0.125 C 
ENDROOT
BRANCH   1   2
HETATM    2  C1  UNL     1      60.097  35.890  46.509  1.00  0.00     0.161 C 
BRANCH   2   3
HETATM    3  N2  UNL     1      60.784  36.323  45.237  1.00  0.00    -0.146 NA
BRANCH   3   4
HETATM    4  N1  UNL     1      62.126  35.961  45.286  1.00  0.00    -0.348 N 
ATOM      5  H12 UNL     1      62.467  35.053  45.603  1.00  0.00     0.172 HD
ATOM      6  H11 UNL     1      62.702  36.737  44.960  1.00  0.00     0.172 HD
ENDBRANCH   3   4
ENDBRANCH   2   3
ENDBRANCH   1   2
BRANCH   1   7
HETATM    7  N3  UNL     1      60.019  37.366  48.447  1.00  0.00    -0.401 N 
ATOM      8  H3  UNL     1      60.364  38.312  48.608  1.00  0.00     0.154 HD
BRANCH   7   9
HETATM    9  C3  UNL     1      60.059  36.601  49.588  1.00  0.00     0.175 C 
BRANCH   9  10
HETATM   10  C4  UNL     1      61.385  36.706  50.273  1.00  0.00     0.133 C 
BRANCH  10  11
HETATM   11  C5  UNL     1      61.544  35.843  51.452  1.00  0.00     0.233 C 
HETATM   12  N4  UNL     1      61.331  36.159  52.791  1.00  0.00    -0.062 NA
HETATM   13  O1  UNL     1      61.925  34.651  51.188  1.00  0.00    -0.277 OA
ENDBRANCH  10  11
ENDBRANCH   9  10
BRANCH   9  14
HETATM   14  C6  UNL     1      58.922  36.743  50.519  1.00  0.00     0.254 C 
HETATM   15  N5  UNL     1      58.027  35.638  50.760  1.00  0.00    -0.060 NA
HETATM   16  O2  UNL     1      58.632  37.805  51.183  1.00  0.00    -0.275 OA
ENDBRANCH   9  14
ENDBRANCH   7   9
ENDBRANCH   1   7
BRANCH   1  17
HETATM   17  C7  UNL     1      59.842  38.364  46.220  1.00  0.00     0.196 C 
BRANCH  17  18
HETATM   18  N6  UNL     1      58.614  38.685  45.541  1.00  0.00    -0.353 N 
ATOM     19  H6  UNL     1      57.870  38.990  46.169  1.00  0.00     0.162 HD
BRANCH  18  20
HETATM   20  C8  UNL     1      58.248  38.665  44.239  1.00  0.00     0.349 C 
HETATM   21  O3  UNL     1      58.038  37.763  43.415  1.00  0.00    -0.284 OA
ENDBRANCH  18  20
ENDBRANCH  17  18
BRANCH  17  22
HETATM   22  C9  UNL     1      60.293  39.505  47.002  1.00  0.00     0.256 C 
HETATM   23  N7  UNL     1      59.276  40.505  47.260  1.00  0.00    -0.060 NA
HETATM   24  O4  UNL     1      61.418  39.766  47.497  1.00  0.00    -0.274 OA
ENDBRANCH  17  22
ENDBRANCH   1  17
TORSDOF 12
ENDMDL
MODEL 4
REMARK VINA RESULT: -6.010643914      2.138      6.188
REMARK  12 active torsions:
REMARK  status: ('A' for Active; 'I' for Inactive)
REMARK    1  A    between atoms: N1_1  and  N2_4 
REMARK    2  A    between atoms: N2_4  and  C1_5 
REMARK    3  A    between atoms: C1_5  and  C2_6 
REMARK    4  A    between atoms: C2_6  and  N3_7 
REMARK    5  A    between atoms: C2_6  and  C7_17 
REMARK    6  A    between atoms: N3_7  and  C3_9 
REMARK    7  A    between atoms: C3_9  and  C4_10 
REMARK    8  A    between atoms: C3_9  and  C6_14 
REMARK    9  A    between atoms: C4_10  and  C5_11 
REMARK   10  A    between atoms: C7_17  and  N6_18 
REMARK   11  A    between atoms: C7_17  and  C9_22 
REMARK   12  A    between atoms: N6_18  and  C8_20 
ROOT
HETATM    1  C2  UNL     1      59.847  37.065  47.196  1.00  0.00     0.125 C 
ENDROOT
BRANCH   1   2
HETATM    2  C1  UNL     1      59.949  35.815  46.366  1.00  0.00     0.161 C 
BRANCH   2   3
HETATM    3  N2  UNL     1      60.708  36.237  45.132  1.00  0.00    -0.146 NA
BRANCH   3   4
HETATM    4  N1  UNL     1      62.056  35.933  45.288  1.00  0.00    -0.348 N 
ATOM      5  H12 UNL     1      62.496  35.075  44.955  1.00  0.00     0.172 HD
ATOM      6  H11 UNL     1      62.524  36.694  45.781  1.00  0.00     0.172 HD
ENDBRANCH   3   4
ENDBRANCH   2   3
ENDBRANCH   1   2
BRANCH   1   7
HETATM    7  N3  UNL     1      60.646  37.109  48.311  1.00  0.00    -0.401 N 
ATOM      8  H3  UNL     1      61.557  37.524  48.114  1.00  0.00     0.154 HD
BRANCH   7   9
HETATM    9  C3  UNL     1      60.523  36.732  49.626  1.00  0.00     0.175 C 
BRANCH   9  10
HETATM   10  C4  UNL     1      59.245  37.234  50.222  1.00  0.00     0.133 C 
BRANCH  10  11
HETATM   11  C5  UNL     1      58.858  36.595  51.488  1.00  0.00     0.233 C 
HETATM   12  N4  UNL     1      59.542  36.592  52.700  1.00  0.00    -0.062 NA
HETATM   13  O1  UNL     1      57.743  35.970  51.447  1.00  0.00    -0.277 OA
ENDBRANCH  10  11
ENDBRANCH   9  10
BRANCH   9  14
HETATM   14  C6  UNL     1      60.776  35.310  49.932  1.00  0.00     0.254 C 
HETATM   15  N5  UNL     1      59.927  34.278  49.388  1.00  0.00    -0.060 NA
HETATM   16  O2  UNL     1      61.733  34.866  50.667  1.00  0.00    -0.275 OA
ENDBRANCH   9  14
ENDBRANCH   7   9
ENDBRANCH   1   7
BRANCH   1  17
HETATM   17  C7  UNL     1      59.876  38.317  46.327  1.00  0.00     0.196 C 
BRANCH  17  18
HETATM   18  N6  UNL     1      58.620  38.473  45.642  1.00  0.00    -0.353 N 
ATOM     19  H6  UNL     1      57.848  37.981  46.091  1.00  0.00     0.162 HD
BRANCH  18  20
HETATM   20  C8  UNL     1      58.257  39.140  44.522  1.00  0.00     0.349 C 
HETATM   21  O3  UNL     1      58.033  40.331  44.260  1.00  0.00    -0.284 OA
ENDBRANCH  18  20
ENDBRANCH  17  18
BRANCH  17  22
HETATM   22  C9  UNL     1      60.134  39.478  47.165  1.00  0.00     0.256 C 
HETATM   23  N7  UNL     1      61.534  39.727  47.446  1.00  0.00    -0.060 NA
HETATM   24  O4  UNL     1      59.343  40.308  47.682  1.00  0.00    -0.274 OA
ENDBRANCH  17  22
ENDBRANCH   1  17
TORSDOF 12
ENDMDL
MODEL 5
REMARK VINA RESULT: -5.965095238      2.338      6.468
REMARK  12 active torsions:
REMARK  status: ('A' for Active; 'I' for Inactive)
REMARK    1  A    between atoms: N1_1  and  N2_4 
REMARK    2  A    between atoms: N2_4  and  C1_5 
REMARK    3  A    between atoms: C1_5  and  C2_6 
REMARK    4  A    between atoms: C2_6  and  N3_7 
REMARK    5  A    between atoms: C2_6  and  C7_17 
REMARK    6  A    between atoms: N3_7  and  C3_9 
REMARK    7  A    between atoms: C3_9  and  C4_10 
REMARK    8  A    between atoms: C3_9  and  C6_14 
REMARK    9  A    between atoms: C4_10  and  C5_11 
REMARK   10  A    between atoms: C7_17  and  N6_18 
REMARK   11  A    between atoms: C7_17  and  C9_22 
REMARK   12  A    between atoms: N6_18  and  C8_20 
ROOT
HETATM    1  C2  UNL     1      60.405  37.888  47.213  1.00  0.00     0.125 C 
ENDROOT
BRANCH   1   2
HETATM    2  C1  UNL     1      60.973  36.908  46.224  1.00  0.00     0.161 C 
BRANCH   2   3
HETATM    3  N2  UNL     1      59.873  35.896  46.016  1.00  0.00    -0.146 NA
BRANCH   3   4
HETATM    4  N1  UNL     1      58.970  36.377  45.073  1.00  0.00    -0.348 N 
ATOM      5  H12 UNL     1      58.517  37.290  45.122  1.00  0.00     0.172 HD
ATOM      6  H11 UNL     1      58.838  35.681  44.340  1.00  0.00     0.172 HD
ENDBRANCH   3   4
ENDBRANCH   2   3
ENDBRANCH   1   2
BRANCH   1   7
HETATM    7  N3  UNL     1      60.779  37.702  48.521  1.00  0.00    -0.401 N 
ATOM      8  H3  UNL     1      61.350  38.471  48.870  1.00  0.00     0.154 HD
BRANCH   7   9
HETATM    9  C3  UNL     1      60.573  36.735  49.475  1.00  0.00     0.175 C 
BRANCH   9  10
HETATM   10  C4  UNL     1      61.681  36.715  50.481  1.00  0.00     0.133 C 
BRANCH  10  11
HETATM   11  C5  UNL     1      61.502  35.756  51.581  1.00  0.00     0.233 C 
HETATM   12  N4  UNL     1      61.064  36.000  52.879  1.00  0.00    -0.062 NA
HETATM   13  O1  UNL     1      61.789  34.546  51.281  1.00  0.00    -0.277 OA
ENDBRANCH  10  11
ENDBRANCH   9  10
BRANCH   9  14
HETATM   14  C6  UNL     1      59.236  36.695  50.097  1.00  0.00     0.254 C 
HETATM   15  N5  UNL     1      58.364  35.563  49.893  1.00  0.00    -0.060 NA
HETATM   16  O2  UNL     1      58.738  37.607  50.853  1.00  0.00    -0.275 OA
ENDBRANCH   9  14
ENDBRANCH   7   9
ENDBRANCH   1   7
BRANCH   1  17
HETATM   17  C7  UNL     1      60.513  39.322  46.706  1.00  0.00     0.196 C 
BRANCH  17  18
HETATM   18  N6  UNL     1      61.056  39.334  45.373  1.00  0.00    -0.353 N 
ATOM     19  H6  UNL     1      61.471  38.445  45.094  1.00  0.00     0.162 HD
BRANCH  18  20
HETATM   20  C8  UNL     1      61.126  40.287  44.414  1.00  0.00     0.349 C 
HETATM   21  O3  UNL     1      61.443  41.485  44.409  1.00  0.00    -0.284 OA
ENDBRANCH  18  20
ENDBRANCH  17  18
BRANCH  17  22
HETATM   22  C9  UNL     1      59.195  39.936  46.713  1.00  0.00     0.256 C 
HETATM   23  N7  UNL     1      58.218  39.289  45.861  1.00  0.00    -0.060 NA
HETATM   24  O4  UNL     1      58.760  40.934  47.341  1.00  0.00    -0.274 OA
ENDBRANCH  17  22
ENDBRANCH   1  17
TORSDOF 12
ENDMDL
