MODEL 1
REMARK VINA RESULT: -4.211891197      0.000      0.000
REMARK  6 active torsions:
REMARK  status: ('A' for Active; 'I' for Inactive)
REMARK    1  A    between atoms: C2_5  and  N3_6 
REMARK    2  A    between atoms: N4_9  and  C3_10 
REMARK    3  A    between atoms: C3_10  and  C4_11 
REMARK    4  A    between atoms: C4_11  and  C5_12 
REMARK    5  A    between atoms: C5_12  and  N5_13 
REMARK    6  A    between atoms: N5_13  and  N6_14 
ROOT
HETATM    1  C1  UNL     1       8.218  11.073  27.377  1.00  0.00     0.198 C 
HETATM    2  N1  UNL     1       7.324  10.310  26.500  1.00  0.00    -0.114 N 
HETATM    3  N2  UNL     1       6.396  10.767  25.696  1.00  0.00    -0.116 N 
ATOM      4  H2  UNL     1       6.132  11.748  25.606  1.00  0.00     0.206 HD
HETATM    5  C2  UNL     1       5.839   9.746  25.000  1.00  0.00     0.707 A 
HETATM    6  N4  UNL     1       6.446   8.663  25.428  1.00  0.00    -0.012 N 
HETATM    7  C6  UNL     1       7.392   8.948  26.377  1.00  0.00     0.709 A 
HETATM    8  N7  UNL     1       8.186   8.160  27.001  1.00  0.00    -0.232 N 
ATOM      9  H71 UNL     1       8.236   7.145  26.909  1.00  0.00     0.174 HD
ATOM     10  H72 UNL     1       8.890   8.372  27.707  1.00  0.00     0.174 HD
ENDROOT
BRANCH   6  11
HETATM   11  C3  UNL     1       6.392   7.239  24.997  1.00  0.00     0.168 C 
BRANCH  11  12
HETATM   12  C4  UNL     1       7.345   7.222  23.809  1.00  0.00     0.039 C 
BRANCH  12  13
HETATM   13  C5  UNL     1       6.687   7.050  22.491  1.00  0.00     0.136 C 
BRANCH  13  14
HETATM   14  N5  UNL     1       6.808   8.385  21.886  1.00  0.00    -0.148 NA
BRANCH  14  15
HETATM   15  N6  UNL     1       5.859   8.501  20.926  1.00  0.00    -0.348 N 
ATOM     16  H62 UNL     1       4.873   8.271  21.045  1.00  0.00     0.172 HD
ATOM     17  H61 UNL     1       6.306   8.853  20.079  1.00  0.00     0.172 HD
ENDBRANCH  14  15
ENDBRANCH  13  14
ENDBRANCH  12  13
ENDBRANCH  11  12
ENDBRANCH   6  11
BRANCH   5  18
HETATM   18  N3  UNL     1       4.924   9.823  24.101  1.00  0.00    -0.233 N 
ATOM     19  H32 UNL     1       3.951  10.099  24.231  1.00  0.00     0.174 HD
ATOM     20  H31 UNL     1       5.013   9.608  23.108  1.00  0.00     0.174 HD
ENDBRANCH   5  18
TORSDOF 6
ENDMDL
MODEL 2
REMARK VINA RESULT: -4.160234786      2.799      4.467
REMARK  6 active torsions:
REMARK  status: ('A' for Active; 'I' for Inactive)
REMARK    1  A    between atoms: C2_5  and  N3_6 
REMARK    2  A    between atoms: N4_9  and  C3_10 
REMARK    3  A    between atoms: C3_10  and  C4_11 
REMARK    4  A    between atoms: C4_11  and  C5_12 
REMARK    5  A    between atoms: C5_12  and  N5_13 
REMARK    6  A    between atoms: N5_13  and  N6_14 
ROOT
HETATM    1  C1  UNL     1       4.161   9.028  21.591  1.00  0.00     0.198 C 
HETATM    2  N1  UNL     1       4.853   8.243  22.618  1.00  0.00    -0.114 N 
HETATM    3  N2  UNL     1       4.390   7.834  23.773  1.00  0.00    -0.116 N 
ATOM      4  H2  UNL     1       3.467   8.058  24.145  1.00  0.00     0.206 HD
HETATM    5  C2  UNL     1       5.316   7.071  24.402  1.00  0.00     0.707 A 
HETATM    6  N4  UNL     1       6.355   7.052  23.599  1.00  0.00    -0.012 N 
HETATM    7  C6  UNL     1       6.130   7.775  22.457  1.00  0.00     0.709 A 
HETATM    8  N7  UNL     1       6.896   7.966  21.448  1.00  0.00    -0.232 N 
ATOM      9  H71 UNL     1       7.847   7.618  21.328  1.00  0.00     0.174 HD
ATOM     10  H72 UNL     1       6.728   8.504  20.597  1.00  0.00     0.174 HD
ENDROOT
BRANCH   6  11
HETATM   11  C3  UNL     1       7.645   6.312  23.634  1.00  0.00     0.168 C 
BRANCH  11  12
HETATM   12  C4  UNL     1       8.464   7.129  24.624  1.00  0.00     0.039 C 
BRANCH  12  13
HETATM   13  C5  UNL     1       9.931   6.939  24.520  1.00  0.00     0.136 C 
BRANCH  13  14
HETATM   14  N5  UNL     1      10.419   8.296  24.236  1.00  0.00    -0.148 NA
BRANCH  14  15
HETATM   15  N6  UNL     1      11.774   8.270  24.255  1.00  0.00    -0.348 N 
ATOM     16  H62 UNL     1      12.354   7.596  23.756  1.00  0.00     0.172 HD
ATOM     17  H61 UNL     1      12.099   9.034  24.848  1.00  0.00     0.172 HD
ENDBRANCH  14  15
ENDBRANCH  13  14
ENDBRANCH  12  13
ENDBRANCH  11  12
ENDBRANCH   6  11
BRANCH   5  18
HETATM   18  N3  UNL     1       5.198   6.476  25.536  1.00  0.00    -0.233 N 
ATOM     19  H32 UNL     1       5.430   6.849  26.457  1.00  0.00     0.174 HD
ATOM     20  H31 UNL     1       4.865   5.527  25.705  1.00  0.00     0.174 HD
ENDBRANCH   5  18
TORSDOF 6
ENDMDL
MODEL 3
REMARK VINA RESULT: -4.120642084      2.657      3.992
REMARK  6 active torsions:
REMARK  status: ('A' for Active; 'I' for Inactive)
REMARK    1  A    between atoms: C2_5  and  N3_6 
REMARK    2  A    between atoms: N4_9  and  C3_10 
REMARK    3  A    between atoms: C3_10  and  C4_11 
REMARK    4  A    between atoms: C4_11  and  C5_12 
REMARK    5  A    between atoms: C5_12  and  N5_13 
REMARK    6  A    between atoms: N5_13  and  N6_14 
ROOT
HETATM    1  C1  UNL     1       8.753   4.501  24.247  1.00  0.00     0.198 C 
HETATM    2  N1  UNL     1       7.527   5.185  24.669  1.00  0.00    -0.114 N 
HETATM    3  N2  UNL     1       6.587   4.740  25.468  1.00  0.00    -0.116 N 
ATOM      4  H2  UNL     1       6.561   3.807  25.878  1.00  0.00     0.206 HD
HETATM    5  C2  UNL     1       5.655   5.703  25.669  1.00  0.00     0.707 A 
HETATM    6  N4  UNL     1       6.052   6.728  24.951  1.00  0.00    -0.012 N 
HETATM    7  C6  UNL     1       7.226   6.466  24.293  1.00  0.00     0.709 A 
HETATM    8  N7  UNL     1       7.917   7.222  23.524  1.00  0.00    -0.232 N 
ATOM      9  H71 UNL     1       7.692   8.177  23.244  1.00  0.00     0.174 HD
ATOM     10  H72 UNL     1       8.790   7.027  23.035  1.00  0.00     0.174 HD
ENDROOT
BRANCH   6  11
HETATM   11  C3  UNL     1       5.554   8.124  24.821  1.00  0.00     0.168 C 
BRANCH  11  12
HETATM   12  C4  UNL     1       4.521   8.000  23.710  1.00  0.00     0.039 C 
BRANCH  12  13
HETATM   13  C5  UNL     1       4.540   9.103  22.720  1.00  0.00     0.136 C 
BRANCH  13  14
HETATM   14  N5  UNL     1       5.905   9.036  22.177  1.00  0.00    -0.148 NA
BRANCH  14  15
HETATM   15  N6  UNL     1       5.838   8.508  20.932  1.00  0.00    -0.348 N 
ATOM     16  H62 UNL     1       6.642   8.244  20.362  1.00  0.00     0.172 HD
ATOM     17  H61 UNL     1       4.855   8.425  20.674  1.00  0.00     0.172 HD
ENDBRANCH  14  15
ENDBRANCH  13  14
ENDBRANCH  12  13
ENDBRANCH  11  12
ENDBRANCH   6  11
BRANCH   5  18
HETATM   18  N3  UNL     1       4.612   5.634  26.417  1.00  0.00    -0.233 N 
ATOM     19  H32 UNL     1       4.184   6.390  26.952  1.00  0.00     0.174 HD
ATOM     20  H31 UNL     1       4.044   4.810  26.613  1.00  0.00     0.174 HD
ENDBRANCH   5  18
TORSDOF 6
ENDMDL
MODEL 4
REMARK VINA RESULT: -4.093325667      2.603      4.573
REMARK  6 active torsions:
REMARK  status: ('A' for Active; 'I' for Inactive)
REMARK    1  A    between atoms: C2_5  and  N3_6 
REMARK    2  A    between atoms: N4_9  and  C3_10 
REMARK    3  A    between atoms: C3_10  and  C4_11 
REMARK    4  A    between atoms: C4_11  and  C5_12 
REMARK    5  A    between atoms: C5_12  and  N5_13 
REMARK    6  A    between atoms: N5_13  and  N6_14 
ROOT
HETATM    1  C1  UNL     1       4.079   9.016  21.631  1.00  0.00     0.198 C 
HETATM    2  N1  UNL     1       4.915   8.428  22.683  1.00  0.00    -0.114 N 
HETATM    3  N2  UNL     1       4.576   8.130  23.913  1.00  0.00    -0.116 N 
ATOM      4  H2  UNL     1       3.665   8.319  24.331  1.00  0.00     0.206 HD
HETATM    5  C2  UNL     1       5.613   7.533  24.550  1.00  0.00     0.707 A 
HETATM    6  N4  UNL     1       6.589   7.503  23.672  1.00  0.00    -0.012 N 
HETATM    7  C6  UNL     1       6.215   8.054  22.474  1.00  0.00     0.709 A 
HETATM    8  N7  UNL     1       6.886   8.181  21.390  1.00  0.00    -0.232 N 
ATOM      9  H71 UNL     1       7.855   7.902  21.235  1.00  0.00     0.174 HD
ATOM     10  H72 UNL     1       6.607   8.591  20.498  1.00  0.00     0.174 HD
ENDROOT
BRANCH   6  11
HETATM   11  C3  UNL     1       7.942   6.885  23.688  1.00  0.00     0.168 C 
BRANCH  11  12
HETATM   12  C4  UNL     1       7.626   5.401  23.565  1.00  0.00     0.039 C 
BRANCH  12  13
HETATM   13  C5  UNL     1       8.106   4.570  24.695  1.00  0.00     0.136 C 
BRANCH  13  14
HETATM   14  N5  UNL     1       6.858   4.117  25.325  1.00  0.00    -0.148 NA
BRANCH  14  15
HETATM   15  N6  UNL     1       7.165   3.151  26.224  1.00  0.00    -0.348 N 
ATOM     16  H62 UNL     1       6.928   3.174  27.215  1.00  0.00     0.172 HD
ATOM     17  H61 UNL     1       7.668   2.409  25.735  1.00  0.00     0.172 HD
ENDBRANCH  14  15
ENDBRANCH  13  14
ENDBRANCH  12  13
ENDBRANCH  11  12
ENDBRANCH   6  11
BRANCH   5  18
HETATM   18  N3  UNL     1       5.633   7.079  25.752  1.00  0.00    -0.233 N 
ATOM     19  H32 UNL     1       4.834   6.784  26.314  1.00  0.00     0.174 HD
ATOM     20  H31 UNL     1       6.447   6.949  26.352  1.00  0.00     0.174 HD
ENDBRANCH   5  18
TORSDOF 6
ENDMDL
MODEL 5
REMARK VINA RESULT: -4.063627034      2.096      3.187
REMARK  6 active torsions:
REMARK  status: ('A' for Active; 'I' for Inactive)
REMARK    1  A    between atoms: C2_5  and  N3_6 
REMARK    2  A    between atoms: N4_9  and  C3_10 
REMARK    3  A    between atoms: C3_10  and  C4_11 
REMARK    4  A    between atoms: C4_11  and  C5_12 
REMARK    5  A    between atoms: C5_12  and  N5_13 
REMARK    6  A    between atoms: N5_13  and  N6_14 
ROOT
HETATM    1  C1  UNL     1       9.901   7.267  25.384  1.00  0.00     0.198 C 
HETATM    2  N1  UNL     1       8.597   7.118  24.728  1.00  0.00    -0.114 N 
HETATM    3  N2  UNL     1       8.259   6.275  23.784  1.00  0.00    -0.116 N 
ATOM      4  H2  UNL     1       8.895   5.619  23.330  1.00  0.00     0.206 HD
HETATM    5  C2  UNL     1       6.940   6.402  23.498  1.00  0.00     0.707 A 
HETATM    6  N4  UNL     1       6.505   7.360  24.283  1.00  0.00    -0.012 N 
HETATM    7  C6  UNL     1       7.501   7.857  25.082  1.00  0.00     0.709 A 
HETATM    8  N7  UNL     1       7.449   8.773  25.976  1.00  0.00    -0.232 N 
ATOM      9  H71 UNL     1       6.631   9.324  26.240  1.00  0.00     0.174 HD
ATOM     10  H72 UNL     1       8.190   9.143  26.572  1.00  0.00     0.174 HD
ENDROOT
BRANCH   6  11
HETATM   11  C3  UNL     1       5.147   7.905  24.553  1.00  0.00     0.168 C 
BRANCH  11  12
HETATM   12  C4  UNL     1       5.010   8.983  23.487  1.00  0.00     0.039 C 
BRANCH  12  13
HETATM   13  C5  UNL     1       4.128   8.621  22.351  1.00  0.00     0.136 C 
BRANCH  13  14
HETATM   14  N5  UNL     1       4.782   9.270  21.206  1.00  0.00    -0.148 NA
BRANCH  14  15
HETATM   15  N6  UNL     1       5.865   8.532  20.863  1.00  0.00    -0.348 N 
ATOM     16  H62 UNL     1       6.489   8.065  21.521  1.00  0.00     0.172 HD
ATOM     17  H61 UNL     1       5.940   8.530  19.846  1.00  0.00     0.172 HD
ENDBRANCH  14  15
ENDBRANCH  13  14
ENDBRANCH  12  13
ENDBRANCH  11  12
ENDBRANCH   6  11
BRANCH   5  18
HETATM   18  N3  UNL     1       6.256   5.718  22.651  1.00  0.00    -0.233 N 
ATOM     19  H32 UNL     1       6.615   5.103  21.920  1.00  0.00     0.174 HD
ATOM     20  H31 UNL     1       5.241   5.686  22.557  1.00  0.00     0.174 HD
ENDBRANCH   5  18
TORSDOF 6
ENDMDL
