MODEL 1
REMARK VINA RESULT: -4.276177912      0.000      0.000
REMARK  6 active torsions:
REMARK  status: ('A' for Active; 'I' for Inactive)
REMARK    1  A    between atoms: N1_2  and  C2_3 
REMARK    2  A    between atoms: N1_2  and  C4_9 
REMARK    3  A    between atoms: C2_3  and  C3_4 
REMARK    4  A    between atoms: C3_4  and  N2_5 
REMARK    5  A    between atoms: C5_12  and  N4_13 
REMARK    6  A    between atoms: C6_18  and  N6_19 
ROOT
HETATM    1  C4  UNL     1       5.538   6.939  23.844  1.00  0.00     0.709 A 
HETATM    2  N3  UNL     1       4.827   7.892  24.515  1.00  0.00    -0.022 N 
ATOM      3  H3  UNL     1       4.591   7.716  25.491  1.00  0.00     0.203 HD
HETATM    4  C5  UNL     1       4.425   9.035  23.971  1.00  0.00     0.705 A 
HETATM    5  N5  UNL     1       4.733   9.266  22.692  1.00  0.00    -0.022 N 
ATOM      6  H5  UNL     1       4.439  10.133  22.242  1.00  0.00     0.203 HD
HETATM    7  C6  UNL     1       5.439   8.340  21.992  1.00  0.00     0.705 A 
HETATM    8  N7  UNL     1       5.840   7.188  22.557  1.00  0.00    -0.022 N 
ATOM      9  H7  UNL     1       6.370   6.507  22.012  1.00  0.00     0.203 HD
ENDROOT
BRANCH   1  10
HETATM   10  N1  UNL     1       5.928   5.745  24.503  1.00  0.00    -0.219 N 
HETATM   11  C1  UNL     1       4.939   5.149  25.376  1.00  0.00     0.168 C 
BRANCH  10  12
HETATM   12  C2  UNL     1       7.231   5.223  24.271  1.00  0.00     0.168 C 
BRANCH  12  13
HETATM   13  C3  UNL     1       8.329   5.897  25.047  1.00  0.00     0.250 C 
BRANCH  13  14
HETATM   14  N2  UNL     1       9.179   6.723  24.233  1.00  0.00    -0.078 N 
ATOM     15  H23 UNL     1       8.796   6.822  23.293  1.00  0.00     0.274 HD
ATOM     16  H22 UNL     1       9.135   7.696  24.536  1.00  0.00     0.274 HD
ATOM     17  H21 UNL     1      10.145   6.399  24.197  1.00  0.00     0.274 HD
ENDBRANCH  13  14
ENDBRANCH  12  13
ENDBRANCH  10  12
ENDBRANCH   1  10
BRANCH   4  18
HETATM   18  N4  UNL     1       3.758   9.866  24.698  1.00  0.00    -0.234 N 
ATOM     19  H42 UNL     1       3.077   9.573  25.398  1.00  0.00     0.174 HD
ATOM     20  H41 UNL     1       3.917  10.865  24.570  1.00  0.00     0.174 HD
ENDBRANCH   4  18
BRANCH   7  21
HETATM   21  N6  UNL     1       5.723   8.585  20.762  1.00  0.00    -0.234 N 
ATOM     22  H62 UNL     1       4.983   8.851  20.112  1.00  0.00     0.174 HD
ATOM     23  H61 UNL     1       6.695   8.508  20.461  1.00  0.00     0.174 HD
ENDBRANCH   7  21
TORSDOF 6
ENDMDL
MODEL 2
REMARK VINA RESULT: -4.237155561      1.563      1.767
REMARK  6 active torsions:
REMARK  status: ('A' for Active; 'I' for Inactive)
REMARK    1  A    between atoms: N1_2  and  C2_3 
REMARK    2  A    between atoms: N1_2  and  C4_9 
REMARK    3  A    between atoms: C2_3  and  C3_4 
REMARK    4  A    between atoms: C3_4  and  N2_5 
REMARK    5  A    between atoms: C5_12  and  N4_13 
REMARK    6  A    between atoms: C6_18  and  N6_19 
ROOT
HETATM    1  C4  UNL     1       6.693   7.934  24.136  1.00  0.00     0.709 A 
HETATM    2  N3  UNL     1       5.674   8.619  24.731  1.00  0.00    -0.022 N 
ATOM      3  H3  UNL     1       5.652   8.657  25.751  1.00  0.00     0.203 HD
HETATM    4  C5  UNL     1       4.709   9.239  24.063  1.00  0.00     0.705 A 
HETATM    5  N5  UNL     1       4.736   9.190  22.728  1.00  0.00    -0.022 N 
ATOM      6  H5  UNL     1       4.010   9.655  22.183  1.00  0.00     0.203 HD
HETATM    7  C6  UNL     1       5.735   8.517  22.100  1.00  0.00     0.705 A 
HETATM    8  N7  UNL     1       6.705   7.894  22.791  1.00  0.00    -0.022 N 
ATOM      9  H7  UNL     1       7.446   7.395  22.298  1.00  0.00     0.203 HD
ENDROOT
BRANCH   1  10
HETATM   10  N1  UNL     1       7.685   7.299  24.928  1.00  0.00    -0.219 N 
HETATM   11  C1  UNL     1       7.253   6.822  26.224  1.00  0.00     0.168 C 
BRANCH  10  12
HETATM   12  C2  UNL     1       9.005   7.175  24.412  1.00  0.00     0.168 C 
BRANCH  12  13
HETATM   13  C3  UNL     1      10.061   7.899  25.200  1.00  0.00     0.250 C 
BRANCH  13  14
HETATM   14  N2  UNL     1      11.102   8.460  24.380  1.00  0.00    -0.078 N 
ATOM     15  H23 UNL     1      11.319   9.412  24.673  1.00  0.00     0.274 HD
ATOM     16  H22 UNL     1      11.997   8.014  24.578  1.00  0.00     0.274 HD
ATOM     17  H21 UNL     1      10.893   8.427  23.383  1.00  0.00     0.274 HD
ENDBRANCH  13  14
ENDBRANCH  12  13
ENDBRANCH  10  12
ENDBRANCH   1  10
BRANCH   4  18
HETATM   18  N4  UNL     1       3.793   9.859  24.728  1.00  0.00    -0.234 N 
ATOM     19  H42 UNL     1       3.799   9.938  25.745  1.00  0.00     0.174 HD
ATOM     20  H41 UNL     1       3.025  10.292  24.216  1.00  0.00     0.174 HD
ENDBRANCH   4  18
BRANCH   7  21
HETATM   21  N6  UNL     1       5.739   8.483  20.814  1.00  0.00    -0.234 N 
ATOM     22  H62 UNL     1       4.892   8.222  20.309  1.00  0.00     0.174 HD
ATOM     23  H61 UNL     1       6.600   8.723  20.323  1.00  0.00     0.174 HD
ENDBRANCH   7  21
TORSDOF 6
ENDMDL
MODEL 3
REMARK VINA RESULT: -4.231894051      0.143      2.215
REMARK  6 active torsions:
REMARK  status: ('A' for Active; 'I' for Inactive)
REMARK    1  A    between atoms: N1_2  and  C2_3 
REMARK    2  A    between atoms: N1_2  and  C4_9 
REMARK    3  A    between atoms: C2_3  and  C3_4 
REMARK    4  A    between atoms: C3_4  and  N2_5 
REMARK    5  A    between atoms: C5_12  and  N4_13 
REMARK    6  A    between atoms: C6_18  and  N6_19 
ROOT
HETATM    1  C4  UNL     1       5.588   6.965  23.883  1.00  0.00     0.709 A 
HETATM    2  N3  UNL     1       5.849   7.271  22.579  1.00  0.00    -0.022 N 
ATOM      3  H3  UNL     1       6.390   6.604  22.029  1.00  0.00     0.203 HD
HETATM    4  C5  UNL     1       5.441   8.386  21.985  1.00  0.00     0.705 A 
HETATM    5  N5  UNL     1       4.733   9.260  22.706  1.00  0.00    -0.022 N 
ATOM      6  H5  UNL     1       4.404  10.127  22.281  1.00  0.00     0.203 HD
HETATM    7  C6  UNL     1       4.453   8.989  24.007  1.00  0.00     0.705 A 
HETATM    8  N7  UNL     1       4.873   7.856  24.594  1.00  0.00    -0.022 N 
ATOM      9  H7  UNL     1       4.651   7.673  25.573  1.00  0.00     0.203 HD
ENDROOT
BRANCH   1  10
HETATM   10  N1  UNL     1       6.063   5.749  24.439  1.00  0.00    -0.219 N 
HETATM   11  C1  UNL     1       5.181   5.094  25.382  1.00  0.00     0.168 C 
BRANCH  10  12
HETATM   12  C2  UNL     1       7.341   5.263  24.046  1.00  0.00     0.168 C 
BRANCH  12  13
HETATM   13  C3  UNL     1       8.489   5.762  24.877  1.00  0.00     0.250 C 
BRANCH  13  14
HETATM   14  N2  UNL     1       9.218   6.836  24.258  1.00  0.00    -0.078 N 
ATOM     15  H23 UNL     1       9.385   6.639  23.272  1.00  0.00     0.274 HD
ATOM     16  H22 UNL     1       8.632   7.666  24.167  1.00  0.00     0.274 HD
ATOM     17  H21 UNL     1      10.091   7.061  24.735  1.00  0.00     0.274 HD
ENDBRANCH  13  14
ENDBRANCH  12  13
ENDBRANCH  10  12
ENDBRANCH   1  10
BRANCH   4  18
HETATM   18  N4  UNL     1       5.745   8.575  20.745  1.00  0.00    -0.234 N 
ATOM     19  H42 UNL     1       6.706   8.621  20.407  1.00  0.00     0.174 HD
ATOM     20  H41 UNL     1       4.991   8.683  20.067  1.00  0.00     0.174 HD
ENDBRANCH   4  18
BRANCH   7  21
HETATM   21  N6  UNL     1       3.770   9.847  24.679  1.00  0.00    -0.234 N 
ATOM     22  H62 UNL     1       3.818  10.837  24.440  1.00  0.00     0.174 HD
ATOM     23  H61 UNL     1       3.187   9.512  25.447  1.00  0.00     0.174 HD
ENDBRANCH   7  21
TORSDOF 6
ENDMDL
MODEL 4
REMARK VINA RESULT: -4.221010891      1.527      2.818
REMARK  6 active torsions:
REMARK  status: ('A' for Active; 'I' for Inactive)
REMARK    1  A    between atoms: N1_2  and  C2_3 
REMARK    2  A    between atoms: N1_2  and  C4_9 
REMARK    3  A    between atoms: C2_3  and  C3_4 
REMARK    4  A    between atoms: C3_4  and  N2_5 
REMARK    5  A    between atoms: C5_12  and  N4_13 
REMARK    6  A    between atoms: C6_18  and  N6_19 
ROOT
HETATM    1  C4  UNL     1       6.654   7.923  24.221  1.00  0.00     0.709 A 
HETATM    2  N3  UNL     1       6.635   7.921  22.857  1.00  0.00    -0.022 N 
ATOM      3  H3  UNL     1       7.375   7.418  22.367  1.00  0.00     0.203 HD
HETATM    4  C5  UNL     1       5.711   8.536  22.129  1.00  0.00     0.705 A 
HETATM    5  N5  UNL     1       4.742   9.196  22.769  1.00  0.00    -0.022 N 
ATOM      6  H5  UNL     1       4.016   9.679  22.241  1.00  0.00     0.203 HD
HETATM    7  C6  UNL     1       4.728   9.219  24.127  1.00  0.00     0.705 A 
HETATM    8  N7  UNL     1       5.670   8.592  24.850  1.00  0.00    -0.022 N 
ATOM      9  H7  UNL     1       5.640   8.622  25.869  1.00  0.00     0.203 HD
ENDROOT
BRANCH   1  10
HETATM   10  N1  UNL     1       7.681   7.238  24.922  1.00  0.00    -0.219 N 
HETATM   11  C1  UNL     1       7.296   6.628  26.176  1.00  0.00     0.168 C 
BRANCH  10  12
HETATM   12  C2  UNL     1       8.988   7.197  24.362  1.00  0.00     0.168 C 
BRANCH  12  13
HETATM   13  C3  UNL     1      10.046   7.889  25.176  1.00  0.00     0.250 C 
BRANCH  13  14
HETATM   14  N2  UNL     1      11.112   8.436  24.380  1.00  0.00    -0.078 N 
ATOM     15  H23 UNL     1      10.780   9.221  23.821  1.00  0.00     0.274 HD
ATOM     16  H22 UNL     1      11.789   8.921  24.968  1.00  0.00     0.274 HD
ATOM     17  H21 UNL     1      11.575   7.743  23.792  1.00  0.00     0.274 HD
ENDBRANCH  13  14
ENDBRANCH  12  13
ENDBRANCH  10  12
ENDBRANCH   1  10
BRANCH   4  18
HETATM   18  N4  UNL     1       5.789   8.469  20.842  1.00  0.00    -0.234 N 
ATOM     19  H42 UNL     1       5.777   7.589  20.327  1.00  0.00     0.174 HD
ATOM     20  H41 UNL     1       5.866   9.336  20.311  1.00  0.00     0.174 HD
ENDBRANCH   4  18
BRANCH   7  21
HETATM   21  N6  UNL     1       3.784   9.862  24.720  1.00  0.00    -0.234 N 
ATOM     22  H62 UNL     1       2.917  10.068  24.223  1.00  0.00     0.174 HD
ATOM     23  H61 UNL     1       3.926  10.153  25.687  1.00  0.00     0.174 HD
ENDBRANCH   7  21
TORSDOF 6
ENDMDL
MODEL 5
REMARK VINA RESULT: -4.200364279      1.537      2.740
REMARK  6 active torsions:
REMARK  status: ('A' for Active; 'I' for Inactive)
REMARK    1  A    between atoms: N1_2  and  C2_3 
REMARK    2  A    between atoms: N1_2  and  C4_9 
REMARK    3  A    between atoms: C2_3  and  C3_4 
REMARK    4  A    between atoms: C3_4  and  N2_5 
REMARK    5  A    between atoms: C5_12  and  N4_13 
REMARK    6  A    between atoms: C6_18  and  N6_19 
ROOT
HETATM    1  C4  UNL     1       6.573   8.034  24.273  1.00  0.00     0.709 A 
HETATM    2  N3  UNL     1       6.551   7.997  22.909  1.00  0.00    -0.022 N 
ATOM      3  H3  UNL     1       7.302   7.498  22.431  1.00  0.00     0.203 HD
HETATM    4  C5  UNL     1       5.612   8.571  22.168  1.00  0.00     0.705 A 
HETATM    5  N5  UNL     1       4.629   9.226  22.793  1.00  0.00    -0.022 N 
ATOM      6  H5  UNL     1       3.892   9.679  22.255  1.00  0.00     0.203 HD
HETATM    7  C6  UNL     1       4.617   9.284  24.150  1.00  0.00     0.705 A 
HETATM    8  N7  UNL     1       5.575   8.696  24.887  1.00  0.00    -0.022 N 
ATOM      9  H7  UNL     1       5.546   8.752  25.905  1.00  0.00     0.203 HD
ENDROOT
BRANCH   1  10
HETATM   10  N1  UNL     1       7.616   7.391  24.988  1.00  0.00    -0.219 N 
HETATM   11  C1  UNL     1       7.339   7.081  26.375  1.00  0.00     0.168 C 
BRANCH  10  12
HETATM   12  C2  UNL     1       8.836   7.100  24.316  1.00  0.00     0.168 C 
BRANCH  12  13
HETATM   13  C3  UNL     1       9.233   5.649  24.329  1.00  0.00     0.250 C 
BRANCH  13  14
HETATM   14  N2  UNL     1       8.235   4.779  23.767  1.00  0.00    -0.078 N 
ATOM     15  H23 UNL     1       7.304   5.036  24.094  1.00  0.00     0.274 HD
ATOM     16  H22 UNL     1       8.119   4.958  22.770  1.00  0.00     0.274 HD
ATOM     17  H21 UNL     1       8.417   3.790  23.938  1.00  0.00     0.274 HD
ENDBRANCH  13  14
ENDBRANCH  12  13
ENDBRANCH  10  12
ENDBRANCH   1  10
BRANCH   4  18
HETATM   18  N4  UNL     1       5.689   8.474  20.883  1.00  0.00    -0.234 N 
ATOM     19  H42 UNL     1       4.879   8.545  20.269  1.00  0.00     0.174 HD
ATOM     20  H41 UNL     1       6.603   8.319  20.459  1.00  0.00     0.174 HD
ENDBRANCH   4  18
BRANCH   7  21
HETATM   21  N6  UNL     1       3.660   9.920  24.729  1.00  0.00    -0.234 N 
ATOM     22  H62 UNL     1       3.722  10.930  24.852  1.00  0.00     0.174 HD
ATOM     23  H61 UNL     1       2.851   9.391  25.056  1.00  0.00     0.174 HD
ENDBRANCH   7  21
TORSDOF 6
ENDMDL
