MODEL 1
REMARK VINA RESULT: -4.753226309      0.000      0.000
REMARK  4 active torsions:
REMARK  status: ('A' for Active; 'I' for Inactive)
REMARK    1  A    between atoms: N5_15  and  C6_16 
REMARK    2  A    between atoms: C6_16  and  C7_17 
REMARK    3  A    between atoms: C7_17  and  N6_18 
REMARK    4  A    between atoms: N6_18  and  N7_20 
ROOT
HETATM    1  N1  UNL     1       6.063   5.544  22.589  1.00  0.00    -0.383 N 
ATOM      2  H11 UNL     1       5.172   5.841  22.189  1.00  0.00     0.157 HD
ATOM      3  H12 UNL     1       6.492   4.691  22.233  1.00  0.00     0.157 HD
HETATM    4  C1  UNL     1       6.508   6.300  23.497  1.00  0.00     0.133 A 
HETATM    5  C2  UNL     1       7.742   5.889  24.051  1.00  0.00     0.122 A 
HETATM    6  N2  UNL     1       8.515   4.841  23.738  1.00  0.00    -0.346 N 
ATOM      7  H2  UNL     1       8.295   4.125  23.045  1.00  0.00     0.167 HD
HETATM    8  C3  UNL     1       9.642   4.890  24.500  1.00  0.00     0.182 A 
HETATM    9  N3  UNL     1       9.529   5.994  25.302  1.00  0.00    -0.337 N 
ATOM     10  H3  UNL     1      10.215   6.301  25.992  1.00  0.00     0.168 HD
HETATM   11  C4  UNL     1       8.354   6.609  25.025  1.00  0.00     0.138 A 
HETATM   12  N4  UNL     1       7.746   7.714  25.454  1.00  0.00    -0.336 N 
ATOM     13  H4  UNL     1       8.190   8.261  26.191  1.00  0.00     0.168 HD
HETATM   14  C5  UNL     1       6.552   8.145  24.949  1.00  0.00     0.186 A 
HETATM   15  N5  UNL     1       5.945   7.419  23.965  1.00  0.00    -0.326 N 
ENDROOT
BRANCH  15  16
HETATM   16  C6  UNL     1       4.622   7.737  23.586  1.00  0.00     0.152 C 
BRANCH  16  17
HETATM   17  C7  UNL     1       4.623   9.085  22.756  1.00  0.00     0.159 C 
BRANCH  17  18
HETATM   18  N6  UNL     1       4.736   8.625  21.466  1.00  0.00    -0.341 N 
ATOM     19  H6  UNL     1       3.890   8.278  21.016  1.00  0.00     0.179 HD
BRANCH  18  20
HETATM   20  N7  UNL     1       5.838   8.596  20.771  1.00  0.00    -0.349 N 
ATOM     21  H72 UNL     1       6.029   9.415  20.194  1.00  0.00     0.176 HD
ATOM     22  H71 UNL     1       6.509   7.828  20.763  1.00  0.00     0.176 HD
ENDBRANCH  18  20
ENDBRANCH  17  18
ENDBRANCH  16  17
ENDBRANCH  15  16
TORSDOF 4
ENDMDL
MODEL 2
REMARK VINA RESULT: -4.686499654      1.487      1.916
REMARK  4 active torsions:
REMARK  status: ('A' for Active; 'I' for Inactive)
REMARK    1  A    between atoms: N5_15  and  C6_16 
REMARK    2  A    between atoms: C6_16  and  C7_17 
REMARK    3  A    between atoms: C7_17  and  N6_18 
REMARK    4  A    between atoms: N6_18  and  N7_20 
ROOT
HETATM    1  N1  UNL     1       6.871   6.413  23.528  1.00  0.00    -0.383 N 
ATOM      2  H11 UNL     1       6.124   6.246  22.854  1.00  0.00     0.157 HD
ATOM      3  H12 UNL     1       7.646   5.750  23.565  1.00  0.00     0.157 HD
HETATM    4  C1  UNL     1       6.714   7.443  24.240  1.00  0.00     0.133 A 
HETATM    5  C2  UNL     1       7.749   7.675  25.175  1.00  0.00     0.122 A 
HETATM    6  N2  UNL     1       8.876   6.984  25.395  1.00  0.00    -0.346 N 
ATOM      7  H2  UNL     1       9.147   6.121  24.923  1.00  0.00     0.167 HD
HETATM    8  C3  UNL     1       9.598   7.626  26.353  1.00  0.00     0.182 A 
HETATM    9  N3  UNL     1       8.871   8.724  26.727  1.00  0.00    -0.337 N 
ATOM     10  H3  UNL     1       9.145   9.407  27.435  1.00  0.00     0.168 HD
HETATM   11  C4  UNL     1       7.729   8.753  26.000  1.00  0.00     0.138 A 
HETATM   12  N4  UNL     1       6.690   9.583  25.909  1.00  0.00    -0.336 N 
ATOM     13  H4  UNL     1       6.658  10.393  26.528  1.00  0.00     0.168 HD
HETATM   14  C5  UNL     1       5.668   9.394  25.024  1.00  0.00     0.186 A 
HETATM   15  N5  UNL     1       5.698   8.311  24.192  1.00  0.00    -0.326 N 
ENDROOT
BRANCH  15  16
HETATM   16  C6  UNL     1       4.555   7.994  23.426  1.00  0.00     0.152 C 
BRANCH  16  17
HETATM   17  C7  UNL     1       4.267   9.167  22.403  1.00  0.00     0.159 C 
BRANCH  17  18
HETATM   18  N6  UNL     1       4.703   8.624  21.218  1.00  0.00    -0.341 N 
ATOM     19  H6  UNL     1       3.994   8.274  20.574  1.00  0.00     0.179 HD
BRANCH  18  20
HETATM   20  N7  UNL     1       5.949   8.520  20.851  1.00  0.00    -0.349 N 
ATOM     21  H72 UNL     1       6.377   7.600  20.961  1.00  0.00     0.176 HD
ATOM     22  H71 UNL     1       6.516   9.278  20.471  1.00  0.00     0.176 HD
ENDBRANCH  18  20
ENDBRANCH  17  18
ENDBRANCH  16  17
ENDBRANCH  15  16
TORSDOF 4
ENDMDL
MODEL 3
REMARK VINA RESULT: -4.672756033      5.342      6.526
REMARK  4 active torsions:
REMARK  status: ('A' for Active; 'I' for Inactive)
REMARK    1  A    between atoms: N5_15  and  C6_16 
REMARK    2  A    between atoms: C6_16  and  C7_17 
REMARK    3  A    between atoms: C7_17  and  N6_18 
REMARK    4  A    between atoms: N6_18  and  N7_20 
ROOT
HETATM    1  N1  UNL     1      10.583   4.495  24.120  1.00  0.00    -0.383 N 
ATOM      2  H11 UNL     1      10.268   5.150  24.836  1.00  0.00     0.157 HD
ATOM      3  H12 UNL     1      10.105   3.596  24.045  1.00  0.00     0.157 HD
HETATM    4  C1  UNL     1      11.548   4.907  23.421  1.00  0.00     0.133 A 
HETATM    5  C2  UNL     1      11.984   3.999  22.428  1.00  0.00     0.122 A 
HETATM    6  N2  UNL     1      11.509   2.789  22.106  1.00  0.00    -0.346 N 
ATOM      7  H2  UNL     1      10.749   2.301  22.582  1.00  0.00     0.167 HD
HETATM    8  C3  UNL     1      12.211   2.317  21.039  1.00  0.00     0.182 A 
HETATM    9  N3  UNL     1      13.143   3.270  20.726  1.00  0.00    -0.337 N 
ATOM     10  H3  UNL     1      13.828   3.209  19.972  1.00  0.00     0.168 HD
HETATM   11  C4  UNL     1      13.003   4.308  21.586  1.00  0.00     0.138 A 
HETATM   12  N4  UNL     1      13.591   5.494  21.733  1.00  0.00    -0.336 N 
ATOM     13  H4  UNL     1      14.363   5.737  21.113  1.00  0.00     0.168 HD
HETATM   14  C5  UNL     1      13.204   6.399  22.681  1.00  0.00     0.186 A 
HETATM   15  N5  UNL     1      12.174   6.084  23.520  1.00  0.00    -0.326 N 
ENDROOT
BRANCH  15  16
HETATM   16  C6  UNL     1      11.905   6.917  24.629  1.00  0.00     0.152 C 
BRANCH  16  17
HETATM   17  C7  UNL     1      12.903   8.145  24.618  1.00  0.00     0.159 C 
BRANCH  17  18
HETATM   18  N6  UNL     1      12.039   9.213  24.657  1.00  0.00    -0.341 N 
ATOM     19  H6  UNL     1      11.040   9.008  24.646  1.00  0.00     0.179 HD
BRANCH  18  20
HETATM   20  N7  UNL     1      12.392  10.467  24.707  1.00  0.00    -0.349 N 
ATOM     21  H72 UNL     1      12.097  10.987  25.533  1.00  0.00     0.176 HD
ATOM     22  H71 UNL     1      12.932  10.955  23.992  1.00  0.00     0.176 HD
ENDBRANCH  18  20
ENDBRANCH  17  18
ENDBRANCH  16  17
ENDBRANCH  15  16
TORSDOF 4
ENDMDL
MODEL 4
REMARK VINA RESULT: -4.668787872      2.062      2.764
REMARK  4 active torsions:
REMARK  status: ('A' for Active; 'I' for Inactive)
REMARK    1  A    between atoms: N5_15  and  C6_16 
REMARK    2  A    between atoms: C6_16  and  C7_17 
REMARK    3  A    between atoms: C7_17  and  N6_18 
REMARK    4  A    between atoms: N6_18  and  N7_20 
ROOT
HETATM    1  N1  UNL     1       6.349   6.443  24.520  1.00  0.00    -0.383 N 
ATOM      2  H11 UNL     1       5.822   6.102  23.716  1.00  0.00     0.157 HD
ATOM      3  H12 UNL     1       6.922   5.778  25.040  1.00  0.00     0.157 HD
HETATM    4  C1  UNL     1       6.203   7.673  24.760  1.00  0.00     0.133 A 
HETATM    5  C2  UNL     1       6.935   8.146  25.874  1.00  0.00     0.122 A 
HETATM    6  N2  UNL     1       7.773   7.492  26.688  1.00  0.00    -0.346 N 
ATOM      7  H2  UNL     1       7.988   6.496  26.646  1.00  0.00     0.167 HD
HETATM    8  C3  UNL     1       8.291   8.380  27.580  1.00  0.00     0.182 A 
HETATM    9  N3  UNL     1       7.731   9.597  27.299  1.00  0.00    -0.337 N 
ATOM     10  H3  UNL     1       7.915  10.468  27.798  1.00  0.00     0.168 HD
HETATM   11  C4  UNL     1       6.892   9.451  26.245  1.00  0.00     0.138 A 
HETATM   12  N4  UNL     1       6.125  10.274  25.531  1.00  0.00    -0.336 N 
ATOM     13  H4  UNL     1       6.078  11.256  25.803  1.00  0.00     0.168 HD
HETATM   14  C5  UNL     1       5.401   9.859  24.451  1.00  0.00     0.186 A 
HETATM   15  N5  UNL     1       5.453   8.546  24.079  1.00  0.00    -0.326 N 
ENDROOT
BRANCH  15  16
HETATM   16  C6  UNL     1       4.553   8.066  23.101  1.00  0.00     0.152 C 
BRANCH  16  17
HETATM   17  C7  UNL     1       4.524   9.069  21.877  1.00  0.00     0.159 C 
BRANCH  17  18
HETATM   18  N6  UNL     1       5.377   8.458  20.989  1.00  0.00    -0.341 N 
ATOM     19  H6  UNL     1       4.989   8.160  20.095  1.00  0.00     0.179 HD
BRANCH  18  20
HETATM   20  N7  UNL     1       6.643   8.230  21.198  1.00  0.00    -0.349 N 
ATOM     21  H72 UNL     1       6.881   7.780  22.082  1.00  0.00     0.176 HD
ATOM     22  H71 UNL     1       7.398   8.465  20.554  1.00  0.00     0.176 HD
ENDBRANCH  18  20
ENDBRANCH  17  18
ENDBRANCH  16  17
ENDBRANCH  15  16
TORSDOF 4
ENDMDL
MODEL 5
REMARK VINA RESULT: -4.624624625      1.727      2.069
REMARK  4 active torsions:
REMARK  status: ('A' for Active; 'I' for Inactive)
REMARK    1  A    between atoms: N5_15  and  C6_16 
REMARK    2  A    between atoms: C6_16  and  C7_17 
REMARK    3  A    between atoms: C7_17  and  N6_18 
REMARK    4  A    between atoms: N6_18  and  N7_20 
ROOT
HETATM    1  N1  UNL     1       7.995   7.186  23.483  1.00  0.00    -0.383 N 
ATOM      2  H11 UNL     1       7.975   8.079  22.989  1.00  0.00     0.157 HD
ATOM      3  H12 UNL     1       8.843   6.622  23.428  1.00  0.00     0.157 HD
HETATM    4  C1  UNL     1       6.930   6.905  24.099  1.00  0.00     0.133 A 
HETATM    5  C2  UNL     1       6.957   5.668  24.784  1.00  0.00     0.122 A 
HETATM    6  N2  UNL     1       7.946   4.773  24.897  1.00  0.00    -0.346 N 
ATOM      7  H2  UNL     1       8.860   4.835  24.448  1.00  0.00     0.167 HD
HETATM    8  C3  UNL     1       7.528   3.765  25.710  1.00  0.00     0.182 A 
HETATM    9  N3  UNL     1       6.244   4.062  26.081  1.00  0.00    -0.337 N 
ATOM     10  H3  UNL     1       5.652   3.494  26.687  1.00  0.00     0.168 HD
HETATM   11  C4  UNL     1       5.892   5.237  25.507  1.00  0.00     0.138 A 
HETATM   12  N4  UNL     1       4.810   6.014  25.540  1.00  0.00    -0.336 N 
ATOM     13  H4  UNL     1       3.999   5.700  26.072  1.00  0.00     0.168 HD
HETATM   14  C5  UNL     1       4.741   7.214  24.890  1.00  0.00     0.186 A 
HETATM   15  N5  UNL     1       5.818   7.644  24.170  1.00  0.00    -0.326 N 
ENDROOT
BRANCH  15  16
HETATM   16  C6  UNL     1       5.685   8.772  23.331  1.00  0.00     0.152 C 
BRANCH  16  17
HETATM   17  C7  UNL     1       4.307   8.691  22.556  1.00  0.00     0.159 C 
BRANCH  17  18
HETATM   18  N6  UNL     1       4.721   8.620  21.247  1.00  0.00    -0.341 N 
ATOM     19  H6  UNL     1       4.000   8.647  20.526  1.00  0.00     0.179 HD
BRANCH  18  20
HETATM   20  N7  UNL     1       5.959   8.522  20.854  1.00  0.00    -0.349 N 
ATOM     21  H72 UNL     1       6.447   9.401  20.676  1.00  0.00     0.176 HD
ATOM     22  H71 UNL     1       6.464   7.648  20.712  1.00  0.00     0.176 HD
ENDBRANCH  18  20
ENDBRANCH  17  18
ENDBRANCH  16  17
ENDBRANCH  15  16
TORSDOF 4
ENDMDL
