MODEL 1
REMARK VINA RESULT: -4.349680925      0.000      0.000
REMARK  6 active torsions:
REMARK  status: ('A' for Active; 'I' for Inactive)
REMARK    1  A    between atoms: C2_2  and  N1_3 
REMARK    2  A    between atoms: N1_3  and  C3_6 
REMARK    3  A    between atoms: C3_6  and  C4_7 
REMARK    4  A    between atoms: C4_7  and  N2_8 
REMARK    5  A    between atoms: C6_12  and  N4_13 
REMARK    6  A    between atoms: C7_18  and  N6_19 
ROOT
HETATM    1  N2  UNL     1      12.712   5.228  22.672  1.00  0.00    -0.177 N 
HETATM    2  C5  UNL     1      11.751   4.341  23.076  1.00  0.00     0.218 A 
HETATM    3  N3  UNL     1      11.464   3.211  22.420  1.00  0.00    -0.187 N 
ATOM      4  H3  UNL     1      10.736   2.589  22.771  1.00  0.00     0.185 HD
HETATM    5  C6  UNL     1      12.133   2.894  21.296  1.00  0.00     0.691 A 
HETATM    6  N5  UNL     1      13.076   3.736  20.874  1.00  0.00    -0.023 N 
ATOM      7  H5  UNL     1      13.597   3.517  20.024  1.00  0.00     0.203 HD
HETATM    8  C7  UNL     1      13.358   4.883  21.552  1.00  0.00     0.693 A 
ENDROOT
BRANCH   1   9
HETATM    9  C4  UNL     1      12.965   6.413  23.443  1.00  0.00     0.175 C 
BRANCH   9  10
HETATM   10  C3  UNL     1      11.852   6.997  24.195  1.00  0.00     0.253 C 
BRANCH  10  11
HETATM   11  N1  UNL     1      11.759   8.423  24.235  1.00  0.00    -0.074 N 
ATOM     12  H12 UNL     1      10.815   8.726  24.477  1.00  0.00     0.277 HD
ATOM     13  H11 UNL     1      11.821   8.825  23.299  1.00  0.00     0.277 HD
BRANCH  11  14
HETATM   14  C2  UNL     1      12.743   9.006  25.123  1.00  0.00     0.228 C 
HETATM   15  C1  UNL     1      12.459  10.459  25.324  1.00  0.00     0.034 C 
ENDBRANCH  11  14
ENDBRANCH  10  11
ENDBRANCH   9  10
ENDBRANCH   1   9
BRANCH   8  16
HETATM   16  N6  UNL     1      14.253   5.642  21.091  1.00  0.00    -0.234 N 
ATOM     17  H62 UNL     1      15.175   5.615  21.523  1.00  0.00     0.174 HD
ATOM     18  H61 UNL     1      14.039   6.249  20.300  1.00  0.00     0.174 HD
ENDBRANCH   8  16
BRANCH   5  19
HETATM   19  N4  UNL     1      11.871   1.804  20.642  1.00  0.00    -0.234 N 
ATOM     20  H42 UNL     1      12.452   0.974  20.752  1.00  0.00     0.174 HD
ATOM     21  H41 UNL     1      11.080   1.749  20.000  1.00  0.00     0.174 HD
ENDBRANCH   5  19
TORSDOF 6
ENDMDL
MODEL 2
REMARK VINA RESULT: -4.231688519      5.713      6.970
REMARK  6 active torsions:
REMARK  status: ('A' for Active; 'I' for Inactive)
REMARK    1  A    between atoms: C2_2  and  N1_3 
REMARK    2  A    between atoms: N1_3  and  C3_6 
REMARK    3  A    between atoms: C3_6  and  C4_7 
REMARK    4  A    between atoms: C4_7  and  N2_8 
REMARK    5  A    between atoms: C6_12  and  N4_13 
REMARK    6  A    between atoms: C7_18  and  N6_19 
ROOT
HETATM    1  N2  UNL     1       6.643   7.824  24.704  1.00  0.00    -0.177 N 
HETATM    2  C5  UNL     1       5.615   8.658  24.359  1.00  0.00     0.218 A 
HETATM    3  N3  UNL     1       5.272   8.928  23.094  1.00  0.00    -0.187 N 
ATOM      4  H3  UNL     1       4.495   9.558  22.901  1.00  0.00     0.185 HD
HETATM    5  C6  UNL     1       5.951   8.367  22.076  1.00  0.00     0.691 A 
HETATM    6  N5  UNL     1       6.960   7.548  22.376  1.00  0.00    -0.023 N 
ATOM      7  H5  UNL     1       7.490   7.111  21.622  1.00  0.00     0.203 HD
HETATM    8  C7  UNL     1       7.298   7.283  23.669  1.00  0.00     0.693 A 
ENDROOT
BRANCH   1   9
HETATM    9  C4  UNL     1       6.938   7.579  26.088  1.00  0.00     0.175 C 
BRANCH   9  10
HETATM   10  C3  UNL     1       7.137   8.736  26.964  1.00  0.00     0.253 C 
BRANCH  10  11
HETATM   11  N1  UNL     1       8.226   9.612  26.663  1.00  0.00    -0.074 N 
ATOM     12  H12 UNL     1       8.605   9.426  25.734  1.00  0.00     0.277 HD
ATOM     13  H11 UNL     1       9.050   9.385  27.220  1.00  0.00     0.277 HD
BRANCH  11  14
HETATM   14  C2  UNL     1       7.859  11.005  26.812  1.00  0.00     0.228 C 
HETATM   15  C1  UNL     1       8.252  11.499  28.165  1.00  0.00     0.034 C 
ENDBRANCH  11  14
ENDBRANCH  10  11
ENDBRANCH   9  10
ENDBRANCH   1   9
BRANCH   8  16
HETATM   16  N6  UNL     1       8.270   6.510  23.882  1.00  0.00    -0.234 N 
ATOM     17  H62 UNL     1       8.069   5.543  24.134  1.00  0.00     0.174 HD
ATOM     18  H61 UNL     1       9.223   6.862  23.790  1.00  0.00     0.174 HD
ENDBRANCH   8  16
BRANCH   5  19
HETATM   19  N4  UNL     1       5.638   8.614  20.841  1.00  0.00    -0.234 N 
ATOM     20  H42 UNL     1       5.500   7.856  20.174  1.00  0.00     0.174 HD
ATOM     21  H41 UNL     1       5.523   9.570  20.505  1.00  0.00     0.174 HD
ENDBRANCH   5  19
TORSDOF 6
ENDMDL
MODEL 3
REMARK VINA RESULT: -4.229151554      0.981      2.021
REMARK  6 active torsions:
REMARK  status: ('A' for Active; 'I' for Inactive)
REMARK    1  A    between atoms: C2_2  and  N1_3 
REMARK    2  A    between atoms: N1_3  and  C3_6 
REMARK    3  A    between atoms: C3_6  and  C4_7 
REMARK    4  A    between atoms: C4_7  and  N2_8 
REMARK    5  A    between atoms: C6_12  and  N4_13 
REMARK    6  A    between atoms: C7_18  and  N6_19 
ROOT
HETATM    1  N2  UNL     1      12.472   5.184  22.712  1.00  0.00    -0.177 N 
HETATM    2  C5  UNL     1      13.498   5.569  21.892  1.00  0.00     0.218 A 
HETATM    3  N3  UNL     1      13.931   4.843  20.855  1.00  0.00    -0.187 N 
ATOM      4  H3  UNL     1      14.701   5.184  20.280  1.00  0.00     0.185 HD
HETATM    5  C6  UNL     1      13.350   3.663  20.567  1.00  0.00     0.691 A 
HETATM    6  N5  UNL     1      12.346   3.257  21.346  1.00  0.00    -0.023 N 
ATOM      7  H5  UNL     1      11.890   2.366  21.148  1.00  0.00     0.203 HD
HETATM    8  C7  UNL     1      11.917   4.006  22.399  1.00  0.00     0.693 A 
ENDROOT
BRANCH   1   9
HETATM    9  C4  UNL     1      12.063   6.029  23.798  1.00  0.00     0.175 C 
BRANCH   9  10
HETATM   10  C3  UNL     1      13.035   6.990  24.326  1.00  0.00     0.253 C 
BRANCH  10  11
HETATM   11  N1  UNL     1      12.721   8.380  24.206  1.00  0.00    -0.074 N 
ATOM     12  H12 UNL     1      11.796   8.517  23.796  1.00  0.00     0.277 HD
ATOM     13  H11 UNL     1      13.284   8.825  23.481  1.00  0.00     0.277 HD
BRANCH  11  14
HETATM   14  C2  UNL     1      12.845   9.075  25.470  1.00  0.00     0.228 C 
HETATM   15  C1  UNL     1      12.477  10.513  25.305  1.00  0.00     0.034 C 
ENDBRANCH  11  14
ENDBRANCH  10  11
ENDBRANCH   9  10
ENDBRANCH   1   9
BRANCH   8  16
HETATM   16  N6  UNL     1      10.972   3.558  23.102  1.00  0.00    -0.234 N 
ATOM     17  H62 UNL     1      10.953   3.800  24.092  1.00  0.00     0.174 HD
ATOM     18  H61 UNL     1      10.253   2.979  22.668  1.00  0.00     0.174 HD
ENDBRANCH   8  16
BRANCH   5  19
HETATM   19  N4  UNL     1      13.752   2.941  19.567  1.00  0.00    -0.234 N 
ATOM     20  H42 UNL     1      14.656   3.111  19.128  1.00  0.00     0.174 HD
ATOM     21  H41 UNL     1      13.176   2.187  19.193  1.00  0.00     0.174 HD
ENDBRANCH   5  19
TORSDOF 6
ENDMDL
MODEL 4
REMARK VINA RESULT: -4.173340134      5.103      6.662
REMARK  6 active torsions:
REMARK  status: ('A' for Active; 'I' for Inactive)
REMARK    1  A    between atoms: C2_2  and  N1_3 
REMARK    2  A    between atoms: N1_3  and  C3_6 
REMARK    3  A    between atoms: C3_6  and  C4_7 
REMARK    4  A    between atoms: C4_7  and  N2_8 
REMARK    5  A    between atoms: C6_12  and  N4_13 
REMARK    6  A    between atoms: C7_18  and  N6_19 
ROOT
HETATM    1  N2  UNL     1       7.017   7.473  24.446  1.00  0.00    -0.177 N 
HETATM    2  C5  UNL     1       7.224   6.799  23.273  1.00  0.00     0.218 A 
HETATM    3  N3  UNL     1       6.684   7.162  22.104  1.00  0.00    -0.187 N 
ATOM      4  H3  UNL     1       6.877   6.618  21.264  1.00  0.00     0.185 HD
HETATM    5  C6  UNL     1       5.887   8.244  22.035  1.00  0.00     0.691 A 
HETATM    6  N5  UNL     1       5.663   8.925  23.160  1.00  0.00    -0.023 N 
ATOM      7  H5  UNL     1       5.062   9.749  23.133  1.00  0.00     0.203 HD
HETATM    8  C7  UNL     1       6.219   8.544  24.343  1.00  0.00     0.693 A 
ENDROOT
BRANCH   1   9
HETATM    9  C4  UNL     1       7.645   7.022  25.655  1.00  0.00     0.175 C 
BRANCH   9  10
HETATM   10  C3  UNL     1       9.108   7.047  25.722  1.00  0.00     0.253 C 
BRANCH  10  11
HETATM   11  N1  UNL     1       9.750   8.323  25.670  1.00  0.00    -0.074 N 
ATOM     12  H12 UNL     1       9.940   8.681  26.606  1.00  0.00     0.277 HD
ATOM     13  H11 UNL     1       9.108   9.048  25.350  1.00  0.00     0.277 HD
BRANCH  11  14
HETATM   14  C2  UNL     1      10.953   8.293  24.864  1.00  0.00     0.228 C 
HETATM   15  C1  UNL     1      11.781   9.508  25.129  1.00  0.00     0.034 C 
ENDBRANCH  11  14
ENDBRANCH  10  11
ENDBRANCH   9  10
ENDBRANCH   1   9
BRANCH   8  16
HETATM   16  N6  UNL     1       5.956   9.225  25.370  1.00  0.00    -0.234 N 
ATOM     17  H62 UNL     1       6.081   8.787  26.282  1.00  0.00     0.174 HD
ATOM     18  H61 UNL     1       5.638  10.188  25.268  1.00  0.00     0.174 HD
ENDBRANCH   8  16
BRANCH   5  19
HETATM   19  N4  UNL     1       5.350   8.615  20.913  1.00  0.00    -0.234 N 
ATOM     20  H42 UNL     1       4.342   8.563  20.772  1.00  0.00     0.174 HD
ATOM     21  H41 UNL     1       5.921   8.966  20.144  1.00  0.00     0.174 HD
ENDBRANCH   5  19
TORSDOF 6
ENDMDL
MODEL 5
REMARK VINA RESULT: -4.147217806      5.866      7.007
REMARK  6 active torsions:
REMARK  status: ('A' for Active; 'I' for Inactive)
REMARK    1  A    between atoms: C2_2  and  N1_3 
REMARK    2  A    between atoms: N1_3  and  C3_6 
REMARK    3  A    between atoms: C3_6  and  C4_7 
REMARK    4  A    between atoms: C4_7  and  N2_8 
REMARK    5  A    between atoms: C6_12  and  N4_13 
REMARK    6  A    between atoms: C7_18  and  N6_19 
ROOT
HETATM    1  N2  UNL     1       6.995   7.776  24.488  1.00  0.00    -0.177 N 
HETATM    2  C5  UNL     1       7.342   7.090  23.356  1.00  0.00     0.218 A 
HETATM    3  N3  UNL     1       6.825   7.344  22.148  1.00  0.00    -0.187 N 
ATOM      4  H3  UNL     1       7.125   6.797  21.342  1.00  0.00     0.185 HD
HETATM    5  C6  UNL     1       5.911   8.320  21.996  1.00  0.00     0.691 A 
HETATM    6  N5  UNL     1       5.550   9.009  23.079  1.00  0.00    -0.023 N 
ATOM      7  H5  UNL     1       4.858   9.754  22.989  1.00  0.00     0.203 HD
HETATM    8  C7  UNL     1       6.084   8.739  24.302  1.00  0.00     0.693 A 
ENDROOT
BRANCH   1   9
HETATM    9  C4  UNL     1       7.607   7.447  25.745  1.00  0.00     0.175 C 
BRANCH   9  10
HETATM   10  C3  UNL     1       9.012   7.811  25.942  1.00  0.00     0.253 C 
BRANCH  10  11
HETATM   11  N1  UNL     1       9.301   9.170  26.280  1.00  0.00    -0.074 N 
ATOM     12  H12 UNL     1       9.114   9.795  25.495  1.00  0.00     0.277 HD
ATOM     13  H11 UNL     1      10.305   9.324  26.371  1.00  0.00     0.277 HD
BRANCH  11  14
HETATM   14  C2  UNL     1       8.593   9.595  27.470  1.00  0.00     0.228 C 
HETATM   15  C1  UNL     1       8.163  11.019  27.332  1.00  0.00     0.034 C 
ENDBRANCH  11  14
ENDBRANCH  10  11
ENDBRANCH   9  10
ENDBRANCH   1   9
BRANCH   8  16
HETATM   16  N6  UNL     1       5.688   9.421  25.286  1.00  0.00    -0.234 N 
ATOM     17  H62 UNL     1       5.223  10.308  25.100  1.00  0.00     0.174 HD
ATOM     18  H61 UNL     1       5.832   9.069  26.233  1.00  0.00     0.174 HD
ENDBRANCH   8  16
BRANCH   5  19
HETATM   19  N4  UNL     1       5.395   8.583  20.835  1.00  0.00    -0.234 N 
ATOM     20  H42 UNL     1       5.546   7.961  20.041  1.00  0.00     0.174 HD
ATOM     21  H41 UNL     1       4.828   9.418  20.685  1.00  0.00     0.174 HD
ENDBRANCH   5  19
TORSDOF 6
ENDMDL
