MODEL 1
REMARK VINA RESULT: -6.038648148      0.000      0.000
REMARK  2 active torsions:
REMARK  status: ('A' for Active; 'I' for Inactive)
REMARK    1  A    between atoms: C3_3  and  O1_4 
REMARK    2  A    between atoms: N2_10  and  O2_11 
ROOT
HETATM    1  C1  UNL     1      24.348  -1.979  12.238  1.00  0.00     0.015 C 
HETATM    2  C2  UNL     1      23.269  -1.326  11.445  1.00  0.00     0.038 C 
HETATM    3  C3  UNL     1      23.382  -1.570   9.957  1.00  0.00     0.163 C 
HETATM    4  C4  UNL     1      22.021  -1.056   9.531  1.00  0.00     0.149 C 
HETATM    5  C5  UNL     1      21.503  -1.749   8.305  1.00  0.00     0.054 C 
HETATM    6  C6  UNL     1      22.162   0.389   9.232  1.00  0.00     0.089 C 
HETATM    7  N1  UNL     1      22.278   1.519   9.018  1.00  0.00    -0.195 NA
HETATM    8  N2  UNL     1      21.124  -1.240  10.629  1.00  0.00    -0.165 NA
HETATM    9  C7  UNL     1      21.893  -1.834  11.722  1.00  0.00     0.039 C 
HETATM   10  C8  UNL     1      21.789  -3.340  11.709  1.00  0.00     0.035 C 
HETATM   11  C9  UNL     1      21.443  -1.330  13.067  1.00  0.00     0.035 C 
ENDROOT
BRANCH   3  12
HETATM   12  O1  UNL     1      24.372  -0.833   9.354  1.00  0.00    -0.392 OA
ATOM     13  H1  UNL     1      24.496  -1.044   8.436  1.00  0.00     0.210 HD
ENDBRANCH   3  12
BRANCH   8  14
HETATM   14  O2  UNL     1      20.610  -0.044  11.033  1.00  0.00    -0.310 OA
ATOM     15  H2  UNL     1      20.001   0.293  10.386  1.00  0.00     0.237 HD
ENDBRANCH   8  14
TORSDOF 2
ENDMDL
MODEL 2
REMARK VINA RESULT: -5.908868077      1.869      3.068
REMARK  2 active torsions:
REMARK  status: ('A' for Active; 'I' for Inactive)
REMARK    1  A    between atoms: C3_3  and  O1_4 
REMARK    2  A    between atoms: N2_10  and  O2_11 
ROOT
HETATM    1  C1  UNL     1      20.523  -0.672  12.581  1.00  0.00     0.015 C 
HETATM    2  C2  UNL     1      21.737  -0.627  11.718  1.00  0.00     0.038 C 
HETATM    3  C3  UNL     1      22.759   0.393  12.167  1.00  0.00     0.163 C 
HETATM    4  C4  UNL     1      23.922  -0.043  11.299  1.00  0.00     0.149 C 
HETATM    5  C5  UNL     1      25.251   0.243  11.933  1.00  0.00     0.054 C 
HETATM    6  C6  UNL     1      23.836   0.710  10.024  1.00  0.00     0.089 C 
HETATM    7  N1  UNL     1      23.751   1.289   9.027  1.00  0.00    -0.195 NA
HETATM    8  N2  UNL     1      23.776  -1.442  11.047  1.00  0.00    -0.165 NA
HETATM    9  C7  UNL     1      22.552  -1.878  11.717  1.00  0.00     0.039 C 
HETATM   10  C8  UNL     1      22.844  -2.411  13.099  1.00  0.00     0.035 C 
HETATM   11  C9  UNL     1      21.826  -2.938  10.934  1.00  0.00     0.035 C 
ENDROOT
BRANCH   3  12
HETATM   12  O1  UNL     1      22.409   1.687  11.868  1.00  0.00    -0.392 OA
ATOM     13  H1  UNL     1      21.710   2.027  12.415  1.00  0.00     0.210 HD
ENDBRANCH   3  12
BRANCH   8  14
HETATM   14  O2  UNL     1      23.671  -1.680   9.708  1.00  0.00    -0.310 OA
ATOM     15  H2  UNL     1      24.373  -2.249   9.415  1.00  0.00     0.237 HD
ENDBRANCH   8  14
TORSDOF 2
ENDMDL
MODEL 3
REMARK VINA RESULT: -5.890458086      1.783      2.404
REMARK  2 active torsions:
REMARK  status: ('A' for Active; 'I' for Inactive)
REMARK    1  A    between atoms: C3_3  and  O1_4 
REMARK    2  A    between atoms: N2_10  and  O2_11 
ROOT
HETATM    1  C1  UNL     1      24.329  -3.074   9.717  1.00  0.00     0.015 C 
HETATM    2  C2  UNL     1      23.820  -1.723  10.086  1.00  0.00     0.038 C 
HETATM    3  C3  UNL     1      22.333  -1.557   9.865  1.00  0.00     0.163 C 
HETATM    4  C4  UNL     1      22.130  -0.250  10.605  1.00  0.00     0.149 C 
HETATM    5  C5  UNL     1      20.755  -0.130  11.192  1.00  0.00     0.054 C 
HETATM    6  C6  UNL     1      22.326   0.851   9.631  1.00  0.00     0.089 C 
HETATM    7  N1  UNL     1      22.496   1.702   8.869  1.00  0.00    -0.195 NA
HETATM    8  N2  UNL     1      23.123  -0.174  11.630  1.00  0.00    -0.165 NA
HETATM    9  C7  UNL     1      23.941  -1.382  11.534  1.00  0.00     0.039 C 
HETATM   10  C8  UNL     1      23.431  -2.463  12.456  1.00  0.00     0.035 C 
HETATM   11  C9  UNL     1      25.385  -1.113  11.857  1.00  0.00     0.035 C 
ENDROOT
BRANCH   3  12
HETATM   12  O1  UNL     1      21.989  -1.406   8.543  1.00  0.00    -0.392 OA
ATOM     13  H1  UNL     1      21.471  -0.628   8.373  1.00  0.00     0.210 HD
ENDBRANCH   3  12
BRANCH   8  14
HETATM   14  O2  UNL     1      23.912   0.924  11.452  1.00  0.00    -0.310 OA
ATOM     15  H2  UNL     1      24.255   1.227  12.285  1.00  0.00     0.237 HD
ENDBRANCH   8  14
TORSDOF 2
ENDMDL
MODEL 4
REMARK VINA RESULT: -5.865893636      1.819      2.098
REMARK  2 active torsions:
REMARK  status: ('A' for Active; 'I' for Inactive)
REMARK    1  A    between atoms: C3_3  and  O1_4 
REMARK    2  A    between atoms: N2_10  and  O2_11 
ROOT
HETATM    1  C1  UNL     1      25.381  -2.269  11.846  1.00  0.00     0.015 C 
HETATM    2  C2  UNL     1      24.437  -1.161  11.528  1.00  0.00     0.038 C 
HETATM    3  C3  UNL     1      23.300  -1.579  10.622  1.00  0.00     0.163 C 
HETATM    4  C4  UNL     1      22.422  -0.353  10.768  1.00  0.00     0.149 C 
HETATM    5  C5  UNL     1      20.964  -0.668  10.606  1.00  0.00     0.054 C 
HETATM    6  C6  UNL     1      22.817   0.609   9.710  1.00  0.00     0.089 C 
HETATM    7  N1  UNL     1      23.143   1.359   8.893  1.00  0.00    -0.195 NA
HETATM    8  N2  UNL     1      22.674   0.211  12.056  1.00  0.00    -0.165 NA
HETATM    9  C7  UNL     1      23.691  -0.617  12.701  1.00  0.00     0.039 C 
HETATM   10  C8  UNL     1      23.062  -1.682  13.566  1.00  0.00     0.035 C 
HETATM   11  C9  UNL     1      24.631   0.199  13.546  1.00  0.00     0.035 C 
ENDROOT
BRANCH   3  12
HETATM   12  O1  UNL     1      23.675  -1.735   9.309  1.00  0.00    -0.392 OA
ATOM     13  H1  UNL     1      22.960  -1.616   8.694  1.00  0.00     0.210 HD
ENDBRANCH   3  12
BRANCH   8  14
HETATM   14  O2  UNL     1      23.136   1.489  11.938  1.00  0.00    -0.310 OA
ATOM     15  H2  UNL     1      23.434   1.655  11.051  1.00  0.00     0.237 HD
ENDBRANCH   8  14
TORSDOF 2
ENDMDL
MODEL 5
REMARK VINA RESULT: -5.714665064      1.614      1.885
REMARK  2 active torsions:
REMARK  status: ('A' for Active; 'I' for Inactive)
REMARK    1  A    between atoms: C3_3  and  O1_4 
REMARK    2  A    between atoms: N2_10  and  O2_11 
ROOT
HETATM    1  C1  UNL     1      23.476   0.248  14.021  1.00  0.00     0.015 C 
HETATM    2  C2  UNL     1      23.058   0.017  12.609  1.00  0.00     0.038 C 
HETATM    3  C3  UNL     1      24.218  -0.199  11.664  1.00  0.00     0.163 C 
HETATM    4  C4  UNL     1      23.447  -0.690  10.455  1.00  0.00     0.149 C 
HETATM    5  C5  UNL     1      24.248  -1.633   9.607  1.00  0.00     0.054 C 
HETATM    6  C6  UNL     1      23.094   0.496   9.638  1.00  0.00     0.089 C 
HETATM    7  N1  UNL     1      22.809   1.428   9.016  1.00  0.00    -0.195 NA
HETATM    8  N2  UNL     1      22.258  -1.326  10.928  1.00  0.00    -0.165 NA
HETATM    9  C7  UNL     1      22.263  -1.226  12.387  1.00  0.00     0.039 C 
HETATM   10  C8  UNL     1      22.871  -2.455  13.016  1.00  0.00     0.035 C 
HETATM   11  C9  UNL     1      20.879  -1.032  12.944  1.00  0.00     0.035 C 
ENDROOT
BRANCH   3  12
HETATM   12  O1  UNL     1      24.893   0.957  11.353  1.00  0.00    -0.392 OA
ATOM     13  H1  UNL     1      25.779   0.807  11.044  1.00  0.00     0.210 HD
ENDBRANCH   3  12
BRANCH   8  14
HETATM   14  O2  UNL     1      21.151  -0.700  10.434  1.00  0.00    -0.310 OA
ATOM     15  H2  UNL     1      20.992   0.113  10.899  1.00  0.00     0.237 HD
ENDBRANCH   8  14
TORSDOF 2
ENDMDL
