MODEL 1
REMARK VINA RESULT: -5.740242857      0.000      0.000
REMARK  1 active torsions:
REMARK  status: ('A' for Active; 'I' for Inactive)
REMARK       I    between atoms: C2_2  and  N1_4 
REMARK    1  A    between atoms: C6_9  and  O2_10 
ROOT
HETATM    1  C1  UNL     1      21.651  -0.540   8.992  1.00  0.00     0.119 C 
HETATM    2  C2  UNL     1      21.651  -0.550  10.485  1.00  0.00     0.231 C 
HETATM    3  O1  UNL     1      20.536  -0.578  11.109  1.00  0.00    -0.272 OA
HETATM    4  N1  UNL     1      22.830  -0.531  11.268  1.00  0.00    -0.269 N 
HETATM    5  N2  UNL     1      22.818  -0.545  12.651  1.00  0.00    -0.223 NA
HETATM    6  C3  UNL     1      21.920  -1.521  13.217  1.00  0.00     0.137 C 
HETATM    7  C4  UNL     1      24.185  -0.723  13.087  1.00  0.00     0.106 C 
HETATM    8  C5  UNL     1      24.371   0.107  14.345  1.00  0.00     0.031 C 
HETATM    9  C6  UNL     1      25.032  -0.244  11.948  1.00  0.00     0.166 C 
HETATM   10  C7  UNL     1      24.160  -0.495  10.739  1.00  0.00     0.072 C 
HETATM   11  C8  UNL     1      24.342   0.674   9.755  1.00  0.00     0.042 C 
HETATM   12  C9  UNL     1      24.564  -1.732  10.013  1.00  0.00     0.042 C 
ENDROOT
BRANCH   9  13
HETATM   13  O2  UNL     1      25.360   1.099  12.052  1.00  0.00    -0.391 OA
ATOM     14  H2  UNL     1      26.296   1.245  12.117  1.00  0.00     0.210 HD
ENDBRANCH   9  13
TORSDOF 1
ENDMDL
MODEL 2
REMARK VINA RESULT: -5.729064434      1.942      3.857
REMARK  1 active torsions:
REMARK  status: ('A' for Active; 'I' for Inactive)
REMARK       I    between atoms: C2_2  and  N1_4 
REMARK    1  A    between atoms: C6_9  and  O2_10 
ROOT
HETATM    1  C1  UNL     1      24.634  -2.691  13.397  1.00  0.00     0.119 C 
HETATM    2  C2  UNL     1      24.214  -2.373  12.000  1.00  0.00     0.231 C 
HETATM    3  O1  UNL     1      24.707  -3.047  11.032  1.00  0.00    -0.272 OA
HETATM    4  N1  UNL     1      23.288  -1.355  11.673  1.00  0.00    -0.269 N 
HETATM    5  N2  UNL     1      22.903  -1.072  10.375  1.00  0.00    -0.223 NA
HETATM    6  C3  UNL     1      22.578  -2.241   9.595  1.00  0.00     0.137 C 
HETATM    7  C4  UNL     1      21.811  -0.128  10.450  1.00  0.00     0.106 C 
HETATM    8  C5  UNL     1      21.964   0.834   9.284  1.00  0.00     0.031 C 
HETATM    9  C6  UNL     1      21.959   0.546  11.779  1.00  0.00     0.166 C 
HETATM   10  C7  UNL     1      22.643  -0.502  12.626  1.00  0.00     0.072 C 
HETATM   11  C8  UNL     1      23.666   0.197  13.537  1.00  0.00     0.042 C 
HETATM   12  C9  UNL     1      21.681  -1.204  13.522  1.00  0.00     0.042 C 
ENDROOT
BRANCH   9  13
HETATM   13  O2  UNL     1      22.721   1.702  11.712  1.00  0.00    -0.391 OA
ATOM     14  H2  UNL     1      23.402   1.733  12.373  1.00  0.00     0.210 HD
ENDBRANCH   9  13
TORSDOF 1
ENDMDL
MODEL 3
REMARK VINA RESULT: -5.696434693      2.029      4.185
REMARK  1 active torsions:
REMARK  status: ('A' for Active; 'I' for Inactive)
REMARK       I    between atoms: C2_2  and  N1_4 
REMARK    1  A    between atoms: C6_9  and  O2_10 
ROOT
HETATM    1  C1  UNL     1      24.764   0.101  12.340  1.00  0.00     0.119 C 
HETATM    2  C2  UNL     1      24.543  -1.177  11.601  1.00  0.00     0.231 C 
HETATM    3  O1  UNL     1      25.385  -2.129  11.735  1.00  0.00    -0.272 OA
HETATM    4  N1  UNL     1      23.440  -1.405  10.744  1.00  0.00    -0.269 N 
HETATM    5  N2  UNL     1      23.243  -2.595  10.068  1.00  0.00    -0.223 NA
HETATM    6  C3  UNL     1      23.427  -3.769  10.885  1.00  0.00     0.137 C 
HETATM    7  C4  UNL     1      21.930  -2.532   9.466  1.00  0.00     0.106 C 
HETATM    8  C5  UNL     1      22.015  -3.231   8.120  1.00  0.00     0.031 C 
HETATM    9  C6  UNL     1      21.620  -1.072   9.341  1.00  0.00     0.166 C 
HETATM   10  C7  UNL     1      22.406  -0.452  10.473  1.00  0.00     0.072 C 
HETATM   11  C8  UNL     1      22.989   0.887   9.989  1.00  0.00     0.042 C 
HETATM   12  C9  UNL     1      21.538  -0.141  11.644  1.00  0.00     0.042 C 
ENDROOT
BRANCH   9  13
HETATM   13  O2  UNL     1      22.011  -0.543   8.120  1.00  0.00    -0.391 OA
ATOM     14  H2  UNL     1      21.410   0.116   7.796  1.00  0.00     0.210 HD
ENDBRANCH   9  13
TORSDOF 1
ENDMDL
MODEL 4
REMARK VINA RESULT: -5.693452113      9.143     10.845
REMARK  1 active torsions:
REMARK  status: ('A' for Active; 'I' for Inactive)
REMARK       I    between atoms: C2_2  and  N1_4 
REMARK    1  A    between atoms: C6_9  and  O2_10 
ROOT
HETATM    1  C1  UNL     1      18.994 -10.598  11.332  1.00  0.00     0.119 C 
HETATM    2  C2  UNL     1      18.695  -9.159  11.594  1.00  0.00     0.231 C 
HETATM    3  O1  UNL     1      19.546  -8.450  12.233  1.00  0.00    -0.272 OA
HETATM    4  N1  UNL     1      17.506  -8.517  11.173  1.00  0.00    -0.269 N 
HETATM    5  N2  UNL     1      17.241  -7.182  11.417  1.00  0.00    -0.223 NA
HETATM    6  C3  UNL     1      18.349  -6.305  11.132  1.00  0.00     0.137 C 
HETATM    7  C4  UNL     1      16.050  -6.841  10.672  1.00  0.00     0.106 C 
HETATM    8  C5  UNL     1      15.253  -5.861  11.516  1.00  0.00     0.031 C 
HETATM    9  C6  UNL     1      15.330  -8.136  10.456  1.00  0.00     0.166 C 
HETATM   10  C7  UNL     1      16.445  -9.156  10.452  1.00  0.00     0.072 C 
HETATM   11  C8  UNL     1      15.955 -10.420  11.179  1.00  0.00     0.042 C 
HETATM   12  C9  UNL     1      16.810  -9.573   9.068  1.00  0.00     0.042 C 
ENDROOT
BRANCH   9  13
HETATM   13  O2  UNL     1      14.411  -8.412  11.457  1.00  0.00    -0.391 OA
ATOM     14  H2  UNL     1      13.531  -8.542  11.122  1.00  0.00     0.210 HD
ENDBRANCH   9  13
TORSDOF 1
ENDMDL
MODEL 5
REMARK VINA RESULT: -5.587151401      1.974      3.530
REMARK  1 active torsions:
REMARK  status: ('A' for Active; 'I' for Inactive)
REMARK       I    between atoms: C2_2  and  N1_4 
REMARK    1  A    between atoms: C6_9  and  O2_10 
ROOT
HETATM    1  C1  UNL     1      25.180  -3.484  11.883  1.00  0.00     0.119 C 
HETATM    2  C2  UNL     1      24.273  -2.938  10.832  1.00  0.00     0.231 C 
HETATM    3  O1  UNL     1      24.001  -3.654   9.808  1.00  0.00    -0.272 OA
HETATM    4  N1  UNL     1      23.682  -1.654  10.897  1.00  0.00    -0.269 N 
HETATM    5  N2  UNL     1      22.839  -1.159   9.918  1.00  0.00    -0.223 NA
HETATM    6  C3  UNL     1      21.829  -2.096   9.490  1.00  0.00     0.137 C 
HETATM    7  C4  UNL     1      22.280   0.076  10.421  1.00  0.00     0.106 C 
HETATM    8  C5  UNL     1      22.157   1.028   9.244  1.00  0.00     0.031 C 
HETATM    9  C6  UNL     1      23.249   0.558  11.456  1.00  0.00     0.166 C 
HETATM   10  C7  UNL     1      23.878  -0.719  11.964  1.00  0.00     0.072 C 
HETATM   11  C8  UNL     1      25.373  -0.460  12.217  1.00  0.00     0.042 C 
HETATM   12  C9  UNL     1      23.292  -1.145  13.267  1.00  0.00     0.042 C 
ENDROOT
BRANCH   9  13
HETATM   13  O2  UNL     1      24.210   1.410  10.936  1.00  0.00    -0.391 OA
ATOM     14  H2  UNL     1      23.928   2.318  10.923  1.00  0.00     0.210 HD
ENDBRANCH   9  13
TORSDOF 1
ENDMDL
