MODEL 1
REMARK VINA RESULT: -7.321608611      0.000      0.000
REMARK  1 active torsions:
REMARK  status: ('A' for Active; 'I' for Inactive)
REMARK    1  A    between atoms: O1_1  and  N1_3 
ROOT
HETATM    1  N1  UNL     1      15.609  -6.655  10.506  1.00  0.00    -0.160 NA
HETATM    2  C1  UNL     1      15.670  -7.983   9.907  1.00  0.00     0.121 C 
HETATM    3  C2  UNL     1      14.813  -8.982  10.615  1.00  0.00     0.024 C 
HETATM    4  C3  UNL     1      15.512 -10.294  10.312  1.00  0.00     0.004 C 
HETATM    5  C4  UNL     1      16.954  -9.953  10.500  1.00  0.00     0.038 C 
HETATM    6  C5  UNL     1      17.075  -8.503  10.213  1.00  0.00     0.245 C 
HETATM    7  N2  UNL     1      17.354  -7.711  11.422  1.00  0.00     0.115 N 
HETATM    8  C6  UNL     1      18.697  -7.813  11.857  1.00  0.00     0.275 C 
HETATM    9  C7  UNL     1      19.336  -6.456  11.933  1.00  0.00     0.030 C 
HETATM   10  C8  UNL     1      18.398  -5.539  12.691  1.00  0.00     0.005 C 
HETATM   11  C9  UNL     1      17.147  -5.301  11.874  1.00  0.00     0.054 C 
HETATM   12  C10 UNL     1      16.992  -6.402  10.904  1.00  0.00     0.323 C 
ENDROOT
BRANCH   1  13
HETATM   13  O1  UNL     1      15.132  -5.727   9.673  1.00  0.00    -0.311 OA
ATOM     14  H1  UNL     1      15.175  -4.849  10.031  1.00  0.00     0.237 HD
ENDBRANCH   1  13
TORSDOF 1
ENDMDL
MODEL 2
REMARK VINA RESULT: -7.159329630      1.183      3.804
REMARK  1 active torsions:
REMARK  status: ('A' for Active; 'I' for Inactive)
REMARK    1  A    between atoms: O1_1  and  N1_3 
ROOT
HETATM    1  N1  UNL     1      17.025  -6.074  10.891  1.00  0.00    -0.160 NA
HETATM    2  C1  UNL     1      18.228  -6.152  11.712  1.00  0.00     0.121 C 
HETATM    3  C2  UNL     1      19.476  -5.846  10.948  1.00  0.00     0.024 C 
HETATM    4  C3  UNL     1      20.534  -6.610  11.721  1.00  0.00     0.004 C 
HETATM    5  C4  UNL     1      19.866  -7.918  11.995  1.00  0.00     0.038 C 
HETATM    6  C5  UNL     1      18.411  -7.637  12.028  1.00  0.00     0.245 C 
HETATM    7  N2  UNL     1      17.701  -8.206  10.870  1.00  0.00     0.115 N 
HETATM    8  C6  UNL     1      17.509  -9.605  10.967  1.00  0.00     0.275 C 
HETATM    9  C7  UNL     1      16.051  -9.950  10.868  1.00  0.00     0.030 C 
HETATM   10  C8  UNL     1      15.479  -9.223   9.668  1.00  0.00     0.005 C 
HETATM   11  C9  UNL     1      15.478  -7.732   9.928  1.00  0.00     0.054 C 
HETATM   12  C10 UNL     1      16.478  -7.427  10.969  1.00  0.00     0.323 C 
ENDROOT
BRANCH   1  13
HETATM   13  O1  UNL     1      16.165  -5.143  11.310  1.00  0.00    -0.311 OA
ATOM     14  H1  UNL     1      15.324  -5.501  11.564  1.00  0.00     0.237 HD
ENDBRANCH   1  13
TORSDOF 1
ENDMDL
MODEL 3
REMARK VINA RESULT: -6.919209611      0.921      1.033
REMARK  1 active torsions:
REMARK  status: ('A' for Active; 'I' for Inactive)
REMARK    1  A    between atoms: O1_1  and  N1_3 
ROOT
HETATM    1  N1  UNL     1      16.279  -6.307  11.411  1.00  0.00    -0.160 NA
HETATM    2  C1  UNL     1      15.874  -7.414  10.552  1.00  0.00     0.121 C 
HETATM    3  C2  UNL     1      14.940  -8.365  11.228  1.00  0.00     0.024 C 
HETATM    4  C3  UNL     1      15.200  -9.666  10.492  1.00  0.00     0.004 C 
HETATM    5  C4  UNL     1      16.689  -9.692  10.378  1.00  0.00     0.038 C 
HETATM    6  C5  UNL     1      17.126  -8.275  10.379  1.00  0.00     0.245 C 
HETATM    7  N2  UNL     1      17.831  -7.904  11.617  1.00  0.00     0.115 N 
HETATM    8  C6  UNL     1      19.160  -8.391  11.668  1.00  0.00     0.275 C 
HETATM    9  C7  UNL     1      20.132  -7.264  11.863  1.00  0.00     0.030 C 
HETATM   10  C8  UNL     1      19.632  -6.405  13.007  1.00  0.00     0.005 C 
HETATM   11  C9  UNL     1      18.352  -5.709  12.600  1.00  0.00     0.054 C 
HETATM   12  C10 UNL     1      17.730  -6.459  11.491  1.00  0.00     0.323 C 
ENDROOT
BRANCH   1  13
HETATM   13  O1  UNL     1      15.909  -5.115  10.937  1.00  0.00    -0.311 OA
ATOM     14  H1  UNL     1      16.638  -4.601  10.612  1.00  0.00     0.237 HD
ENDBRANCH   1  13
TORSDOF 1
ENDMDL
MODEL 4
REMARK VINA RESULT: -6.453950536      2.022      2.849
REMARK  1 active torsions:
REMARK  status: ('A' for Active; 'I' for Inactive)
REMARK    1  A    between atoms: O1_1  and  N1_3 
ROOT
HETATM    1  N1  UNL     1      18.444  -9.434  11.157  1.00  0.00    -0.160 NA
HETATM    2  C1  UNL     1      17.038  -9.777  10.981  1.00  0.00     0.121 C 
HETATM    3  C2  UNL     1      16.669 -10.013   9.552  1.00  0.00     0.024 C 
HETATM    4  C3  UNL     1      15.191  -9.673   9.530  1.00  0.00     0.004 C 
HETATM    5  C4  UNL     1      15.123  -8.427  10.352  1.00  0.00     0.038 C 
HETATM    6  C5  UNL     1      16.264  -8.497  11.297  1.00  0.00     0.245 C 
HETATM    7  N2  UNL     1      17.314  -7.512  10.986  1.00  0.00     0.115 N 
HETATM    8  C6  UNL     1      16.974  -6.194  11.376  1.00  0.00     0.275 C 
HETATM    9  C7  UNL     1      18.007  -5.634  12.311  1.00  0.00     0.030 C 
HETATM   10  C8  UNL     1      19.372  -5.879  11.703  1.00  0.00     0.005 C 
HETATM   11  C9  UNL     1      19.667  -7.363  11.691  1.00  0.00     0.054 C 
HETATM   12  C10 UNL     1      18.392  -8.105  11.760  1.00  0.00     0.323 C 
ENDROOT
BRANCH   1  13
HETATM   13  O1  UNL     1      19.108 -10.317  11.907  1.00  0.00    -0.311 OA
ATOM     14  H1  UNL     1      19.037 -11.207  11.583  1.00  0.00     0.237 HD
ENDBRANCH   1  13
TORSDOF 1
ENDMDL
MODEL 5
REMARK VINA RESULT: -6.385128454      2.404      3.276
REMARK  1 active torsions:
REMARK  status: ('A' for Active; 'I' for Inactive)
REMARK    1  A    between atoms: O1_1  and  N1_3 
ROOT
HETATM    1  N1  UNL     1      18.470 -10.183  11.068  1.00  0.00    -0.160 NA
HETATM    2  C1  UNL     1      17.049  -9.881  10.951  1.00  0.00     0.121 C 
HETATM    3  C2  UNL     1      16.585  -9.798   9.533  1.00  0.00     0.024 C 
HETATM    4  C3  UNL     1      15.392  -8.864   9.628  1.00  0.00     0.004 C 
HETATM    5  C4  UNL     1      15.880  -7.794  10.548  1.00  0.00     0.038 C 
HETATM    6  C5  UNL     1      16.901  -8.431  11.414  1.00  0.00     0.245 C 
HETATM    7  N2  UNL     1      18.264  -7.957  11.119  1.00  0.00     0.115 N 
HETATM    8  C6  UNL     1      18.527  -6.664  11.632  1.00  0.00     0.275 C 
HETATM    9  C7  UNL     1      19.719  -6.686  12.545  1.00  0.00     0.030 C 
HETATM   10  C8  UNL     1      20.837  -7.425  11.837  1.00  0.00     0.005 C 
HETATM   11  C9  UNL     1      20.470  -8.885  11.691  1.00  0.00     0.054 C 
HETATM   12  C10 UNL     1      19.003  -9.022  11.777  1.00  0.00     0.323 C 
ENDROOT
BRANCH   1  13
HETATM   13  O1  UNL     1      18.710 -11.332  11.704  1.00  0.00    -0.311 OA
ATOM     14  H1  UNL     1      19.217 -11.945  11.185  1.00  0.00     0.237 HD
ENDBRANCH   1  13
TORSDOF 1
ENDMDL
