MODEL 1
REMARK VINA RESULT: -4.970261114      0.000      0.000
REMARK  2 active torsions:
REMARK  status: ('A' for Active; 'I' for Inactive)
REMARK    1  A    between atoms: C2_2  and  C5_5 
REMARK    2  A    between atoms: C5_5  and  S1_8 
ROOT
HETATM    1  C5  UNL     1      23.603  -0.855  10.875  1.00  0.00     0.082 C 
HETATM    2  C6  UNL     1      24.590  -1.683  10.042  1.00  0.00     0.035 C 
HETATM    3  C7  UNL     1      22.352  -1.708  10.965  1.00  0.00     0.035 C 
ENDROOT
BRANCH   1   4
HETATM    4  C2  UNL     1      24.200  -0.629  12.230  1.00  0.00    -0.028 C 
HETATM    5  C1  UNL     1      24.718  -1.965  12.761  1.00  0.00     0.016 C 
HETATM    6  C3  UNL     1      23.248  -0.101  13.249  1.00  0.00     0.016 C 
HETATM    7  C4  UNL     1      25.385   0.309  12.199  1.00  0.00     0.016 C 
ENDBRANCH   1   4
BRANCH   1   8
HETATM    8  S1  UNL     1      23.185   0.609  10.016  1.00  0.00     0.111 S 
HETATM    9  O1  UNL     1      24.352   1.288   9.371  1.00  0.00    -0.594 OA
HETATM   10  O2  UNL     1      22.419   1.526  10.925  1.00  0.00    -0.594 OA
HETATM   11  O3  UNL     1      22.122   0.185   8.766  1.00  0.00    -0.594 OA
ENDBRANCH   1   8
TORSDOF 2
ENDMDL
MODEL 2
REMARK VINA RESULT: -4.850446263      0.154      1.236
REMARK  2 active torsions:
REMARK  status: ('A' for Active; 'I' for Inactive)
REMARK    1  A    between atoms: C2_2  and  C5_5 
REMARK    2  A    between atoms: C5_5  and  S1_8 
ROOT
HETATM    1  C5  UNL     1      23.618  -0.921  10.925  1.00  0.00     0.082 C 
HETATM    2  C6  UNL     1      24.488  -1.806  10.022  1.00  0.00     0.035 C 
HETATM    3  C7  UNL     1      22.324  -1.692  11.101  1.00  0.00     0.035 C 
ENDROOT
BRANCH   1   4
HETATM    4  C2  UNL     1      24.322  -0.744  12.235  1.00  0.00    -0.028 C 
HETATM    5  C1  UNL     1      23.295  -0.328  13.286  1.00  0.00     0.016 C 
HETATM    6  C3  UNL     1      25.385   0.302  12.233  1.00  0.00     0.016 C 
HETATM    7  C4  UNL     1      24.955  -2.022  12.736  1.00  0.00     0.016 C 
ENDBRANCH   1   4
BRANCH   1   8
HETATM    8  S1  UNL     1      23.237   0.573  10.100  1.00  0.00     0.111 S 
HETATM    9  O1  UNL     1      24.428   1.269   9.522  1.00  0.00    -0.594 OA
HETATM   10  O2  UNL     1      22.439   1.461  11.010  1.00  0.00    -0.594 OA
HETATM   11  O3  UNL     1      22.220   0.195   8.798  1.00  0.00    -0.594 OA
ENDBRANCH   1   8
TORSDOF 2
ENDMDL
MODEL 3
REMARK VINA RESULT: -4.798942498      2.844      3.546
REMARK  2 active torsions:
REMARK  status: ('A' for Active; 'I' for Inactive)
REMARK    1  A    between atoms: C2_2  and  C5_5 
REMARK    2  A    between atoms: C5_5  and  S1_8 
ROOT
HETATM    1  C5  UNL     1      22.178  -1.595  13.509  1.00  0.00     0.082 C 
HETATM    2  C6  UNL     1      22.779  -2.989  13.737  1.00  0.00     0.035 C 
HETATM    3  C7  UNL     1      21.581  -1.202  14.847  1.00  0.00     0.035 C 
ENDROOT
BRANCH   1   4
HETATM    4  C2  UNL     1      23.282  -0.662  13.116  1.00  0.00    -0.028 C 
HETATM    5  C1  UNL     1      24.013  -0.215  14.380  1.00  0.00     0.016 C 
HETATM    6  C3  UNL     1      22.830   0.576  12.418  1.00  0.00     0.016 C 
HETATM    7  C4  UNL     1      24.317  -1.320  12.232  1.00  0.00     0.016 C 
ENDBRANCH   1   4
BRANCH   1   8
HETATM    8  S1  UNL     1      20.870  -1.696  12.355  1.00  0.00     0.111 S 
HETATM    9  O1  UNL     1      21.321  -1.788  10.931  1.00  0.00    -0.594 OA
HETATM   10  O2  UNL     1      19.910  -0.563  12.579  1.00  0.00    -0.594 OA
HETATM   11  O3  UNL     1      20.006  -3.118  12.680  1.00  0.00    -0.594 OA
ENDBRANCH   1   8
TORSDOF 2
ENDMDL
MODEL 4
REMARK VINA RESULT: -4.785846781      1.093      1.832
REMARK  2 active torsions:
REMARK  status: ('A' for Active; 'I' for Inactive)
REMARK    1  A    between atoms: C2_2  and  C5_5 
REMARK    2  A    between atoms: C5_5  and  S1_8 
ROOT
HETATM    1  C5  UNL     1      22.481  -0.793  10.530  1.00  0.00     0.082 C 
HETATM    2  C6  UNL     1      21.984  -1.333   9.182  1.00  0.00     0.035 C 
HETATM    3  C7  UNL     1      21.280  -0.875  11.453  1.00  0.00     0.035 C 
ENDROOT
BRANCH   1   4
HETATM    4  C2  UNL     1      23.593  -1.673  11.012  1.00  0.00    -0.028 C 
HETATM    5  C1  UNL     1      23.015  -3.049  11.341  1.00  0.00     0.016 C 
HETATM    6  C3  UNL     1      24.280  -1.189  12.243  1.00  0.00     0.016 C 
HETATM    7  C4  UNL     1      24.659  -1.897   9.964  1.00  0.00     0.016 C 
ENDBRANCH   1   4
BRANCH   1   8
HETATM    8  S1  UNL     1      22.912   0.894  10.371  1.00  0.00     0.111 S 
HETATM    9  O1  UNL     1      24.384   1.136  10.255  1.00  0.00    -0.594 OA
HETATM   10  O2  UNL     1      22.287   1.682  11.484  1.00  0.00    -0.594 OA
HETATM   11  O3  UNL     1      22.215   1.468   8.936  1.00  0.00    -0.594 OA
ENDBRANCH   1   8
TORSDOF 2
ENDMDL
MODEL 5
REMARK VINA RESULT: -4.779959177      2.679      3.663
REMARK  2 active torsions:
REMARK  status: ('A' for Active; 'I' for Inactive)
REMARK    1  A    between atoms: C2_2  and  C5_5 
REMARK    2  A    between atoms: C5_5  and  S1_8 
ROOT
HETATM    1  C5  UNL     1      22.806  -0.861  12.574  1.00  0.00     0.082 C 
HETATM    2  C6  UNL     1      22.557   0.630  12.314  1.00  0.00     0.035 C 
HETATM    3  C7  UNL     1      23.850  -1.269  11.552  1.00  0.00     0.035 C 
ENDROOT
BRANCH   1   4
HETATM    4  C2  UNL     1      23.328  -1.019  13.969  1.00  0.00    -0.028 C 
HETATM    5  C1  UNL     1      24.305   0.120  14.254  1.00  0.00     0.016 C 
HETATM    6  C3  UNL     1      24.064  -2.291  14.217  1.00  0.00     0.016 C 
HETATM    7  C4  UNL     1      22.239  -0.921  15.015  1.00  0.00     0.016 C 
ENDBRANCH   1   4
BRANCH   1   8
HETATM    8  S1  UNL     1      21.352  -1.772  12.238  1.00  0.00     0.111 S 
HETATM    9  O1  UNL     1      21.193  -2.996  13.084  1.00  0.00    -0.594 OA
HETATM   10  O2  UNL     1      21.275  -2.076  10.770  1.00  0.00    -0.594 OA
HETATM   11  O3  UNL     1      20.028  -0.772  12.583  1.00  0.00    -0.594 OA
ENDBRANCH   1   8
TORSDOF 2
ENDMDL
