MODEL 1
REMARK VINA RESULT: -5.927452171      0.000      0.000
REMARK  1 active torsions:
REMARK  status: ('A' for Active; 'I' for Inactive)
REMARK    1  A    between atoms: C10_12  and  O3_13 
ROOT
HETATM    1  C1  UNL     1      24.586  -1.385  12.913  1.00  0.00     0.049 C 
HETATM    2  C2  UNL     1      23.444  -0.895  12.147  1.00  0.00     0.085 C 
HETATM    3  C3  UNL     1      22.521  -2.005  11.612  1.00  0.00     0.050 C 
HETATM    4  C4  UNL     1      21.499  -1.051  10.967  1.00  0.00     0.055 C 
HETATM    5  C5  UNL     1      21.608   0.134  11.923  1.00  0.00     0.139 C 
HETATM    6  O1  UNL     1      22.467  -0.272  12.965  1.00  0.00    -0.372 OA
HETATM    7  C6  UNL     1      22.546   1.031  11.167  1.00  0.00     0.079 C 
HETATM    8  C7  UNL     1      23.736   0.072  11.040  1.00  0.00     0.166 C 
HETATM    9  O2  UNL     1      23.536  -0.622   9.830  1.00  0.00    -0.369 OA
HETATM   10  C8  UNL     1      22.127  -0.587   9.694  1.00  0.00     0.090 C 
HETATM   11  C9  UNL     1      21.612  -1.143   8.450  1.00  0.00     0.049 C 
HETATM   12  C10 UNL     1      21.963   0.944   9.775  1.00  0.00     0.162 C 
ENDROOT
BRANCH  12  13
HETATM   13  O3  UNL     1      22.787   1.473   8.814  1.00  0.00    -0.392 OA
ATOM     14  H3  UNL     1      22.932   0.884   8.082  1.00  0.00     0.210 HD
ENDBRANCH  12  13
TORSDOF 1
ENDMDL
MODEL 2
REMARK VINA RESULT: -5.865392583      1.639      2.179
REMARK  1 active torsions:
REMARK  status: ('A' for Active; 'I' for Inactive)
REMARK    1  A    between atoms: C10_12  and  O3_13 
ROOT
HETATM    1  C1  UNL     1      20.896  -1.305  14.052  1.00  0.00     0.049 C 
HETATM    2  C2  UNL     1      21.347  -0.935  12.714  1.00  0.00     0.085 C 
HETATM    3  C3  UNL     1      21.646  -2.134  11.795  1.00  0.00     0.050 C 
HETATM    4  C4  UNL     1      22.005  -1.289  10.559  1.00  0.00     0.055 C 
HETATM    5  C5  UNL     1      21.095  -0.086  10.791  1.00  0.00     0.139 C 
HETATM    6  O1  UNL     1      20.304  -0.396  11.918  1.00  0.00    -0.372 OA
HETATM    7  C6  UNL     1      22.052   0.884  11.422  1.00  0.00     0.079 C 
HETATM    8  C7  UNL     1      22.481   0.040  12.627  1.00  0.00     0.166 C 
HETATM    9  O2  UNL     1      23.611  -0.686  12.198  1.00  0.00    -0.369 OA
HETATM   10  C8  UNL     1      23.390  -0.786  10.802  1.00  0.00     0.090 C 
HETATM   11  C9  UNL     1      24.471  -1.404  10.048  1.00  0.00     0.049 C 
HETATM   12  C10 UNL     1      23.254   0.724  10.520  1.00  0.00     0.162 C 
ENDROOT
BRANCH  12  13
HETATM   13  O3  UNL     1      24.385   1.316  11.024  1.00  0.00    -0.392 OA
ATOM     14  H3  UNL     1      25.054   1.461  10.364  1.00  0.00     0.210 HD
ENDBRANCH  12  13
TORSDOF 1
ENDMDL
MODEL 3
REMARK VINA RESULT: -5.734128832      0.984      1.068
REMARK  1 active torsions:
REMARK  status: ('A' for Active; 'I' for Inactive)
REMARK    1  A    between atoms: C10_12  and  O3_13 
ROOT
HETATM    1  C1  UNL     1      25.316   0.219  12.820  1.00  0.00     0.049 C 
HETATM    2  C2  UNL     1      24.021  -0.053  12.204  1.00  0.00     0.085 C 
HETATM    3  C3  UNL     1      23.547  -1.511  12.350  1.00  0.00     0.050 C 
HETATM    4  C4  UNL     1      22.197  -1.301  11.640  1.00  0.00     0.055 C 
HETATM    5  C5  UNL     1      21.922   0.150  12.025  1.00  0.00     0.139 C 
HETATM    6  O1  UNL     1      22.944   0.525  12.922  1.00  0.00    -0.372 OA
HETATM    7  C6  UNL     1      22.396   0.872  10.797  1.00  0.00     0.079 C 
HETATM    8  C7  UNL     1      23.846   0.375  10.778  1.00  0.00     0.166 C 
HETATM    9  O2  UNL     1      23.835  -0.799   9.998  1.00  0.00    -0.369 OA
HETATM   10  C8  UNL     1      22.510  -1.266  10.180  1.00  0.00     0.090 C 
HETATM   11  C9  UNL     1      22.153  -2.435   9.389  1.00  0.00     0.049 C 
HETATM   12  C10 UNL     1      21.789   0.013   9.711  1.00  0.00     0.162 C 
ENDROOT
BRANCH  12  13
HETATM   13  O3  UNL     1      22.280   0.300   8.462  1.00  0.00    -0.392 OA
ATOM     14  H3  UNL     1      21.668   0.094   7.765  1.00  0.00     0.210 HD
ENDBRANCH  12  13
TORSDOF 1
ENDMDL
MODEL 4
REMARK VINA RESULT: -5.732044393      1.583      3.597
REMARK  1 active torsions:
REMARK  status: ('A' for Active; 'I' for Inactive)
REMARK    1  A    between atoms: C10_12  and  O3_13 
ROOT
HETATM    1  C1  UNL     1      22.040   0.980   9.218  1.00  0.00     0.049 C 
HETATM    2  C2  UNL     1      22.245   0.227  10.451  1.00  0.00     0.085 C 
HETATM    3  C3  UNL     1      21.993   1.038  11.736  1.00  0.00     0.050 C 
HETATM    4  C4  UNL     1      22.261  -0.129  12.704  1.00  0.00     0.055 C 
HETATM    5  C5  UNL     1      21.781  -1.296  11.846  1.00  0.00     0.139 C 
HETATM    6  O1  UNL     1      21.224  -0.731  10.679  1.00  0.00    -0.372 OA
HETATM    7  C6  UNL     1      23.079  -1.796  11.282  1.00  0.00     0.079 C 
HETATM    8  C7  UNL     1      23.543  -0.510  10.586  1.00  0.00     0.166 C 
HETATM    9  O2  UNL     1      24.308   0.184  11.545  1.00  0.00    -0.369 OA
HETATM   10  C8  UNL     1      23.747  -0.271  12.763  1.00  0.00     0.090 C 
HETATM   11  C9  UNL     1      24.419   0.197  13.967  1.00  0.00     0.049 C 
HETATM   12  C10 UNL     1      23.951  -1.780  12.517  1.00  0.00     0.162 C 
ENDROOT
BRANCH  12  13
HETATM   13  O3  UNL     1      25.283  -1.950  12.236  1.00  0.00    -0.392 OA
ATOM     14  H3  UNL     1      25.847  -1.745  12.972  1.00  0.00     0.210 HD
ENDBRANCH  12  13
TORSDOF 1
ENDMDL
MODEL 5
REMARK VINA RESULT: -5.665959219      1.443      3.670
REMARK  1 active torsions:
REMARK  status: ('A' for Active; 'I' for Inactive)
REMARK    1  A    between atoms: C10_12  and  O3_13 
ROOT
HETATM    1  C1  UNL     1      22.357   0.216   9.329  1.00  0.00     0.049 C 
HETATM    2  C2  UNL     1      22.985  -0.368  10.511  1.00  0.00     0.085 C 
HETATM    3  C3  UNL     1      22.091  -1.362  11.275  1.00  0.00     0.050 C 
HETATM    4  C4  UNL     1      23.146  -1.730  12.334  1.00  0.00     0.055 C 
HETATM    5  C5  UNL     1      24.417  -1.572  11.502  1.00  0.00     0.139 C 
HETATM    6  O1  UNL     1      23.998  -1.305  10.181  1.00  0.00    -0.372 OA
HETATM    7  C6  UNL     1      24.858  -0.194  11.903  1.00  0.00     0.079 C 
HETATM    8  C7  UNL     1      23.603   0.584  11.489  1.00  0.00     0.166 C 
HETATM    9  O2  UNL     1      22.771   0.594  12.627  1.00  0.00    -0.369 OA
HETATM   10  C8  UNL     1      23.165  -0.589  13.298  1.00  0.00     0.090 C 
HETATM   11  C9  UNL     1      22.544  -0.799  14.598  1.00  0.00     0.049 C 
HETATM   12  C10 UNL     1      24.668  -0.260  13.402  1.00  0.00     0.162 C 
ENDROOT
BRANCH  12  13
HETATM   13  O3  UNL     1      24.755   0.967  14.008  1.00  0.00    -0.392 OA
ATOM     14  H3  UNL     1      24.093   1.099  14.677  1.00  0.00     0.210 HD
ENDBRANCH  12  13
TORSDOF 1
ENDMDL
