MODEL 1
REMARK VINA RESULT: -5.228187606      0.000      0.000
REMARK  4 active torsions:
REMARK  status: ('A' for Active; 'I' for Inactive)
REMARK       I    between atoms: N1_2  and  C2_4 
REMARK       I    between atoms: C2_4  and  N2_5 
REMARK    1  A    between atoms: N2_5  and  O1_7 
REMARK    2  A    between atoms: N3_9  and  C3_11 
REMARK    3  A    between atoms: C3_11  and  O2_13 
REMARK    4  A    between atoms: O2_13  and  C4_14 
ROOT
HETATM    1  C1  UNL     1      24.296  -5.937   9.279  1.00  0.00     0.165 C 
HETATM    2  N1  UNL     1      23.577  -4.963  10.073  1.00  0.00    -0.229 N 
ATOM      3  H1  UNL     1      22.887  -5.257  10.764  1.00  0.00     0.177 HD
HETATM    4  C2  UNL     1      23.859  -3.586   9.861  1.00  0.00     0.700 C 
HETATM    5  N2  UNL     1      24.220  -3.172   8.556  1.00  0.00    -0.099 N 
ATOM      6  H2  UNL     1      23.477  -2.851   7.935  1.00  0.00     0.213 HD
HETATM    7  N3  UNL     1      23.777  -2.788  10.842  1.00  0.00    -0.159 N 
ATOM      8  H3  UNL     1      23.507  -3.190  11.740  1.00  0.00     0.187 HD
ENDROOT
BRANCH   7   9
HETATM    9  C3  UNL     1      24.020  -1.402  10.818  1.00  0.00     0.229 C 
HETATM   10  S1  UNL     1      25.006  -0.740  11.922  1.00  0.00    -0.032 SA
BRANCH   9  11
HETATM   11  O2  UNL     1      23.441  -0.615   9.883  1.00  0.00    -0.316 OA
BRANCH  11  12
HETATM   12  C4  UNL     1      22.108  -0.271   9.741  1.00  0.00     0.059 C 
HETATM   13  C5  UNL     1      21.390  -1.106   8.685  1.00  0.00     0.045 C 
HETATM   14  C6  UNL     1      22.064   1.174   9.243  1.00  0.00     0.045 C 
HETATM   15  C7  UNL     1      21.327  -0.325  11.039  1.00  0.00     0.045 C 
ENDBRANCH  11  12
ENDBRANCH   9  11
ENDBRANCH   7   9
BRANCH   5  16
HETATM   16  O1  UNL     1      25.385  -3.174   8.118  1.00  0.00    -0.276 OA
ATOM     17  H1  UNL     1      25.714  -3.792   7.476  1.00  0.00     0.245 HD
ENDBRANCH   5  16
TORSDOF 4
ENDMDL
MODEL 2
REMARK VINA RESULT: -4.907965860      3.738      5.183
REMARK  4 active torsions:
REMARK  status: ('A' for Active; 'I' for Inactive)
REMARK       I    between atoms: N1_2  and  C2_4 
REMARK       I    between atoms: C2_4  and  N2_5 
REMARK    1  A    between atoms: N2_5  and  O1_7 
REMARK    2  A    between atoms: N3_9  and  C3_11 
REMARK    3  A    between atoms: C3_11  and  O2_13 
REMARK    4  A    between atoms: O2_13  and  C4_14 
ROOT
HETATM    1  C1  UNL     1      20.149  -2.813  16.009  1.00  0.00     0.165 C 
HETATM    2  N1  UNL     1      20.892  -1.720  15.418  1.00  0.00    -0.229 N 
ATOM      3  H1  UNL     1      21.537  -1.161  15.976  1.00  0.00     0.177 HD
HETATM    4  C2  UNL     1      20.697  -1.449  14.037  1.00  0.00     0.700 C 
HETATM    5  N2  UNL     1      19.419  -1.696  13.481  1.00  0.00    -0.099 N 
ATOM      6  H2  UNL     1      18.749  -0.926  13.463  1.00  0.00     0.213 HD
HETATM    7  N3  UNL     1      21.670  -0.997  13.359  1.00  0.00    -0.159 N 
ATOM      8  H3  UNL     1      22.548  -0.854  13.857  1.00  0.00     0.187 HD
ENDROOT
BRANCH   7   9
HETATM    9  C3  UNL     1      21.659  -0.675  11.990  1.00  0.00     0.229 C 
HETATM   10  S1  UNL     1      22.107   0.808  11.511  1.00  0.00    -0.032 SA
BRANCH   9  11
HETATM   11  O2  UNL     1      21.280  -1.587  11.068  1.00  0.00    -0.316 OA
BRANCH  11  12
HETATM   12  C4  UNL     1      22.053  -2.520  10.397  1.00  0.00     0.059 C 
HETATM   13  C5  UNL     1      21.854  -2.476   8.886  1.00  0.00     0.045 C 
HETATM   14  C6  UNL     1      21.586  -3.904  10.848  1.00  0.00     0.045 C 
HETATM   15  C7  UNL     1      23.533  -2.418  10.712  1.00  0.00     0.045 C 
ENDBRANCH  11  12
ENDBRANCH   9  11
ENDBRANCH   7   9
BRANCH   5  16
HETATM   16  O1  UNL     1      19.058  -2.792  13.013  1.00  0.00    -0.276 OA
ATOM     17  H1  UNL     1      18.845  -3.554  13.539  1.00  0.00     0.245 HD
ENDBRANCH   5  16
TORSDOF 4
ENDMDL
MODEL 3
REMARK VINA RESULT: -4.891374575      1.904      2.316
REMARK  4 active torsions:
REMARK  status: ('A' for Active; 'I' for Inactive)
REMARK       I    between atoms: N1_2  and  C2_4 
REMARK       I    between atoms: C2_4  and  N2_5 
REMARK    1  A    between atoms: N2_5  and  O1_7 
REMARK    2  A    between atoms: N3_9  and  C3_11 
REMARK    3  A    between atoms: C3_11  and  O2_13 
REMARK    4  A    between atoms: O2_13  and  C4_14 
ROOT
HETATM    1  C1  UNL     1      24.636  -6.186   9.124  1.00  0.00     0.165 C 
HETATM    2  N1  UNL     1      23.381  -5.483   9.284  1.00  0.00    -0.229 N 
ATOM      3  H1  UNL     1      22.540  -5.973   9.591  1.00  0.00     0.177 HD
HETATM    4  C2  UNL     1      23.353  -4.090   9.002  1.00  0.00     0.700 C 
HETATM    5  N2  UNL     1      24.210  -3.597   7.989  1.00  0.00    -0.099 N 
ATOM      6  H2  UNL     1      23.841  -3.535   7.040  1.00  0.00     0.213 HD
HETATM    7  N3  UNL     1      22.566  -3.348   9.664  1.00  0.00    -0.159 N 
ATOM      8  H3  UNL     1      21.990  -3.806  10.371  1.00  0.00     0.187 HD
ENDROOT
BRANCH   7   9
HETATM    9  C3  UNL     1      22.407  -1.958   9.521  1.00  0.00     0.229 C 
HETATM   10  S1  UNL     1      21.475  -1.374   8.330  1.00  0.00    -0.032 SA
BRANCH   9  11
HETATM   11  O2  UNL     1      23.023  -1.102  10.367  1.00  0.00    -0.316 OA
BRANCH  11  12
HETATM   12  C4  UNL     1      22.507  -0.453  11.476  1.00  0.00     0.059 C 
HETATM   13  C5  UNL     1      22.229   1.025  11.221  1.00  0.00     0.045 C 
HETATM   14  C6  UNL     1      23.576  -0.502  12.567  1.00  0.00     0.045 C 
HETATM   15  C7  UNL     1      21.260  -1.109  12.036  1.00  0.00     0.045 C 
ENDBRANCH  11  12
ENDBRANCH   9  11
ENDBRANCH   7   9
BRANCH   5  16
HETATM   16  O1  UNL     1      25.385  -3.234   8.182  1.00  0.00    -0.276 OA
ATOM     17  H1  UNL     1      25.845  -2.604   7.639  1.00  0.00     0.245 HD
ENDBRANCH   5  16
TORSDOF 4
ENDMDL
MODEL 4
REMARK VINA RESULT: -4.865452572      2.502      3.101
REMARK  4 active torsions:
REMARK  status: ('A' for Active; 'I' for Inactive)
REMARK       I    between atoms: N1_2  and  C2_4 
REMARK       I    between atoms: C2_4  and  N2_5 
REMARK    1  A    between atoms: N2_5  and  O1_7 
REMARK    2  A    between atoms: N3_9  and  C3_11 
REMARK    3  A    between atoms: C3_11  and  O2_13 
REMARK    4  A    between atoms: O2_13  and  C4_14 
ROOT
HETATM    1  C1  UNL     1      22.290  -3.464   7.996  1.00  0.00     0.165 C 
HETATM    2  N1  UNL     1      22.011  -3.223   9.396  1.00  0.00    -0.229 N 
ATOM      3  H1  UNL     1      21.084  -3.398   9.784  1.00  0.00     0.177 HD
HETATM    4  C2  UNL     1      23.066  -2.736  10.215  1.00  0.00     0.700 C 
HETATM    5  N2  UNL     1      24.031  -1.885   9.624  1.00  0.00    -0.099 N 
ATOM      6  H2  UNL     1      23.874  -0.878   9.672  1.00  0.00     0.213 HD
HETATM    7  N3  UNL     1      23.100  -3.078  11.435  1.00  0.00    -0.159 N 
ATOM      8  H3  UNL     1      22.355  -3.694  11.760  1.00  0.00     0.187 HD
ENDROOT
BRANCH   7   9
HETATM    9  C3  UNL     1      24.064  -2.695  12.386  1.00  0.00     0.229 C 
HETATM   10  S1  UNL     1      24.907  -3.832  13.178  1.00  0.00    -0.032 SA
BRANCH   9  11
HETATM   11  O2  UNL     1      24.296  -1.389  12.647  1.00  0.00    -0.316 OA
BRANCH  11  12
HETATM   12  C4  UNL     1      23.504  -0.486  13.337  1.00  0.00     0.059 C 
HETATM   13  C5  UNL     1      22.712   0.432  12.412  1.00  0.00     0.045 C 
HETATM   14  C6  UNL     1      24.442   0.420  14.135  1.00  0.00     0.045 C 
HETATM   15  C7  UNL     1      22.559  -1.141  14.325  1.00  0.00     0.045 C 
ENDBRANCH  11  12
ENDBRANCH   9  11
ENDBRANCH   7   9
BRANCH   5  16
HETATM   16  O1  UNL     1      25.060  -2.287   9.050  1.00  0.00    -0.276 OA
ATOM     17  H1  UNL     1      25.492  -3.111   9.241  1.00  0.00     0.245 HD
ENDBRANCH   5  16
TORSDOF 4
ENDMDL
MODEL 5
REMARK VINA RESULT: -4.831943172      3.431      4.736
REMARK  4 active torsions:
REMARK  status: ('A' for Active; 'I' for Inactive)
REMARK       I    between atoms: N1_2  and  C2_4 
REMARK       I    between atoms: C2_4  and  N2_5 
REMARK    1  A    between atoms: N2_5  and  O1_7 
REMARK    2  A    between atoms: N3_9  and  C3_11 
REMARK    3  A    between atoms: C3_11  and  O2_13 
REMARK    4  A    between atoms: O2_13  and  C4_14 
ROOT
HETATM    1  C1  UNL     1      20.560  -2.693  15.782  1.00  0.00     0.165 C 
HETATM    2  N1  UNL     1      21.618  -2.371  14.848  1.00  0.00    -0.229 N 
ATOM      3  H1  UNL     1      22.593  -2.358  15.144  1.00  0.00     0.177 HD
HETATM    4  C2  UNL     1      21.258  -2.073  13.505  1.00  0.00     0.700 C 
HETATM    5  N2  UNL     1      20.015  -1.435  13.273  1.00  0.00    -0.099 N 
ATOM      6  H2  UNL     1      20.002  -0.415  13.232  1.00  0.00     0.213 HD
HETATM    7  N3  UNL     1      22.058  -2.387  12.574  1.00  0.00    -0.159 N 
ATOM      8  H3  UNL     1      22.928  -2.843  12.851  1.00  0.00     0.187 HD
ENDROOT
BRANCH   7   9
HETATM    9  C3  UNL     1      21.868  -2.171  11.196  1.00  0.00     0.229 C 
HETATM   10  S1  UNL     1      21.987  -3.416  10.165  1.00  0.00    -0.032 SA
BRANCH   9  11
HETATM   11  O2  UNL     1      21.585  -0.937  10.723  1.00  0.00    -0.316 OA
BRANCH  11  12
HETATM   12  C4  UNL     1      22.421   0.160  10.601  1.00  0.00     0.059 C 
HETATM   13  C5  UNL     1      22.246   1.166  11.735  1.00  0.00     0.045 C 
HETATM   14  C6  UNL     1      22.023   0.892   9.319  1.00  0.00     0.045 C 
HETATM   15  C7  UNL     1      23.887  -0.206  10.476  1.00  0.00     0.045 C 
ENDBRANCH  11  12
ENDBRANCH   9  11
ENDBRANCH   7   9
BRANCH   5  16
HETATM   16  O1  UNL     1      18.937  -2.037  13.116  1.00  0.00    -0.276 OA
ATOM     17  H1  UNL     1      18.150  -1.641  12.762  1.00  0.00     0.245 HD
ENDBRANCH   5  16
TORSDOF 4
ENDMDL
