MODEL 1
REMARK VINA RESULT: -5.726151476      0.000      0.000
REMARK  6 active torsions:
REMARK  status: ('A' for Active; 'I' for Inactive)
REMARK    1  A    between atoms: N1_2  and  C2_3 
REMARK    2  A    between atoms: N1_2  and  C4_14 
REMARK    3  A    between atoms: C3_6  and  N3_7 
REMARK    4  A    between atoms: C4_14  and  N6_15 
REMARK    5  A    between atoms: C4_14  and  C5_19 
REMARK    6  A    between atoms: C5_19  and  N7_20 
ROOT
HETATM    1  C1  UNL     1       3.237   0.734   5.462  1.00  0.00     0.171 C 
HETATM    2  N1  UNL     1       3.369   1.932   6.253  1.00  0.00    -0.189 N 
ENDROOT
BRANCH   2   3
HETATM    3  C2  UNL     1       2.362   2.940   6.111  1.00  0.00     0.711 A 
HETATM    4  N2  UNL     1       2.510   4.272   6.333  1.00  0.00    -0.020 N 
HETATM    5  C3  UNL     1       1.324   4.854   6.084  1.00  0.00     0.705 A 
ATOM      6  H2  UNL     1       3.364   4.743   6.635  1.00  0.00     0.203 HD
HETATM    7  N4  UNL     1       0.434   3.917   5.708  1.00  0.00    -0.118 N 
HETATM    8  N5  UNL     1       1.089   2.770   5.733  1.00  0.00    -0.117 N 
ATOM      9  H4  UNL     1      -0.543   4.061   5.456  1.00  0.00     0.206 HD
ATOM     10  H5  UNL     1       0.676   1.868   5.494  1.00  0.00     0.206 HD
BRANCH   5  11
HETATM   11  N3  UNL     1       1.137   6.123   6.205  1.00  0.00    -0.233 N 
ATOM     12  H32 UNL     1       1.308   6.853   5.512  1.00  0.00     0.174 HD
ATOM     13  H31 UNL     1       0.777   6.544   7.061  1.00  0.00     0.174 HD
ENDBRANCH   5  11
ENDBRANCH   2   3
BRANCH   2  14
HETATM   14  C4  UNL     1       4.482   2.075   7.140  1.00  0.00     0.324 C 
BRANCH  14  15
HETATM   15  N6  UNL     1       4.363   1.298   8.344  1.00  0.00    -0.056 N 
ATOM     16  H63 UNL     1       3.418   1.360   8.720  1.00  0.00     0.276 HD
ATOM     17  H62 UNL     1       4.398   0.301   8.132  1.00  0.00     0.276 HD
ATOM     18  H61 UNL     1       5.052   1.539   9.057  1.00  0.00     0.276 HD
ENDBRANCH  14  15
BRANCH  14  19
HETATM   19  C5  UNL     1       5.769   1.812   6.409  1.00  0.00     0.284 C 
BRANCH  19  20
HETATM   20  N7  UNL     1       6.691   0.967   7.098  1.00  0.00    -0.076 N 
ATOM     21  H73 UNL     1       6.349   0.765   8.038  1.00  0.00     0.274 HD
ATOM     22  H72 UNL     1       6.675   0.028   6.698  1.00  0.00     0.274 HD
ATOM     23  H71 UNL     1       7.648   1.317   7.138  1.00  0.00     0.274 HD
ENDBRANCH  19  20
ENDBRANCH  14  19
ENDBRANCH   2  14
TORSDOF 6
ENDMDL
MODEL 2
REMARK VINA RESULT: -5.503975300      1.906      3.199
REMARK  6 active torsions:
REMARK  status: ('A' for Active; 'I' for Inactive)
REMARK    1  A    between atoms: N1_2  and  C2_3 
REMARK    2  A    between atoms: N1_2  and  C4_14 
REMARK    3  A    between atoms: C3_6  and  N3_7 
REMARK    4  A    between atoms: C4_14  and  N6_15 
REMARK    5  A    between atoms: C4_14  and  C5_19 
REMARK    6  A    between atoms: C5_19  and  N7_20 
ROOT
HETATM    1  C1  UNL     1       6.116   3.487   7.529  1.00  0.00     0.171 C 
HETATM    2  N1  UNL     1       5.491   2.224   7.832  1.00  0.00    -0.189 N 
ENDROOT
BRANCH   2   3
HETATM    3  C2  UNL     1       4.176   1.989   7.317  1.00  0.00     0.711 A 
HETATM    4  N2  UNL     1       3.428   2.849   6.578  1.00  0.00    -0.020 N 
HETATM    5  C3  UNL     1       2.264   2.234   6.304  1.00  0.00     0.705 A 
ATOM      6  H2  UNL     1       3.700   3.788   6.284  1.00  0.00     0.203 HD
HETATM    7  N4  UNL     1       2.264   1.006   6.854  1.00  0.00    -0.118 N 
HETATM    8  N5  UNL     1       3.432   0.884   7.460  1.00  0.00    -0.117 N 
ATOM      9  H4  UNL     1       1.518   0.313   6.813  1.00  0.00     0.206 HD
ATOM     10  H5  UNL     1       3.729   0.054   7.971  1.00  0.00     0.206 HD
BRANCH   5  11
HETATM   11  N3  UNL     1       1.332   2.794   5.613  1.00  0.00    -0.233 N 
ATOM     12  H32 UNL     1       1.398   3.624   5.023  1.00  0.00     0.174 HD
ATOM     13  H31 UNL     1       0.377   2.436   5.590  1.00  0.00     0.174 HD
ENDBRANCH   5  11
ENDBRANCH   2   3
BRANCH   2  14
HETATM   14  C4  UNL     1       6.191   1.259   8.622  1.00  0.00     0.324 C 
BRANCH  14  15
HETATM   15  N6  UNL     1       7.053   0.401   7.855  1.00  0.00    -0.056 N 
ATOM     16  H63 UNL     1       6.910   0.548   6.856  1.00  0.00     0.276 HD
ATOM     17  H62 UNL     1       8.024   0.702   7.935  1.00  0.00     0.276 HD
ATOM     18  H61 UNL     1       6.962  -0.587   8.091  1.00  0.00     0.276 HD
ENDBRANCH  14  15
BRANCH  14  19
HETATM   19  C5  UNL     1       6.913   1.938   9.753  1.00  0.00     0.284 C 
BRANCH  19  20
HETATM   20  N7  UNL     1       6.533   1.500  11.059  1.00  0.00    -0.076 N 
ATOM     21  H73 UNL     1       6.927   2.120  11.767  1.00  0.00     0.274 HD
ATOM     22  H72 UNL     1       5.538   1.666  11.210  1.00  0.00     0.274 HD
ATOM     23  H71 UNL     1       6.764   0.529  11.271  1.00  0.00     0.274 HD
ENDBRANCH  19  20
ENDBRANCH  14  19
ENDBRANCH   2  14
TORSDOF 6
ENDMDL
MODEL 3
REMARK VINA RESULT: -5.480885174      1.433      2.586
REMARK  6 active torsions:
REMARK  status: ('A' for Active; 'I' for Inactive)
REMARK    1  A    between atoms: N1_2  and  C2_3 
REMARK    2  A    between atoms: N1_2  and  C4_14 
REMARK    3  A    between atoms: C3_6  and  N3_7 
REMARK    4  A    between atoms: C4_14  and  N6_15 
REMARK    5  A    between atoms: C4_14  and  C5_19 
REMARK    6  A    between atoms: C5_19  and  N7_20 
ROOT
HETATM    1  C1  UNL     1       5.477   4.554   7.628  1.00  0.00     0.171 C 
HETATM    2  N1  UNL     1       4.506   3.729   6.953  1.00  0.00    -0.189 N 
ENDROOT
BRANCH   2   3
HETATM    3  C2  UNL     1       3.230   4.306   6.655  1.00  0.00     0.711 A 
HETATM    4  N2  UNL     1       2.103   3.640   6.293  1.00  0.00    -0.020 N 
HETATM    5  C3  UNL     1       1.137   4.557   6.108  1.00  0.00     0.705 A 
ATOM      6  H2  UNL     1       2.008   2.630   6.181  1.00  0.00     0.203 HD
HETATM    7  N4  UNL     1       1.633   5.785   6.348  1.00  0.00    -0.118 N 
HETATM    8  N5  UNL     1       2.899   5.603   6.677  1.00  0.00    -0.117 N 
ATOM      9  H4  UNL     1       1.134   6.672   6.289  1.00  0.00     0.206 HD
ATOM     10  H5  UNL     1       3.543   6.356   6.917  1.00  0.00     0.206 HD
BRANCH   5  11
HETATM   11  N3  UNL     1      -0.061   4.239   5.756  1.00  0.00    -0.233 N 
ATOM     12  H32 UNL     1      -0.397   3.340   5.411  1.00  0.00     0.174 HD
ATOM     13  H31 UNL     1      -0.836   4.901   5.792  1.00  0.00     0.174 HD
ENDBRANCH   5  11
ENDBRANCH   2   3
BRANCH   2  14
HETATM   14  C4  UNL     1       4.842   2.383   6.605  1.00  0.00     0.324 C 
BRANCH  14  15
HETATM   15  N6  UNL     1       6.241   2.190   6.331  1.00  0.00    -0.056 N 
ATOM     16  H63 UNL     1       6.742   3.077   6.375  1.00  0.00     0.276 HD
ATOM     17  H62 UNL     1       6.694   1.700   7.102  1.00  0.00     0.276 HD
ATOM     18  H61 UNL     1       6.423   1.717   5.446  1.00  0.00     0.276 HD
ENDBRANCH  14  15
BRANCH  14  19
HETATM   19  C5  UNL     1       4.322   1.431   7.646  1.00  0.00     0.284 C 
BRANCH  19  20
HETATM   20  N7  UNL     1       3.257   0.585   7.210  1.00  0.00    -0.076 N 
ATOM     21  H73 UNL     1       3.530   0.083   6.364  1.00  0.00     0.274 HD
ATOM     22  H72 UNL     1       3.143  -0.199   7.853  1.00  0.00     0.274 HD
ATOM     23  H71 UNL     1       2.364   1.057   7.067  1.00  0.00     0.274 HD
ENDBRANCH  19  20
ENDBRANCH  14  19
ENDBRANCH   2  14
TORSDOF 6
ENDMDL
MODEL 4
REMARK VINA RESULT: -5.384660134      1.449      2.265
REMARK  6 active torsions:
REMARK  status: ('A' for Active; 'I' for Inactive)
REMARK    1  A    between atoms: N1_2  and  C2_3 
REMARK    2  A    between atoms: N1_2  and  C4_14 
REMARK    3  A    between atoms: C3_6  and  N3_7 
REMARK    4  A    between atoms: C4_14  and  N6_15 
REMARK    5  A    between atoms: C4_14  and  C5_19 
REMARK    6  A    between atoms: C5_19  and  N7_20 
ROOT
HETATM    1  C1  UNL     1       5.860   4.077   7.181  1.00  0.00     0.171 C 
HETATM    2  N1  UNL     1       4.649   3.297   7.122  1.00  0.00    -0.189 N 
ENDROOT
BRANCH   2   3
HETATM    3  C2  UNL     1       3.431   3.977   6.804  1.00  0.00     0.711 A 
HETATM    4  N2  UNL     1       2.266   3.409   6.396  1.00  0.00    -0.020 N 
HETATM    5  C3  UNL     1       1.380   4.402   6.207  1.00  0.00     0.705 A 
ATOM      6  H2  UNL     1       2.096   2.412   6.259  1.00  0.00     0.203 HD
HETATM    7  N4  UNL     1       1.962   5.582   6.488  1.00  0.00    -0.118 N 
HETATM    8  N5  UNL     1       3.200   5.296   6.847  1.00  0.00    -0.117 N 
ATOM      9  H4  UNL     1       1.535   6.507   6.436  1.00  0.00     0.206 HD
ATOM     10  H5  UNL     1       3.894   5.991   7.121  1.00  0.00     0.206 HD
BRANCH   5  11
HETATM   11  N3  UNL     1       0.171   4.187   5.816  1.00  0.00    -0.233 N 
ATOM     12  H32 UNL     1      -0.344   3.306   5.821  1.00  0.00     0.174 HD
ATOM     13  H31 UNL     1      -0.422   4.925   5.439  1.00  0.00     0.174 HD
ENDBRANCH   5  11
ENDBRANCH   2   3
BRANCH   2  14
HETATM   14  C4  UNL     1       4.700   1.890   7.378  1.00  0.00     0.324 C 
BRANCH  14  15
HETATM   15  N6  UNL     1       4.822   1.091   6.189  1.00  0.00    -0.056 N 
ATOM     16  H63 UNL     1       5.592   1.424   5.609  1.00  0.00     0.276 HD
ATOM     17  H62 UNL     1       5.169   0.160   6.415  1.00  0.00     0.276 HD
ATOM     18  H61 UNL     1       3.961   1.033   5.646  1.00  0.00     0.276 HD
ENDBRANCH  14  15
BRANCH  14  19
HETATM   19  C5  UNL     1       5.770   1.584   8.390  1.00  0.00     0.284 C 
BRANCH  19  20
HETATM   20  N7  UNL     1       6.719   0.597   7.982  1.00  0.00    -0.076 N 
ATOM     21  H73 UNL     1       7.374   0.405   8.740  1.00  0.00     0.274 HD
ATOM     22  H72 UNL     1       6.267  -0.314   7.902  1.00  0.00     0.274 HD
ATOM     23  H71 UNL     1       7.226   0.817   7.125  1.00  0.00     0.274 HD
ENDBRANCH  19  20
ENDBRANCH  14  19
ENDBRANCH   2  14
TORSDOF 6
ENDMDL
MODEL 5
REMARK VINA RESULT: -5.358064427      1.406      5.032
REMARK  6 active torsions:
REMARK  status: ('A' for Active; 'I' for Inactive)
REMARK    1  A    between atoms: N1_2  and  C2_3 
REMARK    2  A    between atoms: N1_2  and  C4_14 
REMARK    3  A    between atoms: C3_6  and  N3_7 
REMARK    4  A    between atoms: C4_14  and  N6_15 
REMARK    5  A    between atoms: C4_14  and  C5_19 
REMARK    6  A    between atoms: C5_19  and  N7_20 
ROOT
HETATM    1  C1  UNL     1       3.799   5.083   6.993  1.00  0.00     0.171 C 
HETATM    2  N1  UNL     1       3.540   3.723   6.588  1.00  0.00    -0.189 N 
ENDROOT
BRANCH   2   3
HETATM    3  C2  UNL     1       4.496   2.724   6.956  1.00  0.00     0.711 A 
HETATM    4  N2  UNL     1       4.871   2.384   8.216  1.00  0.00    -0.020 N 
HETATM    5  C3  UNL     1       5.786   1.404   8.112  1.00  0.00     0.705 A 
ATOM      6  H2  UNL     1       4.522   2.796   9.082  1.00  0.00     0.203 HD
HETATM    7  N4  UNL     1       5.994   1.120   6.813  1.00  0.00    -0.118 N 
HETATM    8  N5  UNL     1       5.201   1.932   6.137  1.00  0.00    -0.117 N 
ATOM      9  H4  UNL     1       6.631   0.423   6.430  1.00  0.00     0.206 HD
ATOM     10  H5  UNL     1       5.134   1.953   5.120  1.00  0.00     0.206 HD
BRANCH   5  11
HETATM   11  N3  UNL     1       6.341   0.863   9.141  1.00  0.00    -0.233 N 
ATOM     12  H32 UNL     1       6.765   1.327   9.945  1.00  0.00     0.174 HD
ATOM     13  H31 UNL     1       6.413  -0.148   9.256  1.00  0.00     0.174 HD
ENDBRANCH   5  11
ENDBRANCH   2   3
BRANCH   2  14
HETATM   14  C4  UNL     1       2.356   3.420   5.845  1.00  0.00     0.324 C 
BRANCH  14  15
HETATM   15  N6  UNL     1       1.697   2.217   6.277  1.00  0.00    -0.056 N 
ATOM     16  H63 UNL     1       2.359   1.587   6.730  1.00  0.00     0.276 HD
ATOM     17  H62 UNL     1       1.078   2.409   7.064  1.00  0.00     0.276 HD
ATOM     18  H61 UNL     1       1.194   1.736   5.531  1.00  0.00     0.276 HD
ENDBRANCH  14  15
BRANCH  14  19
HETATM   19  C5  UNL     1       1.434   4.607   5.827  1.00  0.00     0.284 C 
BRANCH  19  20
HETATM   20  N7  UNL     1       0.042   4.289   5.880  1.00  0.00    -0.076 N 
ATOM     21  H73 UNL     1      -0.477   5.053   6.314  1.00  0.00     0.274 HD
ATOM     22  H72 UNL     1      -0.360   4.311   4.942  1.00  0.00     0.274 HD
ATOM     23  H71 UNL     1      -0.180   3.406   6.338  1.00  0.00     0.274 HD
ENDBRANCH  19  20
ENDBRANCH  14  19
ENDBRANCH   2  14
TORSDOF 6
ENDMDL
