MODEL 1
REMARK VINA RESULT: -5.353747563      0.000      0.000
REMARK  5 active torsions:
REMARK  status: ('A' for Active; 'I' for Inactive)
REMARK    1  A    between atoms: N1_2  and  N2_3 
REMARK    2  A    between atoms: N2_3  and  N3_4 
REMARK    3  A    between atoms: N3_4  and  C2_6 
REMARK    4  A    between atoms: N4_7  and  N5_9 
REMARK    5  A    between atoms: N5_9  and  C3_11 
ROOT
HETATM    1  N5  UNL     1       1.909   2.148   6.566  1.00  0.00    -0.271 N 
ATOM      2  H5  UNL     1       1.233   1.797   7.244  1.00  0.00     0.190 HD
ENDROOT
BRANCH   1   3
HETATM    3  N4  UNL     1       1.445   2.858   5.462  1.00  0.00    -0.293 N 
HETATM    4  C2  UNL     1       1.068   4.079   5.488  1.00  0.00     0.211 C 
ATOM      5  H4  UNL     1       1.402   2.369   4.568  1.00  0.00     0.187 HD
BRANCH   4   6
HETATM    6  N3  UNL     1       1.066   4.901   6.643  1.00  0.00    -0.282 N 
ATOM      7  H3  UNL     1       0.189   5.327   6.944  1.00  0.00     0.184 HD
BRANCH   6   8
HETATM    8  N2  UNL     1       2.220   5.146   7.378  1.00  0.00    -0.031 NA
BRANCH   8   9
HETATM    9  N1  UNL     1       3.349   5.341   6.611  1.00  0.00    -0.131 NA
HETATM   10  C1  UNL     1       4.541   5.607   7.366  1.00  0.00     0.156 C 
ENDBRANCH   8   9
ENDBRANCH   6   8
ENDBRANCH   4   6
ENDBRANCH   1   3
BRANCH   1  11
HETATM   11  C3  UNL     1       3.309   1.890   6.784  1.00  0.00     0.190 C 
HETATM   12  N6  UNL     1       3.994   2.372   7.757  1.00  0.00    -0.360 N 
HETATM   13  C4  UNL     1       5.355   1.916   7.679  1.00  0.00     0.142 C 
ATOM     14  H6  UNL     1       3.626   2.990   8.480  1.00  0.00     0.162 HD
HETATM   15  C5  UNL     1       5.498   1.449   6.250  1.00  0.00     0.142 C 
HETATM   16  N7  UNL     1       4.128   1.076   5.955  1.00  0.00    -0.360 N 
ATOM     17  H7  UNL     1       3.815   0.371   5.288  1.00  0.00     0.162 HD
ENDBRANCH   1  11
TORSDOF 5
ENDMDL
MODEL 2
REMARK VINA RESULT: -5.307481390      1.540      3.107
REMARK  5 active torsions:
REMARK  status: ('A' for Active; 'I' for Inactive)
REMARK    1  A    between atoms: N1_2  and  N2_3 
REMARK    2  A    between atoms: N2_3  and  N3_4 
REMARK    3  A    between atoms: N3_4  and  C2_6 
REMARK    4  A    between atoms: N4_7  and  N5_9 
REMARK    5  A    between atoms: N5_9  and  C3_11 
ROOT
HETATM    1  N5  UNL     1       5.179   2.963   8.130  1.00  0.00    -0.271 N 
ATOM      2  H5  UNL     1       5.347   2.616   9.074  1.00  0.00     0.190 HD
ENDROOT
BRANCH   1   3
HETATM    3  N4  UNL     1       5.816   4.133   7.723  1.00  0.00    -0.293 N 
HETATM    4  C2  UNL     1       5.318   5.306   7.823  1.00  0.00     0.211 C 
ATOM      5  H4  UNL     1       6.748   4.048   7.316  1.00  0.00     0.187 HD
BRANCH   4   6
HETATM    6  N3  UNL     1       4.041   5.599   8.364  1.00  0.00    -0.282 N 
ATOM      7  H3  UNL     1       3.983   6.113   9.243  1.00  0.00     0.184 HD
BRANCH   6   8
HETATM    8  N2  UNL     1       2.865   5.210   7.733  1.00  0.00    -0.031 NA
BRANCH   8   9
HETATM    9  N1  UNL     1       2.834   5.472   6.380  1.00  0.00    -0.131 NA
HETATM   10  C1  UNL     1       1.544   5.304   5.772  1.00  0.00     0.156 C 
ENDBRANCH   8   9
ENDBRANCH   6   8
ENDBRANCH   4   6
ENDBRANCH   1   3
BRANCH   1  11
HETATM   11  C3  UNL     1       4.293   2.227   7.266  1.00  0.00     0.190 C 
HETATM   12  N6  UNL     1       3.942   2.605   6.091  1.00  0.00    -0.360 N 
HETATM   13  C4  UNL     1       3.053   1.641   5.504  1.00  0.00     0.142 C 
ATOM     14  H6  UNL     1       4.249   3.467   5.639  1.00  0.00     0.162 HD
HETATM   15  C5  UNL     1       2.558   0.841   6.685  1.00  0.00     0.142 C 
HETATM   16  N7  UNL     1       3.678   0.987   7.593  1.00  0.00    -0.360 N 
ATOM     17  H7  UNL     1       3.968   0.333   8.320  1.00  0.00     0.162 HD
ENDBRANCH   1  11
TORSDOF 5
ENDMDL
MODEL 3
REMARK VINA RESULT: -5.270234806      1.752      2.613
REMARK  5 active torsions:
REMARK  status: ('A' for Active; 'I' for Inactive)
REMARK    1  A    between atoms: N1_2  and  N2_3 
REMARK    2  A    between atoms: N2_3  and  N3_4 
REMARK    3  A    between atoms: N3_4  and  C2_6 
REMARK    4  A    between atoms: N4_7  and  N5_9 
REMARK    5  A    between atoms: N5_9  and  C3_11 
ROOT
HETATM    1  N5  UNL     1       3.536   1.067   7.444  1.00  0.00    -0.271 N 
ATOM      2  H5  UNL     1       2.804   0.839   8.116  1.00  0.00     0.190 HD
ENDROOT
BRANCH   1   3
HETATM    3  N4  UNL     1       3.333   0.764   6.101  1.00  0.00    -0.293 N 
HETATM    4  C2  UNL     1       2.757   1.535   5.260  1.00  0.00     0.211 C 
ATOM      5  H4  UNL     1       3.668  -0.138   5.763  1.00  0.00     0.187 HD
BRANCH   4   6
HETATM    6  N3  UNL     1       2.236   2.819   5.562  1.00  0.00    -0.282 N 
ATOM      7  H3  UNL     1       2.630   3.634   5.093  1.00  0.00     0.184 HD
BRANCH   6   8
HETATM    8  N2  UNL     1       1.207   3.001   6.478  1.00  0.00    -0.031 NA
BRANCH   8   9
HETATM    9  N1  UNL     1       0.490   4.165   6.301  1.00  0.00    -0.131 NA
HETATM   10  C1  UNL     1       1.288   5.305   5.945  1.00  0.00     0.156 C 
ENDBRANCH   8   9
ENDBRANCH   6   8
ENDBRANCH   4   6
ENDBRANCH   1   3
BRANCH   1  11
HETATM   11  C3  UNL     1       4.744   1.693   7.920  1.00  0.00     0.190 C 
HETATM   12  N6  UNL     1       4.950   2.960   7.935  1.00  0.00    -0.360 N 
HETATM   13  C4  UNL     1       6.252   3.244   8.471  1.00  0.00     0.142 C 
ATOM     14  H6  UNL     1       4.285   3.663   7.612  1.00  0.00     0.162 HD
HETATM   15  C5  UNL     1       6.985   1.929   8.356  1.00  0.00     0.142 C 
HETATM   16  N7  UNL     1       5.875   0.999   8.431  1.00  0.00    -0.360 N 
ATOM     17  H7  UNL     1       5.900   0.041   8.779  1.00  0.00     0.162 HD
ENDBRANCH   1  11
TORSDOF 5
ENDMDL
MODEL 4
REMARK VINA RESULT: -5.217796332      0.228      1.111
REMARK  5 active torsions:
REMARK  status: ('A' for Active; 'I' for Inactive)
REMARK    1  A    between atoms: N1_2  and  N2_3 
REMARK    2  A    between atoms: N2_3  and  N3_4 
REMARK    3  A    between atoms: N3_4  and  C2_6 
REMARK    4  A    between atoms: N4_7  and  N5_9 
REMARK    5  A    between atoms: N5_9  and  C3_11 
ROOT
HETATM    1  N5  UNL     1       1.906   2.334   6.555  1.00  0.00    -0.271 N 
ATOM      2  H5  UNL     1       1.288   1.949   7.268  1.00  0.00     0.190 HD
ENDROOT
BRANCH   1   3
HETATM    3  N4  UNL     1       1.348   3.051   5.499  1.00  0.00    -0.293 N 
HETATM    4  C2  UNL     1       0.994   4.277   5.559  1.00  0.00     0.211 C 
ATOM      5  H4  UNL     1       1.212   2.562   4.615  1.00  0.00     0.187 HD
BRANCH   4   6
HETATM    6  N3  UNL     1       1.115   5.099   6.708  1.00  0.00    -0.282 N 
ATOM      7  H3  UNL     1       0.304   5.632   7.022  1.00  0.00     0.184 HD
BRANCH   6   8
HETATM    8  N2  UNL     1       2.304   5.203   7.420  1.00  0.00    -0.031 NA
BRANCH   8   9
HETATM    9  N1  UNL     1       3.410   5.471   6.641  1.00  0.00    -0.131 NA
HETATM   10  C1  UNL     1       4.624   5.670   7.382  1.00  0.00     0.156 C 
ENDBRANCH   8   9
ENDBRANCH   6   8
ENDBRANCH   4   6
ENDBRANCH   1   3
BRANCH   1  11
HETATM   11  C3  UNL     1       3.325   2.116   6.675  1.00  0.00     0.190 C 
HETATM   12  N6  UNL     1       4.051   1.541   5.786  1.00  0.00    -0.360 N 
HETATM   13  C4  UNL     1       5.419   1.489   6.221  1.00  0.00     0.142 C 
ATOM     14  H6  UNL     1       3.706   1.174   4.899  1.00  0.00     0.162 HD
HETATM   15  C5  UNL     1       5.333   1.713   7.712  1.00  0.00     0.142 C 
HETATM   16  N7  UNL     1       4.117   2.499   7.792  1.00  0.00    -0.360 N 
ATOM     17  H7  UNL     1       3.879   3.188   8.505  1.00  0.00     0.162 HD
ENDBRANCH   1  11
TORSDOF 5
ENDMDL
MODEL 5
REMARK VINA RESULT: -5.202236814      1.652      2.700
REMARK  5 active torsions:
REMARK  status: ('A' for Active; 'I' for Inactive)
REMARK    1  A    between atoms: N1_2  and  N2_3 
REMARK    2  A    between atoms: N2_3  and  N3_4 
REMARK    3  A    between atoms: N3_4  and  C2_6 
REMARK    4  A    between atoms: N4_7  and  N5_9 
REMARK    5  A    between atoms: N5_9  and  C3_11 
ROOT
HETATM    1  N5  UNL     1       4.006   1.372   7.969  1.00  0.00    -0.271 N 
ATOM      2  H5  UNL     1       3.691   1.745   8.864  1.00  0.00     0.190 HD
ENDROOT
BRANCH   1   3
HETATM    3  N4  UNL     1       3.078   0.757   7.134  1.00  0.00    -0.293 N 
HETATM    4  C2  UNL     1       2.219   1.376   6.419  1.00  0.00     0.211 C 
ATOM      5  H4  UNL     1       3.083  -0.262   7.089  1.00  0.00     0.187 HD
BRANCH   4   6
HETATM    6  N3  UNL     1       2.078   2.786   6.363  1.00  0.00    -0.282 N 
ATOM      7  H3  UNL     1       2.917   3.366   6.339  1.00  0.00     0.184 HD
BRANCH   6   8
HETATM    8  N2  UNL     1       0.833   3.403   6.339  1.00  0.00    -0.031 NA
BRANCH   8   9
HETATM    9  N1  UNL     1       0.849   4.728   6.722  1.00  0.00    -0.131 NA
HETATM   10  C1  UNL     1       1.680   5.570   5.908  1.00  0.00     0.156 C 
ENDBRANCH   8   9
ENDBRANCH   6   8
ENDBRANCH   4   6
ENDBRANCH   1   3
BRANCH   1  11
HETATM   11  C3  UNL     1       5.396   1.501   7.614  1.00  0.00     0.190 C 
HETATM   12  N6  UNL     1       5.827   2.113   6.571  1.00  0.00    -0.360 N 
HETATM   13  C4  UNL     1       7.262   2.055   6.520  1.00  0.00     0.142 C 
ATOM     14  H6  UNL     1       5.236   2.574   5.879  1.00  0.00     0.162 HD
HETATM   15  C5  UNL     1       7.611   0.920   7.453  1.00  0.00     0.142 C 
HETATM   16  N7  UNL     1       6.482   0.967   8.360  1.00  0.00    -0.360 N 
ATOM     17  H7  UNL     1       6.469   0.674   9.337  1.00  0.00     0.162 HD
ENDBRANCH   1  11
TORSDOF 5
ENDMDL
