MODEL 1
REMARK VINA RESULT: -7.156694433      0.000      0.000
REMARK  12 active torsions:
REMARK  status: ('A' for Active; 'I' for Inactive)
REMARK    1  A    between atoms: C3_8  and  N4_9 
REMARK    2  A    between atoms: N4_9  and  C4_11 
REMARK    3  A    between atoms: C7_18  and  N7_19 
REMARK    4  A    between atoms: N7_19  and  C8_21 
REMARK    5  A    between atoms: C8_21  and  C9_22 
REMARK    6  A    between atoms: C8_21  and  C10_25 
REMARK    7  A    between atoms: C9_22  and  O1_23 
REMARK    8  A    between atoms: C10_25  and  O2_26 
REMARK    9  A    between atoms: C10_25  and  C11_28 
REMARK   10  A    between atoms: C11_28  and  O3_29 
REMARK   11  A    between atoms: C11_28  and  C12_31 
REMARK   12  A    between atoms: C12_31  and  O4_32 
ROOT
HETATM    1  C4  UNL     1      -5.774  -3.645  -8.945  1.00  0.00     0.136 A 
HETATM    2  N5  UNL     1      -7.058  -3.896  -9.238  1.00  0.00    -0.337 N 
ATOM      3  H5  UNL     1      -7.599  -3.199  -9.750  1.00  0.00     0.168 HD
HETATM    4  C5  UNL     1      -7.647  -5.047  -8.871  1.00  0.00     0.182 A 
HETATM    5  N6  UNL     1      -6.961  -5.957  -8.209  1.00  0.00    -0.360 N 
ATOM      6  H6  UNL     1      -7.404  -6.832  -7.929  1.00  0.00     0.166 HD
HETATM    7  C6  UNL     1      -5.649  -5.719  -7.901  1.00  0.00     0.122 A 
HETATM    8  C7  UNL     1      -4.990  -4.574  -8.243  1.00  0.00     0.092 A 
ENDROOT
BRANCH   8   9
HETATM    9  N7  UNL     1      -3.673  -4.278  -7.956  1.00  0.00    -0.355 N 
ATOM     10  H7  UNL     1      -3.021  -4.581  -8.679  1.00  0.00     0.166 HD
BRANCH   9  11
HETATM   11  C8  UNL     1      -3.035  -3.630  -6.848  1.00  0.00     0.042 C 
BRANCH  11  12
HETATM   12  C9  UNL     1      -3.284  -4.263  -5.512  1.00  0.00     0.219 C 
BRANCH  12  13
HETATM   13  O1  UNL     1      -2.307  -5.270  -5.359  1.00  0.00    -0.395 OA
ATOM     14  H1  UNL     1      -2.744  -6.011  -4.956  1.00  0.00     0.209 HD
ENDBRANCH  12  13
ENDBRANCH  11  12
BRANCH  11  15
HETATM   15  C10 UNL     1      -1.657  -3.163  -7.145  1.00  0.00     0.196 C 
BRANCH  15  16
HETATM   16  O2  UNL     1      -1.033  -2.479  -6.088  1.00  0.00    -0.387 OA
ATOM     17  H2  UNL     1      -1.091  -1.532  -6.144  1.00  0.00     0.210 HD
ENDBRANCH  15  16
BRANCH  15  18
HETATM   18  C11 UNL     1      -1.511  -2.270  -8.343  1.00  0.00     0.176 C 
BRANCH  18  19
HETATM   19  O3  UNL     1      -2.615  -1.554  -8.705  1.00  0.00    -0.390 OA
ATOM     20  H3  UNL     1      -3.264  -2.013  -9.225  1.00  0.00     0.210 HD
ENDBRANCH  18  19
BRANCH  18  21
HETATM   21  C12 UNL     1      -0.347  -1.290  -8.155  1.00  0.00     0.198 C 
BRANCH  21  22
HETATM   22  O4  UNL     1       0.798  -2.036  -8.025  1.00  0.00    -0.398 OA
ATOM     23  H4  UNL     1       1.310  -1.909  -8.815  1.00  0.00     0.209 HD
ENDBRANCH  21  22
ENDBRANCH  18  21
ENDBRANCH  15  18
ENDBRANCH  11  15
ENDBRANCH   9  11
ENDBRANCH   8   9
BRANCH   1  24
HETATM   24  N4  UNL     1      -5.296  -2.524  -9.333  1.00  0.00    -0.324 N 
ATOM     25  H4  UNL     1      -4.873  -1.923  -8.627  1.00  0.00     0.169 HD
BRANCH  24  26
HETATM   26  C3  UNL     1      -5.308  -2.058 -10.658  1.00  0.00     0.149 A 
HETATM   27  C1  UNL     1      -4.364  -2.362 -11.621  1.00  0.00     0.161 A 
HETATM   28  N1  UNL     1      -3.213  -3.178 -11.506  1.00  0.00    -0.079 NA
HETATM   29  N2  UNL     1      -4.719  -1.731 -12.755  1.00  0.00    -0.338 N 
HETATM   30  C2  UNL     1      -5.851  -1.039 -12.550  1.00  0.00     0.183 A 
ATOM     31  H2  UNL     1      -4.206  -1.772 -13.636  1.00  0.00     0.168 HD
HETATM   32  N3  UNL     1      -6.189  -1.253 -11.269  1.00  0.00    -0.336 N 
ATOM     33  H3  UNL     1      -7.013  -0.854 -10.818  1.00  0.00     0.168 HD
ENDBRANCH  24  26
ENDBRANCH   1  24
TORSDOF 12
ENDMDL
MODEL 2
REMARK VINA RESULT: -6.750909728      0.736      1.120
REMARK  12 active torsions:
REMARK  status: ('A' for Active; 'I' for Inactive)
REMARK    1  A    between atoms: C3_8  and  N4_9 
REMARK    2  A    between atoms: N4_9  and  C4_11 
REMARK    3  A    between atoms: C7_18  and  N7_19 
REMARK    4  A    between atoms: N7_19  and  C8_21 
REMARK    5  A    between atoms: C8_21  and  C9_22 
REMARK    6  A    between atoms: C8_21  and  C10_25 
REMARK    7  A    between atoms: C9_22  and  O1_23 
REMARK    8  A    between atoms: C10_25  and  O2_26 
REMARK    9  A    between atoms: C10_25  and  C11_28 
REMARK   10  A    between atoms: C11_28  and  O3_29 
REMARK   11  A    between atoms: C11_28  and  C12_31 
REMARK   12  A    between atoms: C12_31  and  O4_32 
ROOT
HETATM    1  C4  UNL     1      -5.668  -3.736  -8.768  1.00  0.00     0.136 A 
HETATM    2  N5  UNL     1      -6.977  -3.734  -9.060  1.00  0.00    -0.337 N 
ATOM      3  H5  UNL     1      -7.349  -3.018  -9.683  1.00  0.00     0.168 HD
HETATM    4  C5  UNL     1      -7.808  -4.659  -8.549  1.00  0.00     0.182 A 
HETATM    5  N6  UNL     1      -7.342  -5.591  -7.741  1.00  0.00    -0.360 N 
ATOM      6  H6  UNL     1      -7.970  -6.294  -7.351  1.00  0.00     0.166 HD
HETATM    7  C6  UNL     1      -6.009  -5.609  -7.431  1.00  0.00     0.122 A 
HETATM    8  C7  UNL     1      -5.111  -4.702  -7.915  1.00  0.00     0.092 A 
ENDROOT
BRANCH   8   9
HETATM    9  N7  UNL     1      -3.760  -4.667  -7.634  1.00  0.00    -0.355 N 
ATOM     10  H7  UNL     1      -3.222  -5.375  -8.135  1.00  0.00     0.166 HD
BRANCH   9  11
HETATM   11  C8  UNL     1      -2.959  -3.838  -6.782  1.00  0.00     0.042 C 
BRANCH  11  12
HETATM   12  C9  UNL     1      -3.048  -4.157  -5.319  1.00  0.00     0.219 C 
BRANCH  12  13
HETATM   13  O1  UNL     1      -2.471  -5.434  -5.153  1.00  0.00    -0.395 OA
ATOM     14  H1  UNL     1      -1.530  -5.304  -5.133  1.00  0.00     0.209 HD
ENDBRANCH  12  13
ENDBRANCH  11  12
BRANCH  11  15
HETATM   15  C10 UNL     1      -1.618  -3.531  -7.342  1.00  0.00     0.196 C 
BRANCH  15  16
HETATM   16  O2  UNL     1      -0.558  -4.216  -6.722  1.00  0.00    -0.387 OA
ATOM     17  H2  UNL     1       0.270  -4.158  -7.184  1.00  0.00     0.210 HD
ENDBRANCH  15  16
BRANCH  15  18
HETATM   18  C11 UNL     1      -1.220  -2.084  -7.333  1.00  0.00     0.176 C 
BRANCH  18  19
HETATM   19  O3  UNL     1       0.119  -1.822  -7.384  1.00  0.00    -0.390 OA
ATOM     20  H3  UNL     1       0.685  -2.416  -6.906  1.00  0.00     0.210 HD
ENDBRANCH  18  19
BRANCH  18  21
HETATM   21  C12 UNL     1      -1.900  -1.324  -8.477  1.00  0.00     0.198 C 
BRANCH  21  22
HETATM   22  O4  UNL     1      -1.775  -2.090  -9.609  1.00  0.00    -0.398 OA
ATOM     23  H4  UNL     1      -2.576  -1.988 -10.110  1.00  0.00     0.209 HD
ENDBRANCH  21  22
ENDBRANCH  18  21
ENDBRANCH  15  18
ENDBRANCH  11  15
ENDBRANCH   9  11
ENDBRANCH   8   9
BRANCH   1  24
HETATM   24  N4  UNL     1      -4.951  -2.820  -9.299  1.00  0.00    -0.324 N 
ATOM     25  H4  UNL     1      -4.122  -2.516  -8.790  1.00  0.00     0.169 HD
BRANCH  24  26
HETATM   26  C3  UNL     1      -5.219  -2.199 -10.530  1.00  0.00     0.149 A 
HETATM   27  C1  UNL     1      -4.510  -2.402 -11.699  1.00  0.00     0.161 A 
HETATM   28  N1  UNL     1      -3.396  -3.246 -11.923  1.00  0.00    -0.079 NA
HETATM   29  N2  UNL     1      -5.067  -1.635 -12.654  1.00  0.00    -0.338 N 
HETATM   30  C2  UNL     1      -6.101  -0.953 -12.137  1.00  0.00     0.183 A 
ATOM     31  H2  UNL     1      -4.751  -1.580 -13.622  1.00  0.00     0.168 HD
HETATM   32  N3  UNL     1      -6.174  -1.311 -10.846  1.00  0.00    -0.336 N 
ATOM     33  H3  UNL     1      -6.868  -0.955 -10.189  1.00  0.00     0.168 HD
ENDBRANCH  24  26
ENDBRANCH   1  24
TORSDOF 12
ENDMDL
MODEL 3
REMARK VINA RESULT: -6.739685215      0.655      1.271
REMARK  12 active torsions:
REMARK  status: ('A' for Active; 'I' for Inactive)
REMARK    1  A    between atoms: C3_8  and  N4_9 
REMARK    2  A    between atoms: N4_9  and  C4_11 
REMARK    3  A    between atoms: C7_18  and  N7_19 
REMARK    4  A    between atoms: N7_19  and  C8_21 
REMARK    5  A    between atoms: C8_21  and  C9_22 
REMARK    6  A    between atoms: C8_21  and  C10_25 
REMARK    7  A    between atoms: C9_22  and  O1_23 
REMARK    8  A    between atoms: C10_25  and  O2_26 
REMARK    9  A    between atoms: C10_25  and  C11_28 
REMARK   10  A    between atoms: C11_28  and  O3_29 
REMARK   11  A    between atoms: C11_28  and  C12_31 
REMARK   12  A    between atoms: C12_31  and  O4_32 
ROOT
HETATM    1  C4  UNL     1      -5.849  -3.690  -8.860  1.00  0.00     0.136 A 
HETATM    2  N5  UNL     1      -7.134  -3.977  -9.114  1.00  0.00    -0.337 N 
ATOM      3  H5  UNL     1      -7.710  -3.297  -9.609  1.00  0.00     0.168 HD
HETATM    4  C5  UNL     1      -7.678  -5.144  -8.728  1.00  0.00     0.182 A 
HETATM    5  N6  UNL     1      -6.948  -6.034  -8.086  1.00  0.00    -0.360 N 
ATOM      6  H6  UNL     1      -7.357  -6.920  -7.792  1.00  0.00     0.166 HD
HETATM    7  C6  UNL     1      -5.634  -5.759  -7.817  1.00  0.00     0.122 A 
HETATM    8  C7  UNL     1      -5.018  -4.595  -8.180  1.00  0.00     0.092 A 
ENDROOT
BRANCH   8   9
HETATM    9  N7  UNL     1      -3.702  -4.262  -7.933  1.00  0.00    -0.355 N 
ATOM     10  H7  UNL     1      -3.068  -4.522  -8.689  1.00  0.00     0.166 HD
BRANCH   9  11
HETATM   11  C8  UNL     1      -3.045  -3.623  -6.831  1.00  0.00     0.042 C 
BRANCH  11  12
HETATM   12  C9  UNL     1      -3.280  -4.261  -5.495  1.00  0.00     0.219 C 
BRANCH  12  13
HETATM   13  O1  UNL     1      -2.317  -5.286  -5.368  1.00  0.00    -0.395 OA
ATOM     14  H1  UNL     1      -2.516  -5.742  -4.558  1.00  0.00     0.209 HD
ENDBRANCH  12  13
ENDBRANCH  11  12
BRANCH  11  15
HETATM   15  C10 UNL     1      -1.668  -3.164  -7.145  1.00  0.00     0.196 C 
BRANCH  15  16
HETATM   16  O2  UNL     1      -1.033  -2.471  -6.100  1.00  0.00    -0.387 OA
ATOM     17  H2  UNL     1      -1.186  -2.837  -5.236  1.00  0.00     0.210 HD
ENDBRANCH  15  16
BRANCH  15  18
HETATM   18  C11 UNL     1      -1.530  -2.282  -8.353  1.00  0.00     0.176 C 
BRANCH  18  19
HETATM   19  O3  UNL     1      -2.644  -1.590  -8.730  1.00  0.00    -0.390 OA
ATOM     20  H3  UNL     1      -2.513  -0.685  -8.985  1.00  0.00     0.210 HD
ENDBRANCH  18  19
BRANCH  18  21
HETATM   21  C12 UNL     1      -0.384  -1.281  -8.170  1.00  0.00     0.198 C 
BRANCH  21  22
HETATM   22  O4  UNL     1       0.777  -2.004  -8.053  1.00  0.00    -0.398 OA
ATOM     23  H4  UNL     1       1.476  -1.480  -8.426  1.00  0.00     0.209 HD
ENDBRANCH  21  22
ENDBRANCH  18  21
ENDBRANCH  15  18
ENDBRANCH  11  15
ENDBRANCH   9  11
ENDBRANCH   8   9
BRANCH   1  24
HETATM   24  N4  UNL     1      -5.414  -2.557  -9.263  1.00  0.00    -0.324 N 
ATOM     25  H4  UNL     1      -5.083  -1.901  -8.556  1.00  0.00     0.169 HD
BRANCH  24  26
HETATM   26  C3  UNL     1      -5.358  -2.147 -10.604  1.00  0.00     0.149 A 
HETATM   27  C1  UNL     1      -6.403  -1.585 -11.314  1.00  0.00     0.161 A 
HETATM   28  N1  UNL     1      -7.719  -1.303 -10.875  1.00  0.00    -0.079 NA
HETATM   29  N2  UNL     1      -5.962  -1.329 -12.558  1.00  0.00    -0.338 N 
HETATM   30  C2  UNL     1      -4.679  -1.705 -12.668  1.00  0.00     0.183 A 
ATOM     31  H2  UNL     1      -6.519  -0.912 -13.305  1.00  0.00     0.168 HD
HETATM   32  N3  UNL     1      -4.334  -2.199 -11.469  1.00  0.00    -0.336 N 
ATOM     33  H3  UNL     1      -3.409  -2.567 -11.243  1.00  0.00     0.168 HD
ENDBRANCH  24  26
ENDBRANCH   1  24
TORSDOF 12
ENDMDL
MODEL 4
REMARK VINA RESULT: -6.725977205      2.773      4.891
REMARK  12 active torsions:
REMARK  status: ('A' for Active; 'I' for Inactive)
REMARK    1  A    between atoms: C3_8  and  N4_9 
REMARK    2  A    between atoms: N4_9  and  C4_11 
REMARK    3  A    between atoms: C7_18  and  N7_19 
REMARK    4  A    between atoms: N7_19  and  C8_21 
REMARK    5  A    between atoms: C8_21  and  C9_22 
REMARK    6  A    between atoms: C8_21  and  C10_25 
REMARK    7  A    between atoms: C9_22  and  O1_23 
REMARK    8  A    between atoms: C10_25  and  O2_26 
REMARK    9  A    between atoms: C10_25  and  C11_28 
REMARK   10  A    between atoms: C11_28  and  O3_29 
REMARK   11  A    between atoms: C11_28  and  C12_31 
REMARK   12  A    between atoms: C12_31  and  O4_32 
ROOT
HETATM    1  C4  UNL     1      -3.600  -2.862  -9.323  1.00  0.00     0.136 A 
HETATM    2  N5  UNL     1      -2.851  -1.758  -9.462  1.00  0.00    -0.337 N 
ATOM      3  H5  UNL     1      -2.932  -1.203 -10.315  1.00  0.00     0.168 HD
HETATM    4  C5  UNL     1      -1.997  -1.367  -8.501  1.00  0.00     0.182 A 
HETATM    5  N6  UNL     1      -1.881  -2.073  -7.394  1.00  0.00    -0.360 N 
ATOM      6  H6  UNL     1      -1.233  -1.780  -6.663  1.00  0.00     0.166 HD
HETATM    7  C6  UNL     1      -2.636  -3.203  -7.234  1.00  0.00     0.122 A 
HETATM    8  C7  UNL     1      -3.522  -3.656  -8.168  1.00  0.00     0.092 A 
ENDROOT
BRANCH   8   9
HETATM    9  N7  UNL     1      -4.305  -4.788  -8.064  1.00  0.00    -0.355 N 
ATOM     10  H7  UNL     1      -3.928  -5.591  -8.567  1.00  0.00     0.166 HD
BRANCH   9  11
HETATM   11  C8  UNL     1      -5.541  -5.063  -7.393  1.00  0.00     0.042 C 
BRANCH  11  12
HETATM   12  C9  UNL     1      -6.158  -3.892  -6.689  1.00  0.00     0.219 C 
BRANCH  12  13
HETATM   13  O1  UNL     1      -5.533  -3.810  -5.427  1.00  0.00    -0.395 OA
ATOM     14  H1  UNL     1      -5.931  -3.075  -4.976  1.00  0.00     0.209 HD
ENDBRANCH  12  13
ENDBRANCH  11  12
BRANCH  11  15
HETATM   15  C10 UNL     1      -6.443  -5.964  -8.156  1.00  0.00     0.196 C 
BRANCH  15  16
HETATM   16  O2  UNL     1      -5.788  -6.798  -9.078  1.00  0.00    -0.387 OA
ATOM     17  H2  UNL     1      -6.369  -7.267  -9.666  1.00  0.00     0.210 HD
ENDBRANCH  15  16
BRANCH  15  18
HETATM   18  C11 UNL     1      -7.539  -5.292  -8.931  1.00  0.00     0.176 C 
BRANCH  18  19
HETATM   19  O3  UNL     1      -7.200  -4.792 -10.154  1.00  0.00    -0.390 OA
ATOM     20  H3  UNL     1      -7.606  -5.205 -10.907  1.00  0.00     0.210 HD
ENDBRANCH  18  19
BRANCH  18  21
HETATM   21  C12 UNL     1      -8.735  -6.233  -9.113  1.00  0.00     0.198 C 
BRANCH  21  22
HETATM   22  O4  UNL     1      -8.319  -7.275  -9.904  1.00  0.00    -0.398 OA
ATOM     23  H4  UNL     1      -9.008  -7.929  -9.898  1.00  0.00     0.209 HD
ENDBRANCH  21  22
ENDBRANCH  18  21
ENDBRANCH  15  18
ENDBRANCH  11  15
ENDBRANCH   9  11
ENDBRANCH   8   9
BRANCH   1  24
HETATM   24  N4  UNL     1      -4.385  -3.158 -10.287  1.00  0.00    -0.324 N 
ATOM     25  H4  UNL     1      -4.402  -4.129 -10.599  1.00  0.00     0.169 HD
BRANCH  24  26
HETATM   26  C3  UNL     1      -5.226  -2.250 -10.950  1.00  0.00     0.149 A 
HETATM   27  C1  UNL     1      -5.040  -1.779 -12.236  1.00  0.00     0.161 A 
HETATM   28  N1  UNL     1      -4.004  -2.088 -13.150  1.00  0.00    -0.079 NA
HETATM   29  N2  UNL     1      -6.049  -0.933 -12.513  1.00  0.00    -0.338 N 
HETATM   30  C2  UNL     1      -6.868  -0.847 -11.453  1.00  0.00     0.183 A 
ATOM     31  H2  UNL     1      -6.171  -0.433 -13.393  1.00  0.00     0.168 HD
HETATM   32  N3  UNL     1      -6.348  -1.656 -10.516  1.00  0.00    -0.336 N 
ATOM     33  H3  UNL     1      -6.755  -1.800  -9.592  1.00  0.00     0.168 HD
ENDBRANCH  24  26
ENDBRANCH   1  24
TORSDOF 12
ENDMDL
MODEL 5
REMARK VINA RESULT: -6.693218411      1.413      3.704
REMARK  12 active torsions:
REMARK  status: ('A' for Active; 'I' for Inactive)
REMARK    1  A    between atoms: C3_8  and  N4_9 
REMARK    2  A    between atoms: N4_9  and  C4_11 
REMARK    3  A    between atoms: C7_18  and  N7_19 
REMARK    4  A    between atoms: N7_19  and  C8_21 
REMARK    5  A    between atoms: C8_21  and  C9_22 
REMARK    6  A    between atoms: C8_21  and  C10_25 
REMARK    7  A    between atoms: C9_22  and  O1_23 
REMARK    8  A    between atoms: C10_25  and  O2_26 
REMARK    9  A    between atoms: C10_25  and  C11_28 
REMARK   10  A    between atoms: C11_28  and  O3_29 
REMARK   11  A    between atoms: C11_28  and  C12_31 
REMARK   12  A    between atoms: C12_31  and  O4_32 
ROOT
HETATM    1  C4  UNL     1      -6.107  -3.238  -9.792  1.00  0.00     0.136 A 
HETATM    2  N5  UNL     1      -6.576  -2.570 -10.856  1.00  0.00    -0.337 N 
ATOM      3  H5  UNL     1      -7.582  -2.440 -10.960  1.00  0.00     0.168 HD
HETATM    4  C5  UNL     1      -5.746  -2.069 -11.787  1.00  0.00     0.182 A 
HETATM    5  N6  UNL     1      -4.444  -2.230 -11.666  1.00  0.00    -0.360 N 
ATOM      6  H6  UNL     1      -3.812  -1.851 -12.371  1.00  0.00     0.166 HD
HETATM    7  C6  UNL     1      -3.946  -2.909 -10.588  1.00  0.00     0.122 A 
HETATM    8  C7  UNL     1      -4.731  -3.443  -9.606  1.00  0.00     0.092 A 
ENDROOT
BRANCH   8   9
HETATM    9  N7  UNL     1      -4.287  -4.140  -8.501  1.00  0.00    -0.355 N 
ATOM     10  H7  UNL     1      -4.410  -5.150  -8.580  1.00  0.00     0.166 HD
BRANCH   9  11
HETATM   11  C8  UNL     1      -3.687  -3.734  -7.264  1.00  0.00     0.042 C 
BRANCH  11  12
HETATM   12  C9  UNL     1      -4.374  -4.235  -6.029  1.00  0.00     0.219 C 
BRANCH  12  13
HETATM   13  O1  UNL     1      -5.468  -5.012  -6.469  1.00  0.00    -0.395 OA
ATOM     14  H1  UNL     1      -5.878  -5.364  -5.688  1.00  0.00     0.209 HD
ENDBRANCH  12  13
ENDBRANCH  11  12
BRANCH  11  15
HETATM   15  C10 UNL     1      -2.202  -3.760  -7.287  1.00  0.00     0.196 C 
BRANCH  15  16
HETATM   16  O2  UNL     1      -1.622  -4.662  -6.378  1.00  0.00    -0.387 OA
ATOM     17  H2  UNL     1      -0.812  -4.357  -5.985  1.00  0.00     0.210 HD
ENDBRANCH  15  16
BRANCH  15  18
HETATM   18  C11 UNL     1      -1.519  -2.447  -7.041  1.00  0.00     0.176 C 
BRANCH  18  19
HETATM   19  O3  UNL     1      -0.766  -2.356  -5.906  1.00  0.00    -0.390 OA
ATOM     20  H3  UNL     1      -0.523  -1.481  -5.629  1.00  0.00     0.210 HD
ENDBRANCH  18  19
BRANCH  18  21
HETATM   21  C12 UNL     1      -0.636  -2.059  -8.233  1.00  0.00     0.198 C 
BRANCH  21  22
HETATM   22  O4  UNL     1       0.585  -1.680  -7.732  1.00  0.00    -0.398 OA
ATOM     23  H4  UNL     1       1.197  -2.382  -7.916  1.00  0.00     0.209 HD
ENDBRANCH  21  22
ENDBRANCH  18  21
ENDBRANCH  15  18
ENDBRANCH  11  15
ENDBRANCH   9  11
ENDBRANCH   8   9
BRANCH   1  24
HETATM   24  N4  UNL     1      -6.967  -3.680  -8.956  1.00  0.00    -0.324 N 
ATOM     25  H4  UNL     1      -7.020  -3.222  -8.047  1.00  0.00     0.169 HD
BRANCH  24  26
HETATM   26  C3  UNL     1      -7.846  -4.749  -9.194  1.00  0.00     0.149 A 
HETATM   27  C1  UNL     1      -7.504  -6.088  -9.163  1.00  0.00     0.161 A 
HETATM   28  N1  UNL     1      -6.243  -6.673  -8.896  1.00  0.00    -0.079 NA
HETATM   29  N2  UNL     1      -8.612  -6.800  -9.440  1.00  0.00    -0.338 N 
HETATM   30  C2  UNL     1      -9.643  -5.966  -9.645  1.00  0.00     0.183 A 
ATOM     31  H2  UNL     1      -8.659  -7.818  -9.487  1.00  0.00     0.168 HD
HETATM   32  N3  UNL     1      -9.155  -4.727  -9.491  1.00  0.00    -0.336 N 
ATOM     33  H3  UNL     1      -9.708  -3.875  -9.586  1.00  0.00     0.168 HD
ENDBRANCH  24  26
ENDBRANCH   1  24
TORSDOF 12
ENDMDL
