MODEL 1
REMARK VINA RESULT: -5.176673461      0.000      0.000
REMARK  3 active torsions:
REMARK  status: ('A' for Active; 'I' for Inactive)
REMARK    1  A    between atoms: C2_2  and  C3_3 
REMARK    2  A    between atoms: N1_5  and  N2_7 
REMARK    3  A    between atoms: C6_13  and  N4_14 
ROOT
HETATM    1  N2  UNL     1       9.336  56.730   3.239  1.00  0.00    -0.130 N 
ATOM      2  H2  UNL     1       9.806  57.224   2.481  1.00  0.00     0.205 HD
HETATM    3  C4  UNL     1       8.084  56.924   3.257  1.00  0.00     0.716 A 
HETATM    4  N3  UNL     1       7.535  57.742   2.296  1.00  0.00    -0.169 N 
ATOM      5  H3  UNL     1       8.045  58.220   1.553  1.00  0.00     0.186 HD
HETATM    6  C5  UNL     1       6.232  57.801   2.503  1.00  0.00     0.196 A 
HETATM    7  C6  UNL     1       5.283  58.513   1.768  1.00  0.00     0.172 A 
HETATM    8  C7  UNL     1       3.986  58.415   2.182  1.00  0.00     0.059 A 
HETATM    9  C8  UNL     1       2.928  59.162   1.425  1.00  0.00     0.071 C 
HETATM   10  N5  UNL     1       3.665  57.672   3.234  1.00  0.00    -0.192 N 
ATOM     11  H5  UNL     1       2.690  57.611   3.529  1.00  0.00     0.184 HD
HETATM   12  C9  UNL     1       4.620  56.991   3.926  1.00  0.00     0.700 A 
HETATM   13  N6  UNL     1       4.227  56.315   4.907  1.00  0.00    -0.233 N 
ATOM     14  H61 UNL     1       4.942  55.804   5.425  1.00  0.00     0.174 HD
ATOM     15  H62 UNL     1       3.243  56.275   5.174  1.00  0.00     0.174 HD
HETATM   16  N7  UNL     1       5.923  57.043   3.573  1.00  0.00    -0.051 N 
HETATM   17  N8  UNL     1       7.068  56.508   4.029  1.00  0.00    -0.104 N 
HETATM   18  C10 UNL     1       7.182  55.643   5.152  1.00  0.00     0.199 C 
ENDROOT
BRANCH   1  19
HETATM   19  N1  UNL     1      10.171  56.016   4.001  1.00  0.00    -0.288 N 
HETATM   20  C2  UNL     1      10.446  54.762   3.891  1.00  0.00     0.060 C 
HETATM   21  C1  UNL     1      11.418  54.207   4.873  1.00  0.00     0.073 C 
ATOM     22  H1  UNL     1      10.643  56.520   4.752  1.00  0.00     0.187 HD
BRANCH  20  23
HETATM   23  C3  UNL     1       9.819  53.989   2.858  1.00  0.00     0.284 C 
HETATM   24  O1  UNL     1       8.613  53.616   2.898  1.00  0.00    -0.300 OA
ENDBRANCH  20  23
ENDBRANCH   1  19
BRANCH   7  25
HETATM   25  N4  UNL     1       5.655  59.294   0.655  1.00  0.00    -0.110 N 
HETATM   26  O2  UNL     1       5.221  58.994  -0.480  1.00  0.00    -0.532 OA
HETATM   27  O3  UNL     1       6.490  60.389   0.771  1.00  0.00    -0.532 OA
ENDBRANCH   7  25
TORSDOF 3
ENDMDL
MODEL 2
REMARK VINA RESULT: -5.146019891      2.375      6.322
REMARK  3 active torsions:
REMARK  status: ('A' for Active; 'I' for Inactive)
REMARK    1  A    between atoms: C2_2  and  C3_3 
REMARK    2  A    between atoms: N1_5  and  N2_7 
REMARK    3  A    between atoms: C6_13  and  N4_14 
ROOT
HETATM    1  N2  UNL     1       5.354  59.798  -0.473  1.00  0.00    -0.130 N 
ATOM      2  H2  UNL     1       6.286  59.833  -0.885  1.00  0.00     0.205 HD
HETATM    3  C4  UNL     1       5.308  59.122   0.597  1.00  0.00     0.716 A 
HETATM    4  N3  UNL     1       6.470  58.542   1.054  1.00  0.00    -0.169 N 
ATOM      5  H3  UNL     1       7.385  58.602   0.608  1.00  0.00     0.186 HD
HETATM    6  C5  UNL     1       6.192  57.894   2.171  1.00  0.00     0.196 A 
HETATM    7  C6  UNL     1       7.070  57.164   2.973  1.00  0.00     0.172 A 
HETATM    8  C7  UNL     1       6.542  56.579   4.087  1.00  0.00     0.059 A 
HETATM    9  C8  UNL     1       7.444  55.782   4.982  1.00  0.00     0.071 C 
HETATM   10  N5  UNL     1       5.253  56.712   4.375  1.00  0.00    -0.192 N 
ATOM     11  H5  UNL     1       4.875  56.268   5.212  1.00  0.00     0.184 HD
HETATM   12  C9  UNL     1       4.427  57.435   3.567  1.00  0.00     0.700 A 
HETATM   13  N6  UNL     1       3.224  57.507   3.916  1.00  0.00    -0.233 N 
ATOM     14  H61 UNL     1       2.606  58.048   3.312  1.00  0.00     0.174 HD
ATOM     15  H62 UNL     1       2.880  57.051   4.761  1.00  0.00     0.174 HD
HETATM   16  N7  UNL     1       4.882  58.039   2.449  1.00  0.00    -0.051 N 
HETATM   17  N8  UNL     1       4.348  58.796   1.476  1.00  0.00    -0.104 N 
HETATM   18  C10 UNL     1       2.982  59.184   1.392  1.00  0.00     0.199 C 
ENDROOT
BRANCH   1  19
HETATM   19  N1  UNL     1       4.441  60.476  -1.178  1.00  0.00    -0.288 N 
HETATM   20  C2  UNL     1       4.410  61.745  -1.395  1.00  0.00     0.060 C 
HETATM   21  C1  UNL     1       3.277  62.250  -2.219  1.00  0.00     0.073 C 
ATOM     22  H1  UNL     1       3.686  59.926  -1.589  1.00  0.00     0.187 HD
BRANCH  20  23
HETATM   23  C3  UNL     1       5.439  62.581  -0.847  1.00  0.00     0.284 C 
HETATM   24  O1  UNL     1       6.662  62.271  -0.841  1.00  0.00    -0.300 OA
ENDBRANCH  20  23
ENDBRANCH   1  19
BRANCH   7  25
HETATM   25  N4  UNL     1       8.435  57.039   2.641  1.00  0.00    -0.110 N 
HETATM   26  O2  UNL     1       8.761  56.461   1.580  1.00  0.00    -0.532 OA
HETATM   27  O3  UNL     1       9.437  57.537   3.453  1.00  0.00    -0.532 OA
ENDBRANCH   7  25
TORSDOF 3
ENDMDL
MODEL 3
REMARK VINA RESULT: -3.963624303      8.980     11.404
REMARK  3 active torsions:
REMARK  status: ('A' for Active; 'I' for Inactive)
REMARK    1  A    between atoms: C2_2  and  C3_3 
REMARK    2  A    between atoms: N1_5  and  N2_7 
REMARK    3  A    between atoms: C6_13  and  N4_14 
ROOT
HETATM    1  N2  UNL     1       9.429  61.615   8.341  1.00  0.00    -0.130 N 
ATOM      2  H2  UNL     1       9.313  60.636   8.079  1.00  0.00     0.205 HD
HETATM    3  C4  UNL     1      10.458  61.822   9.050  1.00  0.00     0.716 A 
HETATM    4  N3  UNL     1      11.261  60.750   9.366  1.00  0.00    -0.169 N 
ATOM      5  H3  UNL     1      11.108  59.782   9.083  1.00  0.00     0.186 HD
HETATM    6  C5  UNL     1      12.264  61.192  10.102  1.00  0.00     0.196 A 
HETATM    7  C6  UNL     1      13.316  60.452  10.643  1.00  0.00     0.172 A 
HETATM    8  C7  UNL     1      14.240  61.141  11.373  1.00  0.00     0.059 A 
HETATM    9  C8  UNL     1      15.390  60.390  11.976  1.00  0.00     0.071 C 
HETATM   10  N5  UNL     1      14.125  62.452  11.549  1.00  0.00    -0.192 N 
ATOM     11  H5  UNL     1      14.825  62.950  12.099  1.00  0.00     0.184 HD
HETATM   12  C9  UNL     1      13.083  63.140  11.004  1.00  0.00     0.700 A 
HETATM   13  N6  UNL     1      13.053  64.376  11.221  1.00  0.00    -0.233 N 
ATOM     14  H61 UNL     1      12.274  64.891  10.812  1.00  0.00     0.174 HD
ATOM     15  H62 UNL     1      13.772  64.842  11.775  1.00  0.00     0.174 HD
HETATM   16  N7  UNL     1      12.132  62.522  10.270  1.00  0.00    -0.051 N 
HETATM   17  N8  UNL     1      11.019  62.900   9.619  1.00  0.00    -0.104 N 
HETATM   18  C10 UNL     1      10.518  64.229   9.549  1.00  0.00     0.199 C 
ENDROOT
BRANCH   1  19
HETATM   19  N1  UNL     1       8.460  62.405   7.864  1.00  0.00    -0.288 N 
HETATM   20  C2  UNL     1       8.552  63.250   6.896  1.00  0.00     0.060 C 
HETATM   21  C1  UNL     1       7.317  64.009   6.560  1.00  0.00     0.073 C 
ATOM     22  H1  UNL     1       7.549  62.329   8.316  1.00  0.00     0.187 HD
BRANCH  20  23
HETATM   23  C3  UNL     1       9.804  63.411   6.214  1.00  0.00     0.284 C 
HETATM   24  O1  UNL     1      10.425  64.507   6.141  1.00  0.00    -0.300 OA
ENDBRANCH  20  23
ENDBRANCH   1  19
BRANCH   7  25
HETATM   25  N4  UNL     1      13.412  59.060  10.440  1.00  0.00    -0.110 N 
HETATM   26  O2  UNL     1      12.397  58.343  10.591  1.00  0.00    -0.532 OA
HETATM   27  O3  UNL     1      14.599  58.450  10.078  1.00  0.00    -0.532 OA
ENDBRANCH   7  25
TORSDOF 3
ENDMDL
MODEL 4
REMARK VINA RESULT: -3.938276905      8.692      9.467
REMARK  3 active torsions:
REMARK  status: ('A' for Active; 'I' for Inactive)
REMARK    1  A    between atoms: C2_2  and  C3_3 
REMARK    2  A    between atoms: N1_5  and  N2_7 
REMARK    3  A    between atoms: C6_13  and  N4_14 
ROOT
HETATM    1  N2  UNL     1      13.230  61.067  10.728  1.00  0.00    -0.130 N 
ATOM      2  H2  UNL     1      13.857  61.870  10.760  1.00  0.00     0.205 HD
HETATM    3  C4  UNL     1      12.157  61.298  10.095  1.00  0.00     0.716 A 
HETATM    4  N3  UNL     1      11.975  62.550   9.551  1.00  0.00    -0.169 N 
ATOM      5  H3  UNL     1      12.631  63.328   9.608  1.00  0.00     0.186 HD
HETATM    6  C5  UNL     1      10.803  62.566   8.944  1.00  0.00     0.196 A 
HETATM    7  C6  UNL     1      10.214  63.629   8.258  1.00  0.00     0.172 A 
HETATM    8  C7  UNL     1       8.985  63.400   7.710  1.00  0.00     0.059 A 
HETATM    9  C8  UNL     1       8.309  64.511   6.963  1.00  0.00     0.071 C 
HETATM   10  N5  UNL     1       8.397  62.216   7.835  1.00  0.00    -0.192 N 
ATOM     11  H5  UNL     1       7.478  62.064   7.420  1.00  0.00     0.184 HD
HETATM   12  C9  UNL     1       9.005  61.202   8.512  1.00  0.00     0.700 A 
HETATM   13  N6  UNL     1       8.377  60.118   8.581  1.00  0.00    -0.233 N 
ATOM     14  H61 UNL     1       8.833  59.359   9.087  1.00  0.00     0.174 HD
ATOM     15  H62 UNL     1       7.460  60.000   8.152  1.00  0.00     0.174 HD
HETATM   16  N7  UNL     1      10.221  61.359   9.080  1.00  0.00    -0.051 N 
HETATM   17  N8  UNL     1      11.061  60.587   9.789  1.00  0.00    -0.104 N 
HETATM   18  C10 UNL     1      10.823  59.233  10.156  1.00  0.00     0.199 C 
ENDROOT
BRANCH   1  19
HETATM   19  N1  UNL     1      13.715  59.994  11.363  1.00  0.00    -0.288 N 
HETATM   20  C2  UNL     1      14.827  59.388  11.130  1.00  0.00     0.060 C 
HETATM   21  C1  UNL     1      15.134  58.211  11.987  1.00  0.00     0.073 C 
ATOM     22  H1  UNL     1      13.141  59.615  12.116  1.00  0.00     0.187 HD
BRANCH  20  23
HETATM   23  C3  UNL     1      15.686  59.865  10.084  1.00  0.00     0.284 C 
HETATM   24  O1  UNL     1      16.601  60.716  10.265  1.00  0.00    -0.300 OA
ENDBRANCH  20  23
ENDBRANCH   1  19
BRANCH   7  25
HETATM   25  N4  UNL     1      10.862  64.876   8.142  1.00  0.00    -0.110 N 
HETATM   26  O2  UNL     1      11.078  65.556   9.170  1.00  0.00    -0.532 OA
HETATM   27  O3  UNL     1      11.271  65.380   6.922  1.00  0.00    -0.532 OA
ENDBRANCH   7  25
TORSDOF 3
ENDMDL
MODEL 5
REMARK VINA RESULT: -3.881182141      9.081      9.900
REMARK  3 active torsions:
REMARK  status: ('A' for Active; 'I' for Inactive)
REMARK    1  A    between atoms: C2_2  and  C3_3 
REMARK    2  A    between atoms: N1_5  and  N2_7 
REMARK    3  A    between atoms: C6_13  and  N4_14 
ROOT
HETATM    1  N2  UNL     1      12.730  60.288   9.762  1.00  0.00    -0.130 N 
ATOM      2  H2  UNL     1      12.285  59.630   9.122  1.00  0.00     0.205 HD
HETATM    3  C4  UNL     1      12.198  61.437   9.743  1.00  0.00     0.716 A 
HETATM    4  N3  UNL     1      11.132  61.651   8.898  1.00  0.00    -0.169 N 
ATOM      5  H3  UNL     1      10.718  60.963   8.270  1.00  0.00     0.186 HD
HETATM    6  C5  UNL     1      10.741  62.904   9.042  1.00  0.00     0.196 A 
HETATM    7  C6  UNL     1       9.694  63.551   8.383  1.00  0.00     0.172 A 
HETATM    8  C7  UNL     1       9.482  64.860   8.704  1.00  0.00     0.059 A 
HETATM    9  C8  UNL     1       8.370  65.600   8.023  1.00  0.00     0.071 C 
HETATM   10  N5  UNL     1      10.245  65.469   9.604  1.00  0.00    -0.192 N 
ATOM     11  H5  UNL     1      10.072  66.448   9.832  1.00  0.00     0.184 HD
HETATM   12  C9  UNL     1      11.257  64.803  10.228  1.00  0.00     0.700 A 
HETATM   13  N6  UNL     1      11.927  65.456  11.063  1.00  0.00    -0.233 N 
ATOM     14  H61 UNL     1      12.685  64.958  11.530  1.00  0.00     0.174 HD
ATOM     15  H62 UNL     1      11.725  66.435  11.267  1.00  0.00     0.174 HD
HETATM   16  N7  UNL     1      11.524  63.506   9.957  1.00  0.00    -0.051 N 
HETATM   17  N8  UNL     1      12.416  62.597  10.382  1.00  0.00    -0.104 N 
HETATM   18  C10 UNL     1      13.430  62.829  11.352  1.00  0.00     0.199 C 
ENDROOT
BRANCH   1  19
HETATM   19  N1  UNL     1      13.749  59.752  10.442  1.00  0.00    -0.288 N 
HETATM   20  C2  UNL     1      13.779  58.604  11.025  1.00  0.00     0.060 C 
HETATM   21  C1  UNL     1      15.046  58.243  11.718  1.00  0.00     0.073 C 
ATOM     22  H1  UNL     1      14.598  60.315  10.506  1.00  0.00     0.187 HD
BRANCH  20  23
HETATM   23  C3  UNL     1      12.621  57.757  10.978  1.00  0.00     0.284 C 
HETATM   24  O1  UNL     1      12.145  57.166  11.987  1.00  0.00    -0.300 OA
ENDBRANCH  20  23
ENDBRANCH   1  19
BRANCH   7  25
HETATM   25  N4  UNL     1       8.901  62.878   7.431  1.00  0.00    -0.110 N 
HETATM   26  O2  UNL     1       8.173  61.928   7.797  1.00  0.00    -0.532 OA
HETATM   27  O3  UNL     1       8.899  63.231   6.094  1.00  0.00    -0.532 OA
ENDBRANCH   7  25
TORSDOF 3
ENDMDL
