MODEL 1
REMARK VINA RESULT: -4.943934087      0.000      0.000
REMARK  6 active torsions:
REMARK  status: ('A' for Active; 'I' for Inactive)
REMARK    1  A    between atoms: O1_2  and  C2_3 
REMARK    2  A    between atoms: C2_3  and  O2_4 
REMARK    3  A    between atoms: C2_3  and  C3_6 
REMARK    4  A    between atoms: C6_9  and  C7_10 
REMARK    5  A    between atoms: N2_14  and  O4_15 
REMARK    6  A    between atoms: C11_25  and  N5_26 
ROOT
HETATM    1  C3  UNL     1      10.912  63.705   9.897  1.00  0.00     0.041 A 
HETATM    2  C4  UNL     1      11.220  62.475  10.459  1.00  0.00    -0.019 A 
HETATM    3  C5  UNL     1      11.907  62.367  11.751  1.00  0.00     0.051 C 
HETATM    4  C6  UNL     1      10.886  61.313   9.755  1.00  0.00     0.071 A 
HETATM    5  N3  UNL     1      10.282  61.466   8.563  1.00  0.00    -0.338 N 
ATOM      6  H3  UNL     1      10.038  60.620   8.049  1.00  0.00     0.167 HD
HETATM    7  C10 UNL     1       9.969  62.657   7.988  1.00  0.00     0.133 A 
HETATM    8  N4  UNL     1       9.374  62.708   6.822  1.00  0.00    -0.383 N 
ATOM      9  H41 UNL     1       9.139  63.602   6.390  1.00  0.00     0.157 HD
ATOM     10  H42 UNL     1       9.139  61.850   6.323  1.00  0.00     0.157 HD
HETATM   11  C11 UNL     1      10.286  63.813   8.659  1.00  0.00     0.158 A 
ENDROOT
BRANCH   4  12
HETATM   12  C7  UNL     1      11.203  60.003  10.314  1.00  0.00     0.111 A 
HETATM   13  N1  UNL     1      10.332  59.162  10.950  1.00  0.00    -0.235 N 
HETATM   14  O3  UNL     1      10.922  58.094  11.341  1.00  0.00    -0.128 OA
ATOM     15  H1  UNL     1       9.342  59.359  11.094  1.00  0.00     0.197 HD
HETATM   16  N2  UNL     1      12.171  58.130  11.015  1.00  0.00    -0.104 N 
HETATM   17  C8  UNL     1      12.386  59.325  10.363  1.00  0.00     0.095 A 
HETATM   18  C9  UNL     1      13.717  59.671   9.869  1.00  0.00     0.076 C 
BRANCH  16  19
HETATM   19  O4  UNL     1      13.086  57.159  11.276  1.00  0.00    -0.261 OA
ATOM     20  H4  UNL     1      13.485  56.587  10.632  1.00  0.00     0.247 HD
ENDBRANCH  16  19
ENDBRANCH   4  12
BRANCH   1  21
HETATM   21  C2  UNL     1      11.198  64.983  10.572  1.00  0.00     0.293 C 
BRANCH  21  22
HETATM   22  O1  UNL     1      12.592  65.159  10.551  1.00  0.00    -0.362 OA
HETATM   23  C1  UNL     1      13.103  65.599  11.749  1.00  0.00     0.205 C 
ENDBRANCH  21  22
BRANCH  21  24
HETATM   24  O2  UNL     1      10.788  64.897  11.923  1.00  0.00    -0.367 OA
ATOM     25  H2  UNL     1       9.980  64.399  11.954  1.00  0.00     0.213 HD
ENDBRANCH  21  24
ENDBRANCH   1  21
BRANCH  11  26
HETATM   26  N5  UNL     1       9.941  65.028   8.030  1.00  0.00    -0.111 N 
HETATM   27  O5  UNL     1      10.740  65.595   7.286  1.00  0.00    -0.532 OA
HETATM   28  O6  UNL     1       8.709  65.567   8.243  1.00  0.00    -0.532 OA
ENDBRANCH  11  26
TORSDOF 6
ENDMDL
MODEL 2
REMARK VINA RESULT: -4.664415799      1.652      3.115
REMARK  6 active torsions:
REMARK  status: ('A' for Active; 'I' for Inactive)
REMARK    1  A    between atoms: O1_2  and  C2_3 
REMARK    2  A    between atoms: C2_3  and  O2_4 
REMARK    3  A    between atoms: C2_3  and  C3_6 
REMARK    4  A    between atoms: C6_9  and  C7_10 
REMARK    5  A    between atoms: N2_14  and  O4_15 
REMARK    6  A    between atoms: C11_25  and  N5_26 
ROOT
HETATM    1  C3  UNL     1       9.939  62.527   8.633  1.00  0.00     0.041 A 
HETATM    2  C4  UNL     1      10.223  61.276   9.162  1.00  0.00    -0.019 A 
HETATM    3  C5  UNL     1       9.609  60.054   8.628  1.00  0.00     0.051 C 
HETATM    4  C6  UNL     1      11.099  61.190  10.248  1.00  0.00     0.071 A 
HETATM    5  N3  UNL     1      11.615  62.341  10.717  1.00  0.00    -0.338 N 
ATOM      6  H3  UNL     1      12.254  62.280  11.510  1.00  0.00     0.167 HD
HETATM    7  C10 UNL     1      11.354  63.578  10.221  1.00  0.00     0.133 A 
HETATM    8  N4  UNL     1      11.908  64.645  10.742  1.00  0.00    -0.383 N 
ATOM      9  H41 UNL     1      11.712  65.575  10.369  1.00  0.00     0.157 HD
ATOM     10  H42 UNL     1      12.544  64.563  11.534  1.00  0.00     0.157 HD
HETATM   11  C11 UNL     1      10.497  63.689   9.153  1.00  0.00     0.158 A 
ENDROOT
BRANCH   4  12
HETATM   12  C7  UNL     1      11.413  59.891  10.834  1.00  0.00     0.111 A 
HETATM   13  N1  UNL     1      10.583  59.131  11.611  1.00  0.00    -0.235 N 
HETATM   14  O3  UNL     1      11.160  58.051  11.985  1.00  0.00    -0.128 OA
ATOM     15  H1  UNL     1       9.629  59.391  11.861  1.00  0.00     0.197 HD
HETATM   16  N2  UNL     1      12.361  57.999  11.513  1.00  0.00    -0.104 N 
HETATM   17  C8  UNL     1      12.557  59.149  10.778  1.00  0.00     0.095 A 
HETATM   18  C9  UNL     1      13.834  59.395  10.113  1.00  0.00     0.076 C 
BRANCH  16  19
HETATM   19  O4  UNL     1      13.249  56.990  11.714  1.00  0.00    -0.261 OA
ATOM     20  H4  UNL     1      14.004  56.800  11.171  1.00  0.00     0.247 HD
ENDBRANCH  16  19
ENDBRANCH   4  12
BRANCH   1  21
HETATM   21  C2  UNL     1       9.051  62.717   7.473  1.00  0.00     0.293 C 
BRANCH  21  22
HETATM   22  O1  UNL     1       9.782  63.425   6.504  1.00  0.00    -0.362 OA
HETATM   23  C1  UNL     1       8.987  64.109   5.615  1.00  0.00     0.205 C 
ENDBRANCH  21  22
BRANCH  21  24
HETATM   24  O2  UNL     1       7.947  63.514   7.858  1.00  0.00    -0.367 OA
ATOM     25  H2  UNL     1       7.566  63.131   8.638  1.00  0.00     0.213 HD
ENDBRANCH  21  24
ENDBRANCH   1  21
BRANCH  11  26
HETATM   26  N5  UNL     1      10.255  64.991   8.665  1.00  0.00    -0.111 N 
HETATM   27  O5  UNL     1       9.237  65.600   8.989  1.00  0.00    -0.532 OA
HETATM   28  O6  UNL     1      11.166  65.576   7.838  1.00  0.00    -0.532 OA
ENDBRANCH  11  26
TORSDOF 6
ENDMDL
MODEL 3
REMARK VINA RESULT: -4.609426171      0.809      1.325
REMARK  6 active torsions:
REMARK  status: ('A' for Active; 'I' for Inactive)
REMARK    1  A    between atoms: O1_2  and  C2_3 
REMARK    2  A    between atoms: C2_3  and  O2_4 
REMARK    3  A    between atoms: C2_3  and  C3_6 
REMARK    4  A    between atoms: C6_9  and  C7_10 
REMARK    5  A    between atoms: N2_14  and  O4_15 
REMARK    6  A    between atoms: C11_25  and  N5_26 
ROOT
HETATM    1  C3  UNL     1      10.968  63.520   9.725  1.00  0.00     0.041 A 
HETATM    2  C4  UNL     1      11.355  62.354  10.369  1.00  0.00    -0.019 A 
HETATM    3  C5  UNL     1      12.244  62.376  11.537  1.00  0.00     0.051 C 
HETATM    4  C6  UNL     1      10.901  61.128   9.870  1.00  0.00     0.071 A 
HETATM    5  N3  UNL     1      10.110  61.161   8.782  1.00  0.00    -0.338 N 
ATOM      6  H3  UNL     1       9.779  60.268   8.417  1.00  0.00     0.167 HD
HETATM    7  C10 UNL     1       9.717  62.286   8.131  1.00  0.00     0.133 A 
HETATM    8  N4  UNL     1       8.939  62.219   7.078  1.00  0.00    -0.383 N 
ATOM      9  H41 UNL     1       8.643  63.064   6.589  1.00  0.00     0.157 HD
ATOM     10  H42 UNL     1       8.618  61.317   6.728  1.00  0.00     0.157 HD
HETATM   11  C11 UNL     1      10.148  63.502   8.601  1.00  0.00     0.158 A 
ENDROOT
BRANCH   4  12
HETATM   12  C7  UNL     1      11.296  59.883  10.519  1.00  0.00     0.111 A 
HETATM   13  N1  UNL     1      10.506  59.097  11.313  1.00  0.00    -0.235 N 
HETATM   14  O3  UNL     1      11.151  58.080  11.746  1.00  0.00    -0.128 OA
ATOM     15  H1  UNL     1       9.530  59.296  11.531  1.00  0.00     0.197 HD
HETATM   16  N2  UNL     1      12.364  58.098  11.301  1.00  0.00    -0.104 N 
HETATM   17  C8  UNL     1      12.492  59.226  10.520  1.00  0.00     0.095 A 
HETATM   18  C9  UNL     1      13.763  59.537   9.871  1.00  0.00     0.076 C 
BRANCH  16  19
HETATM   19  O4  UNL     1      13.319  57.167  11.565  1.00  0.00    -0.261 OA
ATOM     20  H4  UNL     1      14.069  56.973  11.017  1.00  0.00     0.247 HD
ENDBRANCH  16  19
ENDBRANCH   4  12
BRANCH   1  21
HETATM   21  C2  UNL     1      11.371  64.858  10.191  1.00  0.00     0.293 C 
BRANCH  21  22
HETATM   22  O1  UNL     1      10.212  65.499  10.658  1.00  0.00    -0.362 OA
HETATM   23  C1  UNL     1       9.912  65.197  11.965  1.00  0.00     0.205 C 
ENDBRANCH  21  22
BRANCH  21  24
HETATM   24  O2  UNL     1      11.872  65.600   9.096  1.00  0.00    -0.367 OA
ATOM     25  H2  UNL     1      11.881  65.032   8.335  1.00  0.00     0.213 HD
ENDBRANCH  21  24
ENDBRANCH   1  21
BRANCH  11  26
HETATM   26  N5  UNL     1       9.714  64.646   7.899  1.00  0.00    -0.111 N 
HETATM   27  O5  UNL     1       8.759  65.305   8.308  1.00  0.00    -0.532 OA
HETATM   28  O6  UNL     1      10.369  65.026   6.767  1.00  0.00    -0.532 OA
ENDBRANCH  11  26
TORSDOF 6
ENDMDL
MODEL 4
REMARK VINA RESULT: -3.903321212      2.616      3.927
REMARK  6 active torsions:
REMARK  status: ('A' for Active; 'I' for Inactive)
REMARK    1  A    between atoms: O1_2  and  C2_3 
REMARK    2  A    between atoms: C2_3  and  O2_4 
REMARK    3  A    between atoms: C2_3  and  C3_6 
REMARK    4  A    between atoms: C6_9  and  C7_10 
REMARK    5  A    between atoms: N2_14  and  O4_15 
REMARK    6  A    between atoms: C11_25  and  N5_26 
ROOT
HETATM    1  C3  UNL     1      11.281  62.386   9.871  1.00  0.00     0.041 A 
HETATM    2  C4  UNL     1      12.058  61.250  10.041  1.00  0.00    -0.019 A 
HETATM    3  C5  UNL     1      11.709  59.973   9.407  1.00  0.00     0.051 C 
HETATM    4  C6  UNL     1      13.188  61.326  10.862  1.00  0.00     0.071 A 
HETATM    5  N3  UNL     1      13.450  62.512  11.441  1.00  0.00    -0.338 N 
ATOM      6  H3  UNL     1      14.273  62.570  12.040  1.00  0.00     0.167 HD
HETATM    7  C10 UNL     1      12.706  63.640  11.294  1.00  0.00     0.133 A 
HETATM    8  N4  UNL     1      13.042  64.754  11.896  1.00  0.00    -0.383 N 
ATOM      9  H41 UNL     1      12.484  65.601  11.785  1.00  0.00     0.157 HD
ATOM     10  H42 UNL     1      13.870  64.791  12.491  1.00  0.00     0.157 HD
HETATM   11  C11 UNL     1      11.592  63.590  10.493  1.00  0.00     0.158 A 
ENDROOT
BRANCH   4  12
HETATM   12  C7  UNL     1      14.023  60.148  11.069  1.00  0.00     0.111 A 
HETATM   13  N1  UNL     1      13.593  58.851  11.131  1.00  0.00    -0.235 N 
HETATM   14  O3  UNL     1      14.569  58.049  11.341  1.00  0.00    -0.128 OA
ATOM     15  H1  UNL     1      12.621  58.561  11.023  1.00  0.00     0.197 HD
HETATM   16  N2  UNL     1      15.676  58.708  11.431  1.00  0.00    -0.104 N 
HETATM   17  C8  UNL     1      15.369  60.041  11.264  1.00  0.00     0.095 A 
HETATM   18  C9  UNL     1      16.419  61.056  11.321  1.00  0.00     0.076 C 
BRANCH  16  19
HETATM   19  O4  UNL     1      16.904  58.167  11.650  1.00  0.00    -0.261 OA
ATOM     20  H4  UNL     1      17.732  58.548  11.384  1.00  0.00     0.247 HD
ENDBRANCH  16  19
ENDBRANCH   4  12
BRANCH   1  21
HETATM   21  C2  UNL     1      10.088  62.412   9.005  1.00  0.00     0.293 C 
BRANCH  21  22
HETATM   22  O1  UNL     1       9.375  61.227   9.249  1.00  0.00    -0.362 OA
HETATM   23  C1  UNL     1       8.629  60.809   8.172  1.00  0.00     0.205 C 
ENDBRANCH  21  22
BRANCH  21  24
HETATM   24  O2  UNL     1      10.497  62.406   7.651  1.00  0.00    -0.367 OA
ATOM     25  H2  UNL     1      11.416  62.643   7.620  1.00  0.00     0.213 HD
ENDBRANCH  21  24
ENDBRANCH   1  21
BRANCH  11  26
HETATM   26  N5  UNL     1      10.849  64.783  10.362  1.00  0.00    -0.111 N 
HETATM   27  O5  UNL     1      10.010  65.092  11.207  1.00  0.00    -0.532 OA
HETATM   28  O6  UNL     1      11.076  65.600   9.296  1.00  0.00    -0.532 OA
ENDBRANCH  11  26
TORSDOF 6
ENDMDL
MODEL 5
REMARK VINA RESULT: -3.791453539      3.107      4.562
REMARK  6 active torsions:
REMARK  status: ('A' for Active; 'I' for Inactive)
REMARK    1  A    between atoms: O1_2  and  C2_3 
REMARK    2  A    between atoms: C2_3  and  O2_4 
REMARK    3  A    between atoms: C2_3  and  C3_6 
REMARK    4  A    between atoms: C6_9  and  C7_10 
REMARK    5  A    between atoms: N2_14  and  O4_15 
REMARK    6  A    between atoms: C11_25  and  N5_26 
ROOT
HETATM    1  C3  UNL     1      11.985  61.089  10.528  1.00  0.00     0.041 A 
HETATM    2  C4  UNL     1      13.003  60.159  10.682  1.00  0.00    -0.019 A 
HETATM    3  C5  UNL     1      12.789  58.731  10.419  1.00  0.00     0.051 C 
HETATM    4  C6  UNL     1      14.254  60.600  11.124  1.00  0.00     0.071 A 
HETATM    5  N3  UNL     1      14.391  61.914  11.376  1.00  0.00    -0.338 N 
ATOM      6  H3  UNL     1      15.303  62.238  11.698  1.00  0.00     0.167 HD
HETATM    7  C10 UNL     1      13.413  62.847  11.236  1.00  0.00     0.133 A 
HETATM    8  N4  UNL     1      13.641  64.110  11.502  1.00  0.00    -0.383 N 
ATOM      9  H41 UNL     1      12.907  64.810  11.396  1.00  0.00     0.157 HD
ATOM     10  H42 UNL     1      14.560  64.413  11.824  1.00  0.00     0.157 HD
HETATM   11  C11 UNL     1      12.176  62.439  10.803  1.00  0.00     0.158 A 
ENDROOT
BRANCH   4  12
HETATM   12  C7  UNL     1      15.344  59.647  11.304  1.00  0.00     0.111 A 
HETATM   13  N1  UNL     1      15.280  58.462  11.985  1.00  0.00    -0.235 N 
HETATM   14  O3  UNL     1      16.411  57.862  11.977  1.00  0.00    -0.128 OA
ATOM     15  H1  UNL     1      14.441  58.104  12.441  1.00  0.00     0.197 HD
HETATM   16  N2  UNL     1      17.280  58.557  11.322  1.00  0.00    -0.104 N 
HETATM   17  C8  UNL     1      16.640  59.695  10.881  1.00  0.00     0.095 A 
HETATM   18  C9  UNL     1      17.365  60.699  10.106  1.00  0.00     0.076 C 
BRANCH  16  19
HETATM   19  O4  UNL     1      18.579  58.212  11.118  1.00  0.00    -0.261 OA
ATOM     20  H4  UNL     1      19.238  58.109  11.795  1.00  0.00     0.247 HD
ENDBRANCH  16  19
ENDBRANCH   4  12
BRANCH   1  21
HETATM   21  C2  UNL     1      10.642  60.727  10.043  1.00  0.00     0.293 C 
BRANCH  21  22
HETATM   22  O1  UNL     1      10.426  61.442   8.853  1.00  0.00    -0.362 OA
HETATM   23  C1  UNL     1       9.248  61.111   8.226  1.00  0.00     0.205 C 
ENDBRANCH  21  22
BRANCH  21  24
HETATM   24  O2  UNL     1       9.677  61.146  10.988  1.00  0.00    -0.367 OA
ATOM     25  H2  UNL     1      10.056  61.847  11.504  1.00  0.00     0.213 HD
ENDBRANCH  21  24
ENDBRANCH   1  21
BRANCH  11  26
HETATM   26  N5  UNL     1      11.188  63.439  10.666  1.00  0.00    -0.111 N 
HETATM   27  O5  UNL     1      10.410  63.677  11.588  1.00  0.00    -0.532 OA
HETATM   28  O6  UNL     1      11.111  64.150   9.507  1.00  0.00    -0.532 OA
ENDBRANCH  11  26
TORSDOF 6
ENDMDL
