MODEL 1
REMARK VINA RESULT: -6.827631364      0.000      0.000
REMARK  8 active torsions:
REMARK  status: ('A' for Active; 'I' for Inactive)
REMARK    1  A    between atoms: N1_2  and  N2_3 
REMARK    2  A    between atoms: N1_2  and  C8_23 
REMARK    3  A    between atoms: N2_3  and  N3_5 
REMARK    4  A    between atoms: N3_5  and  C2_7 
REMARK    5  A    between atoms: C5_10  and  N4_11 
REMARK    6  A    between atoms: C6_14  and  N5_15 
REMARK    7  A    between atoms: N5_15  and  N6_16 
REMARK    8  A    between atoms: N5_15  and  N7_19 
ROOT
HETATM    1  C2  UNL     1       7.801  55.988   3.509  1.00  0.00     0.051 A 
HETATM    2  C3  UNL     1       8.642  56.804   4.226  1.00  0.00     0.033 A 
HETATM    3  C4  UNL     1       9.904  56.378   4.490  1.00  0.00     0.041 A 
HETATM    4  C5  UNL     1      10.355  55.110   4.038  1.00  0.00     0.133 A 
HETATM    5  C6  UNL     1       9.536  54.287   3.320  1.00  0.00     0.108 A 
HETATM    6  C7  UNL     1       8.229  54.765   3.066  1.00  0.00     0.066 A 
ENDROOT
BRANCH   1   7
HETATM    7  N3  UNL     1       6.467  56.434   3.246  1.00  0.00    -0.286 N 
ATOM      8  H3  UNL     1       5.682  56.169   3.841  1.00  0.00     0.188 HD
BRANCH   7   9
HETATM    9  N2  UNL     1       6.314  57.192   2.213  1.00  0.00    -0.238 N 
ATOM     10  H2  UNL     1       7.073  57.260   1.535  1.00  0.00     0.208 HD
BRANCH   9  11
HETATM   11  N1  UNL     1       5.162  57.909   1.994  1.00  0.00    -0.253 N 
HETATM   12  C1  UNL     1       3.936  57.554   2.677  1.00  0.00     0.182 C 
BRANCH  11  13
HETATM   13  C8  UNL     1       5.118  59.025   1.108  1.00  0.00     0.193 C 
HETATM   14  N8  UNL     1       6.076  59.791   0.732  1.00  0.00    -0.359 N 
HETATM   15  C9  UNL     1       5.626  60.825  -0.185  1.00  0.00     0.142 C 
ATOM     16  H8  UNL     1       7.042  59.686   1.040  1.00  0.00     0.162 HD
HETATM   17  C10 UNL     1       4.215  60.376  -0.573  1.00  0.00     0.142 C 
HETATM   18  N9  UNL     1       3.901  59.435   0.489  1.00  0.00    -0.359 N 
ATOM     19  H9  UNL     1       2.967  59.121   0.748  1.00  0.00     0.162 HD
ENDBRANCH  11  13
ENDBRANCH   9  11
ENDBRANCH   7   9
ENDBRANCH   1   7
BRANCH   5  20
HETATM   20  N5  UNL     1       9.928  53.065   2.757  1.00  0.00    -0.207 N 
BRANCH  20  21
HETATM   21  N6  UNL     1      10.094  53.048   1.321  1.00  0.00    -0.324 N 
ATOM     22  H62 UNL     1      10.037  53.947   0.844  1.00  0.00     0.178 HD
ATOM     23  H61 UNL     1      10.224  52.131   0.895  1.00  0.00     0.178 HD
ENDBRANCH  20  21
BRANCH  20  24
HETATM   24  N7  UNL     1      10.212  51.902   3.421  1.00  0.00    -0.324 N 
ATOM     25  H72 UNL     1      10.028  51.892   4.425  1.00  0.00     0.178 HD
ATOM     26  H71 UNL     1      10.557  51.031   3.019  1.00  0.00     0.178 HD
ENDBRANCH  20  24
ENDBRANCH   5  20
BRANCH   4  27
HETATM   27  N4  UNL     1      11.674  54.808   4.408  1.00  0.00    -0.113 N 
HETATM   28  O1  UNL     1      12.670  55.388   4.035  1.00  0.00    -0.532 OA
HETATM   29  O2  UNL     1      11.889  53.680   5.206  1.00  0.00    -0.532 OA
ENDBRANCH   4  27
TORSDOF 8
ENDMDL
MODEL 2
REMARK VINA RESULT: -6.418777909      3.546      5.391
REMARK  8 active torsions:
REMARK  status: ('A' for Active; 'I' for Inactive)
REMARK    1  A    between atoms: N1_2  and  N2_3 
REMARK    2  A    between atoms: N1_2  and  C8_23 
REMARK    3  A    between atoms: N2_3  and  N3_5 
REMARK    4  A    between atoms: N3_5  and  C2_7 
REMARK    5  A    between atoms: C5_10  and  N4_11 
REMARK    6  A    between atoms: C6_14  and  N5_15 
REMARK    7  A    between atoms: N5_15  and  N6_16 
REMARK    8  A    between atoms: N5_15  and  N7_19 
ROOT
HETATM    1  C2  UNL     1       4.905  58.816   0.811  1.00  0.00     0.051 A 
HETATM    2  C3  UNL     1       3.890  58.834   1.736  1.00  0.00     0.033 A 
HETATM    3  C4  UNL     1       4.073  58.205   2.925  1.00  0.00     0.041 A 
HETATM    4  C5  UNL     1       5.292  57.536   3.216  1.00  0.00     0.133 A 
HETATM    5  C6  UNL     1       6.314  57.511   2.311  1.00  0.00     0.108 A 
HETATM    6  C7  UNL     1       6.085  58.177   1.083  1.00  0.00     0.066 A 
ENDROOT
BRANCH   1   7
HETATM    7  N3  UNL     1       4.702  59.468  -0.447  1.00  0.00    -0.286 N 
ATOM      8  H3  UNL     1       3.950  59.195  -1.080  1.00  0.00     0.188 HD
BRANCH   7   9
HETATM    9  N2  UNL     1       5.523  60.421  -0.733  1.00  0.00    -0.238 N 
ATOM     10  H2  UNL     1       6.525  60.230  -0.714  1.00  0.00     0.208 HD
BRANCH   9  11
HETATM   11  N1  UNL     1       5.094  61.684  -1.064  1.00  0.00    -0.253 N 
HETATM   12  C1  UNL     1       3.748  61.897  -1.552  1.00  0.00     0.182 C 
BRANCH  11  13
HETATM   13  C8  UNL     1       5.933  62.830  -0.939  1.00  0.00     0.193 C 
HETATM   14  N8  UNL     1       5.607  64.071  -0.961  1.00  0.00    -0.359 N 
HETATM   15  C9  UNL     1       6.757  64.945  -0.801  1.00  0.00     0.142 C 
ATOM     16  H8  UNL     1       4.650  64.406  -1.079  1.00  0.00     0.162 HD
HETATM   17  C10 UNL     1       7.873  63.997  -0.353  1.00  0.00     0.142 C 
HETATM   18  N9  UNL     1       7.340  62.705  -0.751  1.00  0.00    -0.359 N 
ATOM     19  H9  UNL     1       7.883  61.851  -0.876  1.00  0.00     0.162 HD
ENDBRANCH  11  13
ENDBRANCH   9  11
ENDBRANCH   7   9
ENDBRANCH   1   7
BRANCH   5  20
HETATM   20  N5  UNL     1       7.578  56.956   2.551  1.00  0.00    -0.207 N 
BRANCH  20  21
HETATM   21  N6  UNL     1       7.771  55.594   2.107  1.00  0.00    -0.324 N 
ATOM     22  H62 UNL     1       7.263  54.871   2.617  1.00  0.00     0.178 HD
ATOM     23  H61 UNL     1       8.428  55.460   1.339  1.00  0.00     0.178 HD
ENDBRANCH  20  21
BRANCH  20  24
HETATM   24  N7  UNL     1       8.659  57.576   3.117  1.00  0.00    -0.324 N 
ATOM     25  H72 UNL     1       8.608  57.759   4.119  1.00  0.00     0.178 HD
ATOM     26  H71 UNL     1       9.527  57.847   2.654  1.00  0.00     0.178 HD
ENDBRANCH  20  24
ENDBRANCH   5  20
BRANCH   4  27
HETATM   27  N4  UNL     1       5.317  56.919   4.475  1.00  0.00    -0.113 N 
HETATM   28  O1  UNL     1       4.391  56.347   5.008  1.00  0.00    -0.532 OA
HETATM   29  O2  UNL     1       6.479  57.045   5.244  1.00  0.00    -0.532 OA
ENDBRANCH   4  27
TORSDOF 8
ENDMDL
MODEL 3
REMARK VINA RESULT: -6.325997222      1.558      2.685
REMARK  8 active torsions:
REMARK  status: ('A' for Active; 'I' for Inactive)
REMARK    1  A    between atoms: N1_2  and  N2_3 
REMARK    2  A    between atoms: N1_2  and  C8_23 
REMARK    3  A    between atoms: N2_3  and  N3_5 
REMARK    4  A    between atoms: N3_5  and  C2_7 
REMARK    5  A    between atoms: C5_10  and  N4_11 
REMARK    6  A    between atoms: C6_14  and  N5_15 
REMARK    7  A    between atoms: N5_15  and  N6_16 
REMARK    8  A    between atoms: N5_15  and  N7_19 
ROOT
HETATM    1  C2  UNL     1       8.606  56.173   3.705  1.00  0.00     0.051 A 
HETATM    2  C3  UNL     1       7.963  55.204   2.974  1.00  0.00     0.033 A 
HETATM    3  C4  UNL     1       8.596  54.025   2.746  1.00  0.00     0.041 A 
HETATM    4  C5  UNL     1       9.902  53.789   3.251  1.00  0.00     0.133 A 
HETATM    5  C6  UNL     1      10.556  54.738   3.984  1.00  0.00     0.108 A 
HETATM    6  C7  UNL     1       9.864  55.954   4.199  1.00  0.00     0.066 A 
ENDROOT
BRANCH   1   7
HETATM    7  N3  UNL     1       7.941  57.420   3.930  1.00  0.00    -0.286 N 
ATOM      8  H3  UNL     1       8.060  57.946   4.796  1.00  0.00     0.188 HD
BRANCH   7   9
HETATM    9  N2  UNL     1       7.182  57.841   2.976  1.00  0.00    -0.238 N 
ATOM     10  H2  UNL     1       7.614  58.229   2.137  1.00  0.00     0.208 HD
BRANCH   9  11
HETATM   11  N1  UNL     1       5.810  57.784   3.051  1.00  0.00    -0.253 N 
HETATM   12  C1  UNL     1       5.163  57.179   4.195  1.00  0.00     0.182 C 
BRANCH  11  13
HETATM   13  C8  UNL     1       4.970  58.316   2.029  1.00  0.00     0.193 C 
HETATM   14  N8  UNL     1       3.690  58.405   2.008  1.00  0.00    -0.359 N 
HETATM   15  C9  UNL     1       3.202  59.011   0.779  1.00  0.00     0.142 C 
ATOM     16  H8  UNL     1       3.085  58.088   2.765  1.00  0.00     0.162 HD
HETATM   17  C10 UNL     1       4.464  59.586   0.132  1.00  0.00     0.142 C 
HETATM   18  N9  UNL     1       5.511  58.856   0.826  1.00  0.00    -0.359 N 
ATOM     19  H9  UNL     1       6.473  58.748   0.506  1.00  0.00     0.162 HD
ENDBRANCH  11  13
ENDBRANCH   9  11
ENDBRANCH   7   9
ENDBRANCH   1   7
BRANCH   5  20
HETATM   20  N5  UNL     1      11.802  54.554   4.596  1.00  0.00    -0.207 N 
BRANCH  20  21
HETATM   21  N6  UNL     1      11.844  53.608   5.688  1.00  0.00    -0.324 N 
ATOM     22  H62 UNL     1      10.956  53.184   5.959  1.00  0.00     0.178 HD
ATOM     23  H61 UNL     1      12.754  53.464   6.124  1.00  0.00     0.178 HD
ENDBRANCH  20  21
BRANCH  20  24
HETATM   24  N7  UNL     1      12.990  55.138   4.245  1.00  0.00    -0.324 N 
ATOM     25  H72 UNL     1      13.177  55.228   3.246  1.00  0.00     0.178 HD
ATOM     26  H71 UNL     1      13.696  55.524   4.872  1.00  0.00     0.178 HD
ENDBRANCH  20  24
ENDBRANCH   5  20
BRANCH   4  27
HETATM   27  N4  UNL     1      10.426  52.532   2.913  1.00  0.00    -0.113 N 
HETATM   28  O1  UNL     1       9.803  51.601   2.454  1.00  0.00    -0.532 OA
HETATM   29  O2  UNL     1      11.768  52.278   3.215  1.00  0.00    -0.532 OA
ENDBRANCH   4  27
TORSDOF 8
ENDMDL
MODEL 4
REMARK VINA RESULT: -5.883308930      0.693      1.200
REMARK  8 active torsions:
REMARK  status: ('A' for Active; 'I' for Inactive)
REMARK    1  A    between atoms: N1_2  and  N2_3 
REMARK    2  A    between atoms: N1_2  and  C8_23 
REMARK    3  A    between atoms: N2_3  and  N3_5 
REMARK    4  A    between atoms: N3_5  and  C2_7 
REMARK    5  A    between atoms: C5_10  and  N4_11 
REMARK    6  A    between atoms: C6_14  and  N5_15 
REMARK    7  A    between atoms: N5_15  and  N6_16 
REMARK    8  A    between atoms: N5_15  and  N7_19 
ROOT
HETATM    1  C2  UNL     1       8.073  56.016   2.774  1.00  0.00     0.051 A 
HETATM    2  C3  UNL     1       8.803  56.855   3.580  1.00  0.00     0.033 A 
HETATM    3  C4  UNL     1       9.925  56.379   4.179  1.00  0.00     0.041 A 
HETATM    4  C5  UNL     1      10.343  55.036   3.981  1.00  0.00     0.133 A 
HETATM    5  C6  UNL     1       9.633  54.189   3.180  1.00  0.00     0.108 A 
HETATM    6  C7  UNL     1       8.470  54.721   2.574  1.00  0.00     0.066 A 
ENDROOT
BRANCH   1   7
HETATM    7  N3  UNL     1       6.883  56.518   2.156  1.00  0.00    -0.286 N 
ATOM      8  H3  UNL     1       6.442  56.041   1.369  1.00  0.00     0.188 HD
BRANCH   7   9
HETATM    9  N2  UNL     1       6.402  57.608   2.650  1.00  0.00    -0.238 N 
ATOM     10  H2  UNL     1       7.029  58.247   3.138  1.00  0.00     0.208 HD
BRANCH   9  11
HETATM   11  N1  UNL     1       5.071  57.938   2.540  1.00  0.00    -0.253 N 
HETATM   12  C1  UNL     1       4.096  57.360   3.440  1.00  0.00     0.182 C 
BRANCH  11  13
HETATM   13  C8  UNL     1       4.593  58.855   1.559  1.00  0.00     0.193 C 
HETATM   14  N8  UNL     1       3.568  59.625   1.611  1.00  0.00    -0.359 N 
HETATM   15  C9  UNL     1       3.412  60.416   0.402  1.00  0.00     0.142 C 
ATOM     16  H8  UNL     1       2.935  59.676   2.409  1.00  0.00     0.162 HD
HETATM   17  C10 UNL     1       4.743  60.224  -0.330  1.00  0.00     0.142 C 
HETATM   18  N9  UNL     1       5.266  59.033   0.316  1.00  0.00    -0.359 N 
ATOM     19  H9  UNL     1       5.995  58.424  -0.058  1.00  0.00     0.162 HD
ENDBRANCH  11  13
ENDBRANCH   9  11
ENDBRANCH   7   9
ENDBRANCH   1   7
BRANCH   5  20
HETATM   20  N5  UNL     1      10.023  52.882   2.857  1.00  0.00    -0.207 N 
BRANCH  20  21
HETATM   21  N6  UNL     1      10.016  52.543   1.452  1.00  0.00    -0.324 N 
ATOM     22  H62 UNL     1      10.137  53.314   0.795  1.00  0.00     0.178 HD
ATOM     23  H61 UNL     1       9.857  51.561   1.227  1.00  0.00     0.178 HD
ENDBRANCH  20  21
BRANCH  20  24
HETATM   24  N7  UNL     1      10.451  51.910   3.721  1.00  0.00    -0.324 N 
ATOM     25  H72 UNL     1       9.827  51.114   3.858  1.00  0.00     0.178 HD
ATOM     26  H71 UNL     1      11.340  51.876   4.219  1.00  0.00     0.178 HD
ENDBRANCH  20  24
ENDBRANCH   5  20
BRANCH   4  27
HETATM   27  N4  UNL     1      11.507  54.692   4.684  1.00  0.00    -0.113 N 
HETATM   28  O1  UNL     1      11.573  53.934   5.626  1.00  0.00    -0.532 OA
HETATM   29  O2  UNL     1      12.696  55.346   4.343  1.00  0.00    -0.532 OA
ENDBRANCH   4  27
TORSDOF 8
ENDMDL
MODEL 5
REMARK VINA RESULT: -5.723291402      0.995      1.440
REMARK  8 active torsions:
REMARK  status: ('A' for Active; 'I' for Inactive)
REMARK    1  A    between atoms: N1_2  and  N2_3 
REMARK    2  A    between atoms: N1_2  and  C8_23 
REMARK    3  A    between atoms: N2_3  and  N3_5 
REMARK    4  A    between atoms: N3_5  and  C2_7 
REMARK    5  A    between atoms: C5_10  and  N4_11 
REMARK    6  A    between atoms: C6_14  and  N5_15 
REMARK    7  A    between atoms: N5_15  and  N6_16 
REMARK    8  A    between atoms: N5_15  and  N7_19 
ROOT
HETATM    1  C2  UNL     1       7.849  55.794   3.981  1.00  0.00     0.051 A 
HETATM    2  C3  UNL     1       8.759  56.620   4.594  1.00  0.00     0.033 A 
HETATM    3  C4  UNL     1      10.067  56.257   4.615  1.00  0.00     0.041 A 
HETATM    4  C5  UNL     1      10.496  55.043   4.016  1.00  0.00     0.133 A 
HETATM    5  C6  UNL     1       9.607  54.211   3.397  1.00  0.00     0.108 A 
HETATM    6  C7  UNL     1       8.254  54.623   3.397  1.00  0.00     0.066 A 
ENDROOT
BRANCH   1   7
HETATM    7  N3  UNL     1       6.469  56.174   3.973  1.00  0.00    -0.286 N 
ATOM      8  H3  UNL     1       5.731  55.528   4.253  1.00  0.00     0.188 HD
BRANCH   7   9
HETATM    9  N2  UNL     1       6.213  57.380   3.593  1.00  0.00    -0.238 N 
ATOM     10  H2  UNL     1       6.046  58.094   4.301  1.00  0.00     0.208 HD
BRANCH   9  11
HETATM   11  N1  UNL     1       6.157  57.734   2.266  1.00  0.00    -0.253 N 
HETATM   12  C1  UNL     1       7.282  57.479   1.391  1.00  0.00     0.182 C 
BRANCH  11  13
HETATM   13  C8  UNL     1       5.007  58.350   1.691  1.00  0.00     0.193 C 
HETATM   14  N8  UNL     1       3.778  58.244   2.044  1.00  0.00    -0.359 N 
HETATM   15  C9  UNL     1       2.894  59.032   1.201  1.00  0.00     0.142 C 
ATOM     16  H8  UNL     1       3.458  57.673   2.826  1.00  0.00     0.162 HD
HETATM   17  C10 UNL     1       3.851  59.928   0.410  1.00  0.00     0.142 C 
HETATM   18  N9  UNL     1       5.113  59.228   0.573  1.00  0.00    -0.359 N 
ATOM     19  H9  UNL     1       5.939  59.345  -0.014  1.00  0.00     0.162 HD
ENDBRANCH  11  13
ENDBRANCH   9  11
ENDBRANCH   7   9
ENDBRANCH   1   7
BRANCH   5  20
HETATM   20  N5  UNL     1       9.957  53.046   2.703  1.00  0.00    -0.207 N 
BRANCH  20  21
HETATM   21  N6  UNL     1      10.156  53.187   1.278  1.00  0.00    -0.324 N 
ATOM     22  H62 UNL     1      10.994  53.687   0.981  1.00  0.00     0.178 HD
ATOM     23  H61 UNL     1       9.422  52.804   0.682  1.00  0.00     0.178 HD
ENDBRANCH  20  21
BRANCH  20  24
HETATM   24  N7  UNL     1      10.174  51.802   3.231  1.00  0.00    -0.324 N 
ATOM     25  H72 UNL     1       9.830  51.641   4.178  1.00  0.00     0.178 HD
ATOM     26  H71 UNL     1      10.614  51.004   2.771  1.00  0.00     0.178 HD
ENDBRANCH  20  24
ENDBRANCH   5  20
BRANCH   4  27
HETATM   27  N4  UNL     1      11.872  54.801   4.140  1.00  0.00    -0.113 N 
HETATM   28  O1  UNL     1      12.761  55.533   3.764  1.00  0.00    -0.532 OA
HETATM   29  O2  UNL     1      12.277  53.566   4.657  1.00  0.00    -0.532 OA
ENDBRANCH   4  27
TORSDOF 8
ENDMDL
