MODEL 1
REMARK VINA RESULT: -6.764204429      0.000      0.000
REMARK  5 active torsions:
REMARK  status: ('A' for Active; 'I' for Inactive)
REMARK    1  A    between atoms: C1_2  and  O2_3 
REMARK    2  A    between atoms: O2_3  and  C2_4 
REMARK    3  A    between atoms: C2_4  and  C3_6 
REMARK    4  A    between atoms: C4_10  and  N3_11 
REMARK    5  A    between atoms: N3_11  and  N4_13 
ROOT
HETATM    1  C3  UNL     1      10.141  54.544   3.736  1.00  0.00     0.161 C 
HETATM    2  N1  UNL     1       9.089  54.218   3.108  1.00  0.00    -0.290 N 
ATOM      3  H1  UNL     1       8.977  53.270   2.748  1.00  0.00     0.183 HD
HETATM    4  N2  UNL     1       8.116  55.139   2.919  1.00  0.00    -0.102 NA
HETATM    5  C4  UNL     1       8.628  56.543   2.847  1.00  0.00     0.281 C 
HETATM    6  S2  UNL     1       9.920  56.270   4.154  1.00  0.00    -0.060 SA
ENDROOT
BRANCH   5   7
HETATM    7  N3  UNL     1       7.643  57.416   3.336  1.00  0.00    -0.297 N 
ATOM      8  H3  UNL     1       7.897  57.948   4.168  1.00  0.00     0.183 HD
BRANCH   7   9
HETATM    9  N4  UNL     1       6.379  57.649   2.842  1.00  0.00    -0.243 N 
HETATM   10  C5  UNL     1       6.277  58.290   1.622  1.00  0.00     0.124 A 
HETATM   11  C6  UNL     1       5.081  58.578   1.036  1.00  0.00     0.093 A 
HETATM   12  C7  UNL     1       3.908  58.230   1.656  1.00  0.00     0.248 A 
HETATM   13  O4  UNL     1       2.784  58.497   1.113  1.00  0.00    -0.268 OA
HETATM   14  N5  UNL     1       4.000  57.613   2.832  1.00  0.00    -0.299 N 
HETATM   15  C8  UNL     1       5.218  57.334   3.402  1.00  0.00     0.199 A 
ATOM     16  H5  UNL     1       3.146  57.341   3.320  1.00  0.00     0.171 HD
HETATM   17  S1  UNL     1       5.203  56.579   4.851  1.00  0.00    -0.039 SA
ENDBRANCH   7   9
ENDBRANCH   5   7
BRANCH   1  18
HETATM   18  C2  UNL     1      11.261  53.673   4.017  1.00  0.00     0.325 C 
HETATM   19  O3  UNL     1      11.154  52.432   3.832  1.00  0.00    -0.256 OA
BRANCH  18  20
HETATM   20  O2  UNL     1      12.453  54.164   4.485  1.00  0.00    -0.247 OA
BRANCH  20  21
HETATM   21  C1  UNL     1      13.398  54.805   3.695  1.00  0.00     0.406 C 
HETATM   22  O1  UNL     1      14.566  54.325   3.695  1.00  0.00    -0.276 OA
ENDBRANCH  20  21
ENDBRANCH  18  20
ENDBRANCH   1  18
TORSDOF 5
ENDMDL
MODEL 2
REMARK VINA RESULT: -6.288516461      1.808      7.732
REMARK  5 active torsions:
REMARK  status: ('A' for Active; 'I' for Inactive)
REMARK    1  A    between atoms: C1_2  and  O2_3 
REMARK    2  A    between atoms: O2_3  and  C2_4 
REMARK    3  A    between atoms: C2_4  and  C3_6 
REMARK    4  A    between atoms: C4_10  and  N3_11 
REMARK    5  A    between atoms: N3_11  and  N4_13 
ROOT
HETATM    1  C3  UNL     1       4.854  58.567   1.616  1.00  0.00     0.161 C 
HETATM    2  N1  UNL     1       6.023  58.777   1.173  1.00  0.00    -0.290 N 
ATOM      3  H1  UNL     1       6.175  59.444   0.417  1.00  0.00     0.183 HD
HETATM    4  N2  UNL     1       7.068  58.108   1.713  1.00  0.00    -0.102 NA
HETATM    5  C4  UNL     1       6.700  56.762   2.253  1.00  0.00     0.281 C 
HETATM    6  S2  UNL     1       5.054  57.333   2.896  1.00  0.00    -0.060 SA
ENDROOT
BRANCH   5   7
HETATM    7  N3  UNL     1       7.545  56.455   3.333  1.00  0.00    -0.297 N 
ATOM      8  H3  UNL     1       7.367  56.971   4.194  1.00  0.00     0.183 HD
BRANCH   7   9
HETATM    9  N4  UNL     1       8.580  55.548   3.383  1.00  0.00    -0.243 N 
HETATM   10  C5  UNL     1       8.361  54.297   2.840  1.00  0.00     0.124 A 
HETATM   11  C6  UNL     1       9.308  53.316   2.835  1.00  0.00     0.093 A 
HETATM   12  C7  UNL     1      10.543  53.549   3.385  1.00  0.00     0.248 A 
HETATM   13  O4  UNL     1      11.435  52.636   3.385  1.00  0.00    -0.268 OA
HETATM   14  N5  UNL     1      10.759  54.753   3.911  1.00  0.00    -0.299 N 
HETATM   15  C8  UNL     1       9.787  55.724   3.903  1.00  0.00     0.199 A 
ATOM     16  H5  UNL     1      11.667  54.959   4.329  1.00  0.00     0.171 HD
HETATM   17  S1  UNL     1      10.168  57.159   4.584  1.00  0.00    -0.039 SA
ENDBRANCH   7   9
ENDBRANCH   5   7
BRANCH   1  18
HETATM   18  C2  UNL     1       3.645  59.206   1.144  1.00  0.00     0.325 C 
HETATM   19  O3  UNL     1       2.576  58.546   1.062  1.00  0.00    -0.256 OA
BRANCH  18  20
HETATM   20  O2  UNL     1       3.628  60.528   0.776  1.00  0.00    -0.247 OA
BRANCH  20  21
HETATM   21  C1  UNL     1       4.048  60.999  -0.461  1.00  0.00     0.406 C 
HETATM   22  O1  UNL     1       5.279  61.249  -0.591  1.00  0.00    -0.276 OA
ENDBRANCH  20  21
ENDBRANCH  18  20
ENDBRANCH   1  18
TORSDOF 5
ENDMDL
MODEL 3
REMARK VINA RESULT: -6.152976947      3.649      7.887
REMARK  5 active torsions:
REMARK  status: ('A' for Active; 'I' for Inactive)
REMARK    1  A    between atoms: C1_2  and  O2_3 
REMARK    2  A    between atoms: O2_3  and  C2_4 
REMARK    3  A    between atoms: C2_4  and  C3_6 
REMARK    4  A    between atoms: C4_10  and  N3_11 
REMARK    5  A    between atoms: N3_11  and  N4_13 
ROOT
HETATM    1  C3  UNL     1       4.989  60.594  -0.378  1.00  0.00     0.161 C 
HETATM    2  N1  UNL     1       4.126  59.710  -0.663  1.00  0.00    -0.290 N 
ATOM      3  H1  UNL     1       3.425  59.888  -1.382  1.00  0.00     0.183 HD
HETATM    4  N2  UNL     1       4.145  58.528  -0.005  1.00  0.00    -0.102 NA
HETATM    5  C4  UNL     1       4.686  58.626   1.386  1.00  0.00     0.281 C 
HETATM    6  S2  UNL     1       5.983  59.874   0.925  1.00  0.00    -0.060 SA
ENDROOT
BRANCH   5   7
HETATM    7  N3  UNL     1       5.304  57.411   1.725  1.00  0.00    -0.297 N 
ATOM      8  H3  UNL     1       4.904  56.577   1.295  1.00  0.00     0.183 HD
BRANCH   7   9
HETATM    9  N4  UNL     1       6.377  57.197   2.560  1.00  0.00    -0.243 N 
HETATM   10  C5  UNL     1       7.627  57.089   1.981  1.00  0.00     0.124 A 
HETATM   11  C6  UNL     1       8.762  56.872   2.705  1.00  0.00     0.093 A 
HETATM   12  C7  UNL     1       8.695  56.751   4.070  1.00  0.00     0.248 A 
HETATM   13  O4  UNL     1       9.753  56.548   4.754  1.00  0.00    -0.268 OA
HETATM   14  N5  UNL     1       7.494  56.853   4.633  1.00  0.00    -0.299 N 
HETATM   15  C8  UNL     1       6.365  57.071   3.880  1.00  0.00     0.199 A 
ATOM     16  H5  UNL     1       7.409  56.767   5.646  1.00  0.00     0.171 HD
HETATM   17  S1  UNL     1       4.946  57.171   4.685  1.00  0.00    -0.039 SA
ENDBRANCH   7   9
ENDBRANCH   5   7
BRANCH   1  18
HETATM   18  C2  UNL     1       5.097  61.898  -0.994  1.00  0.00     0.325 C 
HETATM   19  O3  UNL     1       4.157  62.336  -1.706  1.00  0.00    -0.256 OA
BRANCH  18  20
HETATM   20  O2  UNL     1       6.210  62.683  -0.824  1.00  0.00    -0.247 OA
BRANCH  20  21
HETATM   21  C1  UNL     1       6.190  64.071  -0.796  1.00  0.00     0.406 C 
HETATM   22  O1  UNL     1       7.237  64.667  -1.174  1.00  0.00    -0.276 OA
ENDBRANCH  20  21
ENDBRANCH  18  20
ENDBRANCH   1  18
TORSDOF 5
ENDMDL
MODEL 4
REMARK VINA RESULT: -5.960693222      1.480      1.522
REMARK  5 active torsions:
REMARK  status: ('A' for Active; 'I' for Inactive)
REMARK    1  A    between atoms: C1_2  and  O2_3 
REMARK    2  A    between atoms: O2_3  and  C2_4 
REMARK    3  A    between atoms: C2_4  and  C3_6 
REMARK    4  A    between atoms: C4_10  and  N3_11 
REMARK    5  A    between atoms: N3_11  and  N4_13 
ROOT
HETATM    1  C3  UNL     1      10.170  55.629   3.901  1.00  0.00     0.161 C 
HETATM    2  N1  UNL     1       9.986  56.882   3.824  1.00  0.00    -0.290 N 
ATOM      3  H1  UNL     1      10.677  57.528   4.206  1.00  0.00     0.183 HD
HETATM    4  N2  UNL     1       8.864  57.352   3.232  1.00  0.00    -0.102 NA
HETATM    5  C4  UNL     1       7.694  56.427   3.347  1.00  0.00     0.281 C 
HETATM    6  S2  UNL     1       8.726  54.897   3.140  1.00  0.00    -0.060 SA
ENDROOT
BRANCH   5   7
HETATM    7  N3  UNL     1       6.867  56.591   2.224  1.00  0.00    -0.297 N 
ATOM      8  H3  UNL     1       7.000  55.913   1.475  1.00  0.00     0.183 HD
BRANCH   7   9
HETATM    9  N4  UNL     1       5.901  57.547   2.001  1.00  0.00    -0.243 N 
HETATM   10  C5  UNL     1       6.013  58.314   0.858  1.00  0.00     0.124 A 
HETATM   11  C6  UNL     1       5.120  59.292   0.533  1.00  0.00     0.093 A 
HETATM   12  C7  UNL     1       4.054  59.552   1.356  1.00  0.00     0.248 A 
HETATM   13  O4  UNL     1       3.214  60.466   1.059  1.00  0.00    -0.268 OA
HETATM   14  N5  UNL     1       3.941  58.816   2.459  1.00  0.00    -0.299 N 
HETATM   15  C8  UNL     1       4.855  57.836   2.764  1.00  0.00     0.199 A 
ATOM     16  H5  UNL     1       3.160  58.984   3.093  1.00  0.00     0.171 HD
HETATM   17  S1  UNL     1       4.615  57.004   4.149  1.00  0.00    -0.039 SA
ENDBRANCH   7   9
ENDBRANCH   5   7
BRANCH   1  18
HETATM   18  C2  UNL     1      11.316  54.980   4.501  1.00  0.00     0.325 C 
HETATM   19  O3  UNL     1      11.147  54.084   5.368  1.00  0.00    -0.256 OA
BRANCH  18  20
HETATM   20  O2  UNL     1      12.598  55.316   4.147  1.00  0.00    -0.247 OA
BRANCH  20  21
HETATM   21  C1  UNL     1      13.567  54.400   3.760  1.00  0.00     0.406 C 
HETATM   22  O1  UNL     1      14.636  54.866   3.275  1.00  0.00    -0.276 OA
ENDBRANCH  20  21
ENDBRANCH  18  20
ENDBRANCH   1  18
TORSDOF 5
ENDMDL
MODEL 5
REMARK VINA RESULT: -5.900927976      1.933      7.853
REMARK  5 active torsions:
REMARK  status: ('A' for Active; 'I' for Inactive)
REMARK    1  A    between atoms: C1_2  and  O2_3 
REMARK    2  A    between atoms: O2_3  and  C2_4 
REMARK    3  A    between atoms: C2_4  and  C3_6 
REMARK    4  A    between atoms: C4_10  and  N3_11 
REMARK    5  A    between atoms: N3_11  and  N4_13 
ROOT
HETATM    1  C3  UNL     1       6.552  57.461   2.471  1.00  0.00     0.161 C 
HETATM    2  N1  UNL     1       6.198  56.953   3.577  1.00  0.00    -0.290 N 
ATOM      3  H1  UNL     1       5.331  57.249   4.026  1.00  0.00     0.183 HD
HETATM    4  N2  UNL     1       6.981  56.015   4.158  1.00  0.00    -0.102 NA
HETATM    5  C4  UNL     1       8.434  56.163   3.830  1.00  0.00     0.281 C 
HETATM    6  S2  UNL     1       8.112  56.678   2.075  1.00  0.00    -0.060 SA
ENDROOT
BRANCH   5   7
HETATM    7  N3  UNL     1       9.038  54.895   3.844  1.00  0.00    -0.297 N 
ATOM      8  H3  UNL     1       8.400  54.101   3.882  1.00  0.00     0.183 HD
BRANCH   7   9
HETATM    9  N4  UNL     1      10.379  54.583   3.812  1.00  0.00    -0.243 N 
HETATM   10  C5  UNL     1      11.270  55.541   4.257  1.00  0.00     0.124 A 
HETATM   11  C6  UNL     1      12.619  55.347   4.268  1.00  0.00     0.093 A 
HETATM   12  C7  UNL     1      13.149  54.161   3.827  1.00  0.00     0.248 A 
HETATM   13  O4  UNL     1      14.411  53.974   3.834  1.00  0.00    -0.268 OA
HETATM   14  N5  UNL     1      12.296  53.235   3.397  1.00  0.00    -0.299 N 
HETATM   15  C8  UNL     1      10.939  53.455   3.395  1.00  0.00     0.199 A 
ATOM     16  H5  UNL     1      12.657  52.342   3.060  1.00  0.00     0.171 HD
HETATM   17  S1  UNL     1       9.993  52.246   2.837  1.00  0.00    -0.039 SA
ENDBRANCH   7   9
ENDBRANCH   5   7
BRANCH   1  18
HETATM   18  C2  UNL     1       5.822  58.467   1.731  1.00  0.00     0.325 C 
HETATM   19  O3  UNL     1       6.179  59.672   1.789  1.00  0.00    -0.256 OA
BRANCH  18  20
HETATM   20  O2  UNL     1       4.735  58.142   0.958  1.00  0.00    -0.247 OA
BRANCH  20  21
HETATM   21  C1  UNL     1       3.599  58.930   0.839  1.00  0.00     0.406 C 
HETATM   22  O1  UNL     1       2.508  58.425   1.225  1.00  0.00    -0.276 OA
ENDBRANCH  20  21
ENDBRANCH  18  20
ENDBRANCH   1  18
TORSDOF 5
ENDMDL
