MODEL 1
REMARK VINA RESULT: -6.490933096      0.000      0.000
REMARK  7 active torsions:
REMARK  status: ('A' for Active; 'I' for Inactive)
REMARK    1  A    between atoms: N1_1  and  O1_4 
REMARK    2  A    between atoms: O1_4  and  C1_5 
REMARK       I    between atoms: C1_5  and  N2_7 
REMARK    3  A    between atoms: N2_7  and  O3_8 
REMARK    4  A    between atoms: N2_7  and  C2_10 
REMARK    5  A    between atoms: C3_12  and  S2_13 
REMARK    6  A    between atoms: S2_13  and  N3_14 
REMARK    7  A    between atoms: C5_20  and  N4_21 
ROOT
HETATM    1  C2  UNL     1       7.299  57.087   2.811  1.00  0.00     0.143 A 
HETATM    2  S1  UNL     1       6.765  57.851   1.355  1.00  0.00    -0.054 SA
HETATM    3  C3  UNL     1       5.187  58.262   1.823  1.00  0.00     0.124 A 
HETATM    4  C4  UNL     1       5.111  57.792   3.103  1.00  0.00     0.072 A 
HETATM    5  C5  UNL     1       6.190  57.190   3.615  1.00  0.00     0.141 A 
ENDROOT
BRANCH   1   6
HETATM    6  N2  UNL     1       8.565  56.508   3.110  1.00  0.00    -0.155 N 
HETATM    7  C1  UNL     1       8.788  55.116   3.123  1.00  0.00     0.413 C 
HETATM    8  O2  UNL     1       7.950  54.228   2.838  1.00  0.00    -0.234 OA
BRANCH   7   9
HETATM    9  O1  UNL     1      10.057  54.632   3.489  1.00  0.00    -0.186 OA
BRANCH   9  10
HETATM   10  N1  UNL     1      10.666  54.982   4.674  1.00  0.00    -0.301 N 
ATOM     11  H12 UNL     1      11.137  55.885   4.718  1.00  0.00     0.184 HD
ATOM     12  H11 UNL     1      10.658  54.374   5.493  1.00  0.00     0.184 HD
ENDBRANCH   9  10
ENDBRANCH   7   9
BRANCH   6  13
HETATM   13  O3  UNL     1       9.583  57.340   3.383  1.00  0.00    -0.278 OA
ATOM     14  H3  UNL     1       9.518  57.926   4.128  1.00  0.00     0.245 HD
ENDBRANCH   6  13
ENDBRANCH   1   6
BRANCH   5  15
HETATM   15  N4  UNL     1       6.234  56.655   4.965  1.00  0.00    -0.113 N 
HETATM   16  O6  UNL     1       5.329  55.914   5.375  1.00  0.00    -0.532 OA
HETATM   17  O7  UNL     1       7.310  56.999   5.723  1.00  0.00    -0.532 OA
ENDBRANCH   5  15
BRANCH   3  18
HETATM   18  S2  UNL     1       3.965  59.104   0.889  1.00  0.00     0.263 S 
HETATM   19  O4  UNL     1       3.752  60.445   1.501  1.00  0.00    -0.200 OA
HETATM   20  O5  UNL     1       2.680  58.293   0.996  1.00  0.00    -0.200 OA
BRANCH  18  21
HETATM   21  N3  UNL     1       4.429  59.256  -0.760  1.00  0.00    -0.324 N 
ATOM     22  H32 UNL     1       5.357  59.556  -1.057  1.00  0.00     0.169 HD
ATOM     23  H31 UNL     1       3.662  59.011  -1.387  1.00  0.00     0.169 HD
ENDBRANCH  18  21
ENDBRANCH   3  18
TORSDOF 7
ENDMDL
MODEL 2
REMARK VINA RESULT: -5.527526667      3.440      5.175
REMARK  7 active torsions:
REMARK  status: ('A' for Active; 'I' for Inactive)
REMARK    1  A    between atoms: N1_1  and  O1_4 
REMARK    2  A    between atoms: O1_4  and  C1_5 
REMARK       I    between atoms: C1_5  and  N2_7 
REMARK    3  A    between atoms: N2_7  and  O3_8 
REMARK    4  A    between atoms: N2_7  and  C2_10 
REMARK    5  A    between atoms: C3_12  and  S2_13 
REMARK    6  A    between atoms: S2_13  and  N3_14 
REMARK    7  A    between atoms: C5_20  and  N4_21 
ROOT
HETATM    1  C2  UNL     1      10.613  54.485   3.864  1.00  0.00     0.143 A 
HETATM    2  S1  UNL     1       9.862  55.810   4.684  1.00  0.00    -0.054 SA
HETATM    3  C3  UNL     1       8.314  55.718   3.995  1.00  0.00     0.124 A 
HETATM    4  C4  UNL     1       8.418  54.657   3.141  1.00  0.00     0.072 A 
HETATM    5  C5  UNL     1       9.593  54.022   3.070  1.00  0.00     0.141 A 
ENDROOT
BRANCH   1   6
HETATM    6  N2  UNL     1      11.941  53.990   3.987  1.00  0.00    -0.155 N 
HETATM    7  C1  UNL     1      13.080  54.771   3.704  1.00  0.00     0.413 C 
HETATM    8  O2  UNL     1      13.085  55.978   3.366  1.00  0.00    -0.234 OA
BRANCH   7   9
HETATM    9  O1  UNL     1      14.353  54.179   3.794  1.00  0.00    -0.186 OA
BRANCH   9  10
HETATM   10  N1  UNL     1      14.820  53.609   4.957  1.00  0.00    -0.301 N 
ATOM     11  H12 UNL     1      14.780  52.593   5.038  1.00  0.00     0.184 HD
ATOM     12  H11 UNL     1      15.199  54.164   5.725  1.00  0.00     0.184 HD
ENDBRANCH   9  10
ENDBRANCH   7   9
BRANCH   6  13
HETATM   13  O3  UNL     1      12.100  52.720   4.397  1.00  0.00    -0.278 OA
ATOM     14  H3  UNL     1      12.344  52.550   5.299  1.00  0.00     0.245 HD
ENDBRANCH   6  13
ENDBRANCH   1   6
BRANCH   5  15
HETATM   15  N4  UNL     1       9.824  52.878   2.205  1.00  0.00    -0.113 N 
HETATM   16  O6  UNL     1      10.034  53.040   0.993  1.00  0.00    -0.532 OA
HETATM   17  O7  UNL     1       9.812  51.653   2.796  1.00  0.00    -0.532 OA
ENDBRANCH   5  15
BRANCH   3  18
HETATM   18  S2  UNL     1       6.921  56.730   4.323  1.00  0.00     0.263 S 
HETATM   19  O4  UNL     1       7.396  57.980   4.979  1.00  0.00    -0.200 OA
HETATM   20  O5  UNL     1       6.026  55.964   5.288  1.00  0.00    -0.200 OA
BRANCH  18  21
HETATM   21  N3  UNL     1       6.056  57.094   2.881  1.00  0.00    -0.324 N 
ATOM     22  H32 UNL     1       5.675  56.381   2.259  1.00  0.00     0.169 HD
ATOM     23  H31 UNL     1       5.978  58.101   2.737  1.00  0.00     0.169 HD
ENDBRANCH  18  21
ENDBRANCH   3  18
TORSDOF 7
ENDMDL
MODEL 3
REMARK VINA RESULT: -5.485009695      1.126      1.767
REMARK  7 active torsions:
REMARK  status: ('A' for Active; 'I' for Inactive)
REMARK    1  A    between atoms: N1_1  and  O1_4 
REMARK    2  A    between atoms: O1_4  and  C1_5 
REMARK       I    between atoms: C1_5  and  N2_7 
REMARK    3  A    between atoms: N2_7  and  O3_8 
REMARK    4  A    between atoms: N2_7  and  C2_10 
REMARK    5  A    between atoms: C3_12  and  S2_13 
REMARK    6  A    between atoms: S2_13  and  N3_14 
REMARK    7  A    between atoms: C5_20  and  N4_21 
ROOT
HETATM    1  C2  UNL     1       7.224  56.655   2.885  1.00  0.00     0.143 A 
HETATM    2  S1  UNL     1       7.181  57.539   1.399  1.00  0.00    -0.054 SA
HETATM    3  C3  UNL     1       5.748  58.415   1.642  1.00  0.00     0.124 A 
HETATM    4  C4  UNL     1       5.334  57.997   2.875  1.00  0.00     0.072 A 
HETATM    5  C5  UNL     1       6.087  57.096   3.516  1.00  0.00     0.141 A 
ENDROOT
BRANCH   1   6
HETATM    6  N2  UNL     1       8.192  55.719   3.346  1.00  0.00    -0.155 N 
HETATM    7  C1  UNL     1       9.460  56.102   3.830  1.00  0.00     0.413 C 
HETATM    8  O2  UNL     1       9.878  57.277   3.962  1.00  0.00    -0.234 OA
BRANCH   7   9
HETATM    9  O1  UNL     1      10.377  55.104   4.207  1.00  0.00    -0.186 OA
BRANCH   9  10
HETATM   10  N1  UNL     1      10.631  54.002   3.421  1.00  0.00    -0.301 N 
ATOM     11  H12 UNL     1      11.569  53.901   3.033  1.00  0.00     0.184 HD
ATOM     12  H11 UNL     1       9.921  53.298   3.222  1.00  0.00     0.184 HD
ENDBRANCH   9  10
ENDBRANCH   7   9
BRANCH   6  13
HETATM   13  O3  UNL     1       7.865  54.417   3.317  1.00  0.00    -0.278 OA
ATOM     14  H3  UNL     1       8.423  53.787   3.760  1.00  0.00     0.245 HD
ENDBRANCH   6  13
ENDBRANCH   1   6
BRANCH   5  15
HETATM   15  N4  UNL     1       5.755  56.581   4.834  1.00  0.00    -0.113 N 
HETATM   16  O6  UNL     1       6.651  56.199   5.601  1.00  0.00    -0.532 OA
HETATM   17  O7  UNL     1       4.437  56.559   5.167  1.00  0.00    -0.532 OA
ENDBRANCH   5  15
BRANCH   3  18
HETATM   18  S2  UNL     1       4.999  59.584   0.572  1.00  0.00     0.263 S 
HETATM   19  O4  UNL     1       3.955  60.317   1.340  1.00  0.00    -0.200 OA
HETATM   20  O5  UNL     1       4.339  58.803  -0.557  1.00  0.00    -0.200 OA
BRANCH  18  21
HETATM   21  N3  UNL     1       6.159  60.680  -0.071  1.00  0.00    -0.324 N 
ATOM     22  H32 UNL     1       6.118  61.048  -1.022  1.00  0.00     0.169 HD
ATOM     23  H31 UNL     1       6.879  60.905   0.615  1.00  0.00     0.169 HD
ENDBRANCH  18  21
ENDBRANCH   3  18
TORSDOF 7
ENDMDL
MODEL 4
REMARK VINA RESULT: -5.371281290      1.031      1.470
REMARK  7 active torsions:
REMARK  status: ('A' for Active; 'I' for Inactive)
REMARK    1  A    between atoms: N1_1  and  O1_4 
REMARK    2  A    between atoms: O1_4  and  C1_5 
REMARK       I    between atoms: C1_5  and  N2_7 
REMARK    3  A    between atoms: N2_7  and  O3_8 
REMARK    4  A    between atoms: N2_7  and  C2_10 
REMARK    5  A    between atoms: C3_12  and  S2_13 
REMARK    6  A    between atoms: S2_13  and  N3_14 
REMARK    7  A    between atoms: C5_20  and  N4_21 
ROOT
HETATM    1  C2  UNL     1       7.362  57.056   2.872  1.00  0.00     0.143 A 
HETATM    2  S1  UNL     1       6.897  57.804   1.384  1.00  0.00    -0.054 SA
HETATM    3  C3  UNL     1       5.297  58.216   1.771  1.00  0.00     0.124 A 
HETATM    4  C4  UNL     1       5.161  57.759   3.051  1.00  0.00     0.072 A 
HETATM    5  C5  UNL     1       6.215  57.165   3.620  1.00  0.00     0.141 A 
ENDROOT
BRANCH   1   6
HETATM    6  N2  UNL     1       8.613  56.484   3.238  1.00  0.00    -0.155 N 
HETATM    7  C1  UNL     1       8.850  55.095   3.239  1.00  0.00     0.413 C 
HETATM    8  O2  UNL     1       8.040  54.204   2.887  1.00  0.00    -0.234 OA
BRANCH   7   9
HETATM    9  O1  UNL     1      10.099  54.616   3.674  1.00  0.00    -0.186 OA
BRANCH   9  10
HETATM   10  N1  UNL     1      10.563  53.361   3.345  1.00  0.00    -0.301 N 
ATOM     11  H12 UNL     1      11.481  53.294   2.905  1.00  0.00     0.184 HD
ATOM     12  H11 UNL     1      10.023  52.515   3.525  1.00  0.00     0.184 HD
ENDBRANCH   9  10
ENDBRANCH   7   9
BRANCH   6  13
HETATM   13  O3  UNL     1       9.604  57.321   3.588  1.00  0.00    -0.278 OA
ATOM     14  H3  UNL     1       9.589  58.217   3.274  1.00  0.00     0.245 HD
ENDBRANCH   6  13
ENDBRANCH   1   6
BRANCH   5  15
HETATM   15  N4  UNL     1       6.195  56.645   4.977  1.00  0.00    -0.113 N 
HETATM   16  O6  UNL     1       7.179  56.790   5.718  1.00  0.00    -0.532 OA
HETATM   17  O7  UNL     1       5.055  56.020   5.374  1.00  0.00    -0.532 OA
ENDBRANCH   5  15
BRANCH   3  18
HETATM   18  S2  UNL     1       4.119  59.044   0.771  1.00  0.00     0.263 S 
HETATM   19  O4  UNL     1       4.391  58.699  -0.653  1.00  0.00    -0.200 OA
HETATM   20  O5  UNL     1       4.329  60.539   0.974  1.00  0.00    -0.200 OA
BRANCH  18  21
HETATM   21  N3  UNL     1       2.512  58.610   1.203  1.00  0.00    -0.324 N 
ATOM     22  H32 UNL     1       2.086  57.717   0.958  1.00  0.00     0.169 HD
ATOM     23  H31 UNL     1       2.053  59.356   1.727  1.00  0.00     0.169 HD
ENDBRANCH  18  21
ENDBRANCH   3  18
TORSDOF 7
ENDMDL
MODEL 5
REMARK VINA RESULT: -5.234957122      3.363      5.205
REMARK  7 active torsions:
REMARK  status: ('A' for Active; 'I' for Inactive)
REMARK    1  A    between atoms: N1_1  and  O1_4 
REMARK    2  A    between atoms: O1_4  and  C1_5 
REMARK       I    between atoms: C1_5  and  N2_7 
REMARK    3  A    between atoms: N2_7  and  O3_8 
REMARK    4  A    between atoms: N2_7  and  C2_10 
REMARK    5  A    between atoms: C3_12  and  S2_13 
REMARK    6  A    between atoms: S2_13  and  N3_14 
REMARK    7  A    between atoms: C5_20  and  N4_21 
ROOT
HETATM    1  C2  UNL     1      10.739  54.587   3.910  1.00  0.00     0.143 A 
HETATM    2  S1  UNL     1      10.058  56.045   4.543  1.00  0.00    -0.054 SA
HETATM    3  C3  UNL     1       8.534  55.982   3.800  1.00  0.00     0.124 A 
HETATM    4  C4  UNL     1       8.591  54.827   3.074  1.00  0.00     0.072 A 
HETATM    5  C5  UNL     1       9.718  54.108   3.127  1.00  0.00     0.141 A 
ENDROOT
BRANCH   1   6
HETATM    6  N2  UNL     1      12.022  54.018   4.146  1.00  0.00    -0.155 N 
HETATM    7  C1  UNL     1      13.217  54.601   3.677  1.00  0.00     0.413 C 
HETATM    8  O2  UNL     1      13.318  55.683   3.053  1.00  0.00    -0.234 OA
BRANCH   7   9
HETATM    9  O1  UNL     1      14.436  53.936   3.906  1.00  0.00    -0.186 OA
BRANCH   9  10
HETATM   10  N1  UNL     1      14.860  53.588   5.169  1.00  0.00    -0.301 N 
ATOM     11  H12 UNL     1      15.162  54.337   5.792  1.00  0.00     0.184 HD
ATOM     12  H11 UNL     1      14.880  52.621   5.491  1.00  0.00     0.184 HD
ENDBRANCH   9  10
ENDBRANCH   7   9
BRANCH   6  13
HETATM   13  O3  UNL     1      12.080  52.879   4.855  1.00  0.00    -0.278 OA
ATOM     14  H3  UNL     1      11.285  52.377   4.994  1.00  0.00     0.245 HD
ENDBRANCH   6  13
ENDBRANCH   1   6
BRANCH   5  15
HETATM   15  N4  UNL     1       9.896  52.860   2.405  1.00  0.00    -0.113 N 
HETATM   16  O6  UNL     1       9.912  51.780   3.014  1.00  0.00    -0.532 OA
HETATM   17  O7  UNL     1      10.025  52.950   1.054  1.00  0.00    -0.532 OA
ENDBRANCH   5  15
BRANCH   3  18
HETATM   18  S2  UNL     1       7.208  57.119   3.951  1.00  0.00     0.263 S 
HETATM   19  O4  UNL     1       7.161  57.948   2.715  1.00  0.00    -0.200 OA
HETATM   20  O5  UNL     1       7.516  58.013   5.145  1.00  0.00    -0.200 OA
BRANCH  18  21
HETATM   21  N3  UNL     1       5.710  56.308   4.194  1.00  0.00    -0.324 N 
ATOM     22  H32 UNL     1       4.879  56.765   4.569  1.00  0.00     0.169 HD
ATOM     23  H31 UNL     1       5.768  55.328   3.917  1.00  0.00     0.169 HD
ENDBRANCH  18  21
ENDBRANCH   3  18
TORSDOF 7
ENDMDL
