MODEL 1
REMARK VINA RESULT: -7.507446675      0.000      0.000
REMARK  5 active torsions:
REMARK  status: ('A' for Active; 'I' for Inactive)
REMARK    1  A    between atoms: N1_2  and  C2_3 
REMARK    2  A    between atoms: N1_2  and  C8_16 
REMARK    3  A    between atoms: C2_3  and  C3_4 
REMARK    4  A    between atoms: C4_7  and  C5_8 
REMARK    5  A    between atoms: C5_8  and  O1_11 
ROOT
HETATM    1  C3  UNL     1      56.226 -18.532  -1.326  1.00  0.00     0.187 A 
HETATM    2  N2  UNL     1      56.626 -17.653  -0.397  1.00  0.00    -0.320 N 
ATOM      3  H2  UNL     1      56.233 -17.578   0.542  1.00  0.00     0.169 HD
HETATM    4  C4  UNL     1      57.618 -16.888  -0.876  1.00  0.00     0.138 A 
HETATM    5  N3  UNL     1      57.821 -17.322  -2.132  1.00  0.00    -0.244 N 
ATOM      6  H3  UNL     1      58.513 -16.947  -2.780  1.00  0.00     0.196 HD
HETATM    7  O2  UNL     1      56.991 -18.302  -2.397  1.00  0.00    -0.217 OA
ENDROOT
BRANCH   1   8
HETATM    8  C2  UNL     1      55.183 -19.582  -1.312  1.00  0.00     0.144 C 
BRANCH   8   9
HETATM    9  N1  UNL     1      54.944 -20.214  -2.537  1.00  0.00    -0.386 N 
HETATM   10  C1  UNL     1      54.039 -19.564  -3.380  1.00  0.00     0.149 C 
BRANCH   9  11
HETATM   11  C8  UNL     1      55.047 -21.626  -2.576  1.00  0.00     0.086 C 
HETATM   12  C9  UNL     1      54.047 -22.166  -3.592  1.00  0.00     0.028 C 
HETATM   13  C10 UNL     1      53.409 -23.377  -3.016  1.00  0.00     0.039 C 
HETATM   14  C11 UNL     1      54.054 -23.594  -1.652  1.00  0.00     0.172 C 
HETATM   15  F1  UNL     1      55.033 -24.546  -1.714  1.00  0.00    -0.249 F 
HETATM   16  C12 UNL     1      54.622 -22.266  -1.274  1.00  0.00     0.062 C 
ENDBRANCH   9  11
ENDBRANCH   8   9
ENDBRANCH   1   8
BRANCH   4  17
HETATM   17  C5  UNL     1      58.364 -15.789  -0.232  1.00  0.00     0.110 C 
HETATM   18  C6  UNL     1      59.811 -15.750  -0.674  1.00  0.00     0.054 C 
HETATM   19  C7  UNL     1      58.291 -15.869   1.273  1.00  0.00     0.054 C 
BRANCH  17  20
HETATM   20  O1  UNL     1      57.805 -14.536  -0.582  1.00  0.00    -0.383 OA
ATOM     21  H1  UNL     1      58.017 -14.317  -1.482  1.00  0.00     0.211 HD
ENDBRANCH  17  20
ENDBRANCH   4  17
TORSDOF 5
ENDMDL
MODEL 2
REMARK VINA RESULT: -7.152738284      4.995      7.519
REMARK  5 active torsions:
REMARK  status: ('A' for Active; 'I' for Inactive)
REMARK    1  A    between atoms: N1_2  and  C2_3 
REMARK    2  A    between atoms: N1_2  and  C8_16 
REMARK    3  A    between atoms: C2_3  and  C3_4 
REMARK    4  A    between atoms: C4_7  and  C5_8 
REMARK    5  A    between atoms: C5_8  and  O1_11 
ROOT
HETATM    1  C3  UNL     1      54.414 -24.821  -0.558  1.00  0.00     0.187 A 
HETATM    2  N2  UNL     1      55.302 -24.845   0.446  1.00  0.00    -0.320 N 
ATOM      3  H2  UNL     1      56.191 -24.345   0.450  1.00  0.00     0.169 HD
HETATM    4  C4  UNL     1      54.854 -25.622   1.444  1.00  0.00     0.138 A 
HETATM    5  N3  UNL     1      53.660 -26.076   1.026  1.00  0.00    -0.244 N 
ATOM      6  H3  UNL     1      53.049 -26.699   1.556  1.00  0.00     0.196 HD
HETATM    7  O2  UNL     1      53.400 -25.597  -0.165  1.00  0.00    -0.217 OA
ENDROOT
BRANCH   1   8
HETATM    8  C2  UNL     1      54.421 -24.134  -1.869  1.00  0.00     0.144 C 
BRANCH   8   9
HETATM    9  N1  UNL     1      54.024 -22.792  -1.851  1.00  0.00    -0.386 N 
HETATM   10  C1  UNL     1      52.773 -22.530  -2.414  1.00  0.00     0.149 C 
BRANCH   9  11
HETATM   11  C8  UNL     1      55.041 -21.808  -1.915  1.00  0.00     0.086 C 
HETATM   12  C9  UNL     1      54.690 -20.674  -0.957  1.00  0.00     0.028 C 
HETATM   13  C10 UNL     1      54.996 -19.387  -1.631  1.00  0.00     0.039 C 
HETATM   14  C11 UNL     1      55.571 -19.744  -2.997  1.00  0.00     0.172 C 
HETATM   15  F1  UNL     1      56.936 -19.683  -2.990  1.00  0.00    -0.249 F 
HETATM   16  C12 UNL     1      55.099 -21.134  -3.267  1.00  0.00     0.062 C 
ENDBRANCH   9  11
ENDBRANCH   8   9
ENDBRANCH   1   8
BRANCH   4  17
HETATM   17  C5  UNL     1      55.480 -25.957   2.738  1.00  0.00     0.110 C 
HETATM   18  C6  UNL     1      56.288 -24.805   3.293  1.00  0.00     0.054 C 
HETATM   19  C7  UNL     1      56.346 -27.189   2.640  1.00  0.00     0.054 C 
BRANCH  17  20
HETATM   20  O1  UNL     1      54.490 -26.254   3.707  1.00  0.00    -0.383 OA
ATOM     21  H1  UNL     1      54.848 -26.176   4.583  1.00  0.00     0.211 HD
ENDBRANCH  17  20
ENDBRANCH   4  17
TORSDOF 5
ENDMDL
MODEL 3
REMARK VINA RESULT: -7.106515233      5.180      7.475
REMARK  5 active torsions:
REMARK  status: ('A' for Active; 'I' for Inactive)
REMARK    1  A    between atoms: N1_2  and  C2_3 
REMARK    2  A    between atoms: N1_2  and  C8_16 
REMARK    3  A    between atoms: C2_3  and  C3_4 
REMARK    4  A    between atoms: C4_7  and  C5_8 
REMARK    5  A    between atoms: C5_8  and  O1_11 
ROOT
HETATM    1  C3  UNL     1      54.510 -24.746  -0.480  1.00  0.00     0.187 A 
HETATM    2  N2  UNL     1      55.376 -24.782   0.543  1.00  0.00    -0.320 N 
ATOM      3  H2  UNL     1      56.247 -24.252   0.587  1.00  0.00     0.169 HD
HETATM    4  C4  UNL     1      54.935 -25.613   1.499  1.00  0.00     0.138 A 
HETATM    5  N3  UNL     1      53.766 -26.089   1.036  1.00  0.00    -0.244 N 
ATOM      6  H3  UNL     1      53.166 -26.753   1.527  1.00  0.00     0.196 HD
HETATM    7  O2  UNL     1      53.516 -25.571  -0.141  1.00  0.00    -0.217 OA
ENDROOT
BRANCH   1   8
HETATM    8  C2  UNL     1      54.522 -24.007  -1.762  1.00  0.00     0.144 C 
BRANCH   8   9
HETATM    9  N1  UNL     1      53.459 -23.118  -1.957  1.00  0.00    -0.386 N 
HETATM   10  C1  UNL     1      52.291 -23.686  -2.471  1.00  0.00     0.149 C 
BRANCH   9  11
HETATM   11  C8  UNL     1      53.779 -21.773  -2.266  1.00  0.00     0.086 C 
HETATM   12  C9  UNL     1      54.700 -21.751  -3.480  1.00  0.00     0.028 C 
HETATM   13  C10 UNL     1      55.762 -20.742  -3.238  1.00  0.00     0.039 C 
HETATM   14  C11 UNL     1      55.461 -20.120  -1.879  1.00  0.00     0.172 C 
HETATM   15  F1  UNL     1      54.817 -18.923  -2.014  1.00  0.00    -0.249 F 
HETATM   16  C12 UNL     1      54.598 -21.116  -1.178  1.00  0.00     0.062 C 
ENDBRANCH   9  11
ENDBRANCH   8   9
ENDBRANCH   1   8
BRANCH   4  17
HETATM   17  C5  UNL     1      55.543 -25.978   2.793  1.00  0.00     0.110 C 
HETATM   18  C6  UNL     1      56.328 -24.833   3.395  1.00  0.00     0.054 C 
HETATM   19  C7  UNL     1      56.425 -27.196   2.673  1.00  0.00     0.054 C 
BRANCH  17  20
HETATM   20  O1  UNL     1      54.542 -26.316   3.736  1.00  0.00    -0.383 OA
ATOM     21  H1  UNL     1      53.826 -25.693   3.698  1.00  0.00     0.211 HD
ENDBRANCH  17  20
ENDBRANCH   4  17
TORSDOF 5
ENDMDL
MODEL 4
REMARK VINA RESULT: -6.671168581      0.947      1.334
REMARK  5 active torsions:
REMARK  status: ('A' for Active; 'I' for Inactive)
REMARK    1  A    between atoms: N1_2  and  C2_3 
REMARK    2  A    between atoms: N1_2  and  C8_16 
REMARK    3  A    between atoms: C2_3  and  C3_4 
REMARK    4  A    between atoms: C4_7  and  C5_8 
REMARK    5  A    between atoms: C5_8  and  O1_11 
ROOT
HETATM    1  C3  UNL     1      56.246 -18.353  -1.276  1.00  0.00     0.187 A 
HETATM    2  N2  UNL     1      56.712 -17.505  -0.350  1.00  0.00    -0.320 N 
ATOM      3  H2  UNL     1      56.304 -17.371   0.576  1.00  0.00     0.169 HD
HETATM    4  C4  UNL     1      57.793 -16.857  -0.812  1.00  0.00     0.138 A 
HETATM    5  N3  UNL     1      57.981 -17.334  -2.055  1.00  0.00    -0.244 N 
ATOM      6  H3  UNL     1      58.727 -17.046  -2.689  1.00  0.00     0.196 HD
HETATM    7  O2  UNL     1      57.059 -18.225  -2.328  1.00  0.00    -0.217 OA
ENDROOT
BRANCH   1   8
HETATM    8  C2  UNL     1      55.096 -19.285  -1.276  1.00  0.00     0.144 C 
BRANCH   8   9
HETATM    9  N1  UNL     1      55.270 -20.460  -2.016  1.00  0.00    -0.386 N 
HETATM   10  C1  UNL     1      55.947 -20.308  -3.229  1.00  0.00     0.149 C 
BRANCH   9  11
HETATM   11  C8  UNL     1      54.284 -21.468  -1.885  1.00  0.00     0.086 C 
HETATM   12  C9  UNL     1      54.817 -22.563  -0.968  1.00  0.00     0.028 C 
HETATM   13  C10 UNL     1      54.439 -23.877  -1.548  1.00  0.00     0.039 C 
HETATM   14  C11 UNL     1      53.639 -23.576  -2.809  1.00  0.00     0.172 C 
HETATM   15  F1  UNL     1      52.296 -23.667  -2.577  1.00  0.00    -0.249 F 
HETATM   16  C12 UNL     1      54.023 -22.184  -3.191  1.00  0.00     0.062 C 
ENDBRANCH   9  11
ENDBRANCH   8   9
ENDBRANCH   1   8
BRANCH   4  17
HETATM   17  C5  UNL     1      58.634 -15.833  -0.164  1.00  0.00     0.110 C 
HETATM   18  C6  UNL     1      60.070 -15.895  -0.637  1.00  0.00     0.054 C 
HETATM   19  C7  UNL     1      58.585 -15.938   1.340  1.00  0.00     0.054 C 
BRANCH  17  20
HETATM   20  O1  UNL     1      58.166 -14.534  -0.478  1.00  0.00    -0.383 OA
ATOM     21  H1  UNL     1      58.006 -14.454  -1.410  1.00  0.00     0.211 HD
ENDBRANCH  17  20
ENDBRANCH   4  17
TORSDOF 5
ENDMDL
MODEL 5
REMARK VINA RESULT: -6.670353957      5.066      7.095
REMARK  5 active torsions:
REMARK  status: ('A' for Active; 'I' for Inactive)
REMARK    1  A    between atoms: N1_2  and  C2_3 
REMARK    2  A    between atoms: N1_2  and  C8_16 
REMARK    3  A    between atoms: C2_3  and  C3_4 
REMARK    4  A    between atoms: C4_7  and  C5_8 
REMARK    5  A    between atoms: C5_8  and  O1_11 
ROOT
HETATM    1  C3  UNL     1      54.021 -20.979  -3.214  1.00  0.00     0.187 A 
HETATM    2  N2  UNL     1      53.696 -22.279  -3.192  1.00  0.00    -0.320 N 
ATOM      3  H2  UNL     1      53.184 -22.764  -3.931  1.00  0.00     0.169 HD
HETATM    4  C4  UNL     1      54.138 -22.852  -2.063  1.00  0.00     0.138 A 
HETATM    5  N3  UNL     1      54.750 -21.864  -1.386  1.00  0.00    -0.244 N 
ATOM      6  H3  UNL     1      55.199 -21.966  -0.475  1.00  0.00     0.196 HD
HETATM    7  O2  UNL     1      54.679 -20.751  -2.074  1.00  0.00    -0.217 OA
ENDROOT
BRANCH   1   8
HETATM    8  C2  UNL     1      53.772 -19.912  -4.209  1.00  0.00     0.144 C 
BRANCH   8   9
HETATM    9  N1  UNL     1      54.329 -20.124  -5.474  1.00  0.00    -0.386 N 
HETATM   10  C1  UNL     1      55.673 -20.506  -5.480  1.00  0.00     0.149 C 
BRANCH   9  11
HETATM   11  C8  UNL     1      53.812 -19.366  -6.553  1.00  0.00     0.086 C 
HETATM   12  C9  UNL     1      52.568 -18.621  -6.081  1.00  0.00     0.028 C 
HETATM   13  C10 UNL     1      51.543 -18.705  -7.152  1.00  0.00     0.039 C 
HETATM   14  C11 UNL     1      52.183 -19.478  -8.299  1.00  0.00     0.172 C 
HETATM   15  F1  UNL     1      52.646 -18.632  -9.268  1.00  0.00    -0.249 F 
HETATM   16  C12 UNL     1      53.305 -20.242  -7.676  1.00  0.00     0.062 C 
ENDBRANCH   9  11
ENDBRANCH   8   9
ENDBRANCH   1   8
BRANCH   4  17
HETATM   17  C5  UNL     1      54.013 -24.246  -1.594  1.00  0.00     0.110 C 
HETATM   18  C6  UNL     1      52.568 -24.685  -1.500  1.00  0.00     0.054 C 
HETATM   19  C7  UNL     1      54.699 -24.455  -0.267  1.00  0.00     0.054 C 
BRANCH  17  20
HETATM   20  O1  UNL     1      54.642 -25.133  -2.501  1.00  0.00    -0.383 OA
ATOM     21  H1  UNL     1      54.245 -25.994  -2.455  1.00  0.00     0.211 HD
ENDBRANCH  17  20
ENDBRANCH   4  17
TORSDOF 5
ENDMDL
