MODEL 1
REMARK VINA RESULT: -5.800294748      0.000      0.000
REMARK  2 active torsions:
REMARK  status: ('A' for Active; 'I' for Inactive)
REMARK    1  A    between atoms: O1_2  and  C2_3 
REMARK    2  A    between atoms: C7_9  and  O2_10 
ROOT
HETATM    1  C2  UNL     1     -13.449  24.832  53.740  1.00  0.00     0.105 A 
HETATM    2  C3  UNL     1     -12.158  24.707  53.260  1.00  0.00     0.056 A 
HETATM    3  C4  UNL     1     -11.176  25.612  53.665  1.00  0.00     0.030 A 
HETATM    4  C5  UNL     1     -11.439  26.642  54.537  1.00  0.00     0.002 A 
HETATM    5  C6  UNL     1     -12.751  26.748  55.010  1.00  0.00     0.160 A 
HETATM    6  F1  UNL     1     -13.125  27.723  55.873  1.00  0.00    -0.202 F 
HETATM    7  C7  UNL     1     -13.709  25.848  54.601  1.00  0.00     0.141 A 
HETATM    8  C9  UNL     1     -10.478  27.634  55.017  1.00  0.00     0.026 C 
HETATM    9  C10 UNL     1     -10.767  29.025  54.471  1.00  0.00     0.015 C 
HETATM   10  C11 UNL     1      -9.051  27.310  54.763  1.00  0.00     0.096 C 
HETATM   11  C12 UNL     1      -8.815  26.445  53.606  1.00  0.00     0.200 C 
HETATM   12  O3  UNL     1      -7.744  26.516  52.973  1.00  0.00    -0.289 OA
HETATM   13  C13 UNL     1      -9.814  25.487  53.165  1.00  0.00     0.228 C 
HETATM   14  O4  UNL     1      -9.561  24.551  52.367  1.00  0.00    -0.284 OA
ENDROOT
BRANCH   1  15
HETATM   15  O1  UNL     1     -14.434  23.938  53.345  1.00  0.00    -0.353 OA
HETATM   16  C1  UNL     1     -14.709  22.744  54.049  1.00  0.00     0.210 C 
ENDBRANCH   1  15
BRANCH   7  17
HETATM   17  O2  UNL     1     -15.018  25.968  55.082  1.00  0.00    -0.350 OA
HETATM   18  C8  UNL     1     -15.954  26.806  54.391  1.00  0.00     0.210 C 
ENDBRANCH   7  17
TORSDOF 2
ENDMDL
MODEL 2
REMARK VINA RESULT: -5.255484208      3.598      5.221
REMARK  2 active torsions:
REMARK  status: ('A' for Active; 'I' for Inactive)
REMARK    1  A    between atoms: O1_2  and  C2_3 
REMARK    2  A    between atoms: C7_9  and  O2_10 
ROOT
HETATM    1  C2  UNL     1     -16.065  22.809  53.922  1.00  0.00     0.105 A 
HETATM    2  C3  UNL     1     -16.647  23.882  53.273  1.00  0.00     0.056 A 
HETATM    3  C4  UNL     1     -15.852  24.945  52.841  1.00  0.00     0.030 A 
HETATM    4  C5  UNL     1     -14.492  24.974  53.036  1.00  0.00     0.002 A 
HETATM    5  C6  UNL     1     -13.926  23.877  53.695  1.00  0.00     0.160 A 
HETATM    6  F1  UNL     1     -12.596  23.798  53.941  1.00  0.00    -0.202 F 
HETATM    7  C7  UNL     1     -14.722  22.835  54.115  1.00  0.00     0.141 A 
HETATM    8  C9  UNL     1     -13.582  26.041  52.620  1.00  0.00     0.026 C 
HETATM    9  C10 UNL     1     -13.010  26.802  53.807  1.00  0.00     0.015 C 
HETATM   10  C11 UNL     1     -14.148  27.017  51.656  1.00  0.00     0.096 C 
HETATM   11  C12 UNL     1     -15.602  27.170  51.720  1.00  0.00     0.200 C 
HETATM   12  O3  UNL     1     -16.138  28.248  51.399  1.00  0.00    -0.289 OA
HETATM   13  C13 UNL     1     -16.456  26.079  52.157  1.00  0.00     0.228 C 
HETATM   14  O4  UNL     1     -17.699  26.066  51.972  1.00  0.00    -0.284 OA
ENDROOT
BRANCH   1  15
HETATM   15  O1  UNL     1     -16.844  21.745  54.356  1.00  0.00    -0.353 OA
HETATM   16  C1  UNL     1     -18.185  21.563  53.948  1.00  0.00     0.210 C 
ENDBRANCH   1  15
BRANCH   7  17
HETATM   17  O2  UNL     1     -14.141  21.746  54.773  1.00  0.00    -0.350 OA
HETATM   18  C8  UNL     1     -13.858  21.833  56.176  1.00  0.00     0.210 C 
ENDBRANCH   7  17
TORSDOF 2
ENDMDL
MODEL 3
REMARK VINA RESULT: -5.135288459      1.580      2.147
REMARK  2 active torsions:
REMARK  status: ('A' for Active; 'I' for Inactive)
REMARK    1  A    between atoms: O1_2  and  C2_3 
REMARK    2  A    between atoms: C7_9  and  O2_10 
ROOT
HETATM    1  C2  UNL     1     -13.775  26.783  55.133  1.00  0.00     0.105 A 
HETATM    2  C3  UNL     1     -12.869  26.037  54.401  1.00  0.00     0.056 A 
HETATM    3  C4  UNL     1     -11.529  26.424  54.354  1.00  0.00     0.030 A 
HETATM    4  C5  UNL     1     -11.059  27.535  55.014  1.00  0.00     0.002 A 
HETATM    5  C6  UNL     1     -11.993  28.273  55.747  1.00  0.00     0.160 A 
HETATM    6  F1  UNL     1     -11.645  29.386  56.437  1.00  0.00    -0.202 F 
HETATM    7  C7  UNL     1     -13.312  27.879  55.786  1.00  0.00     0.141 A 
HETATM    8  C9  UNL     1      -9.678  28.016  55.021  1.00  0.00     0.026 C 
HETATM    9  C10 UNL     1      -9.523  29.328  54.266  1.00  0.00     0.015 C 
HETATM   10  C11 UNL     1      -8.669  27.052  54.515  1.00  0.00     0.096 C 
HETATM   11  C12 UNL     1      -9.181  26.073  53.556  1.00  0.00     0.200 C 
HETATM   12  O3  UNL     1      -8.430  25.587  52.689  1.00  0.00    -0.289 OA
HETATM   13  C13 UNL     1     -10.569  25.644  53.586  1.00  0.00     0.228 C 
HETATM   14  O4  UNL     1     -10.985  24.626  52.977  1.00  0.00    -0.284 OA
ENDROOT
BRANCH   1  15
HETATM   15  O1  UNL     1     -15.109  26.408  55.189  1.00  0.00    -0.353 OA
HETATM   16  C1  UNL     1     -16.009  26.619  54.119  1.00  0.00     0.210 C 
ENDBRANCH   1  15
BRANCH   7  17
HETATM   17  O2  UNL     1     -14.235  28.629  56.524  1.00  0.00    -0.350 OA
HETATM   18  C8  UNL     1     -14.826  29.799  55.941  1.00  0.00     0.210 C 
ENDBRANCH   7  17
TORSDOF 2
ENDMDL
MODEL 4
REMARK VINA RESULT: -4.919124223      1.559      2.020
REMARK  2 active torsions:
REMARK  status: ('A' for Active; 'I' for Inactive)
REMARK    1  A    between atoms: O1_2  and  C2_3 
REMARK    2  A    between atoms: C7_9  and  O2_10 
ROOT
HETATM    1  C2  UNL     1     -12.980  25.658  53.307  1.00  0.00     0.105 A 
HETATM    2  C3  UNL     1     -11.705  26.159  53.121  1.00  0.00     0.056 A 
HETATM    3  C4  UNL     1     -11.095  26.897  54.137  1.00  0.00     0.030 A 
HETATM    4  C5  UNL     1     -11.717  27.154  55.336  1.00  0.00     0.002 A 
HETATM    5  C6  UNL     1     -13.006  26.638  55.500  1.00  0.00     0.160 A 
HETATM    6  F1  UNL     1     -13.714  26.828  56.640  1.00  0.00    -0.202 F 
HETATM    7  C7  UNL     1     -13.595  25.911  54.490  1.00  0.00     0.141 A 
HETATM    8  C9  UNL     1     -11.158  27.915  56.453  1.00  0.00     0.026 C 
HETATM    9  C10 UNL     1     -11.873  29.242  56.658  1.00  0.00     0.015 C 
HETATM   10  C11 UNL     1      -9.697  28.167  56.381  1.00  0.00     0.096 C 
HETATM   11  C12 UNL     1      -9.144  28.192  55.026  1.00  0.00     0.200 C 
HETATM   12  O3  UNL     1      -8.135  28.876  54.769  1.00  0.00    -0.289 OA
HETATM   13  C13 UNL     1      -9.752  27.428  53.950  1.00  0.00     0.228 C 
HETATM   14  O4  UNL     1      -9.172  27.200  52.859  1.00  0.00    -0.284 OA
ENDROOT
BRANCH   1  15
HETATM   15  O1  UNL     1     -13.598  24.922  52.306  1.00  0.00    -0.353 OA
HETATM   16  C1  UNL     1     -14.524  25.489  51.401  1.00  0.00     0.210 C 
ENDBRANCH   1  15
BRANCH   7  17
HETATM   17  O2  UNL     1     -14.886  25.401  54.669  1.00  0.00    -0.350 OA
HETATM   18  C8  UNL     1     -15.060  24.071  55.175  1.00  0.00     0.210 C 
ENDBRANCH   7  17
TORSDOF 2
ENDMDL
MODEL 5
REMARK VINA RESULT: -4.864261739      2.117      5.767
REMARK  2 active torsions:
REMARK  status: ('A' for Active; 'I' for Inactive)
REMARK    1  A    between atoms: O1_2  and  C2_3 
REMARK    2  A    between atoms: C7_9  and  O2_10 
ROOT
HETATM    1  C2  UNL     1     -10.816  27.963  52.609  1.00  0.00     0.105 A 
HETATM    2  C3  UNL     1     -12.127  28.345  52.828  1.00  0.00     0.056 A 
HETATM    3  C4  UNL     1     -13.044  27.422  53.332  1.00  0.00     0.030 A 
HETATM    4  C5  UNL     1     -12.698  26.124  53.625  1.00  0.00     0.002 A 
HETATM    5  C6  UNL     1     -11.367  25.760  53.395  1.00  0.00     0.160 A 
HETATM    6  F1  UNL     1     -10.912  24.509  53.648  1.00  0.00    -0.202 F 
HETATM    7  C7  UNL     1     -10.472  26.682  52.899  1.00  0.00     0.141 A 
HETATM    8  C9  UNL     1     -13.587  25.091  54.154  1.00  0.00     0.026 C 
HETATM    9  C10 UNL     1     -13.860  23.993  53.136  1.00  0.00     0.015 C 
HETATM   10  C11 UNL     1     -14.884  25.581  54.685  1.00  0.00     0.096 C 
HETATM   11  C12 UNL     1     -15.357  26.832  54.090  1.00  0.00     0.200 C 
HETATM   12  O3  UNL     1     -16.577  27.076  54.023  1.00  0.00    -0.289 OA
HETATM   13  C13 UNL     1     -14.426  27.816  53.566  1.00  0.00     0.228 C 
HETATM   14  O4  UNL     1     -14.757  28.999  53.302  1.00  0.00    -0.284 OA
ENDROOT
BRANCH   1  15
HETATM   15  O1  UNL     1      -9.894  28.871  52.110  1.00  0.00    -0.353 OA
HETATM   16  C1  UNL     1      -9.445  29.989  52.849  1.00  0.00     0.210 C 
ENDBRANCH   1  15
BRANCH   7  17
HETATM   17  O2  UNL     1      -9.144  26.303  52.674  1.00  0.00    -0.350 OA
HETATM   18  C8  UNL     1      -8.141  26.619  53.648  1.00  0.00     0.210 C 
ENDBRANCH   7  17
TORSDOF 2
ENDMDL
