MODEL 1
REMARK VINA RESULT: -4.799905160      0.000      0.000
REMARK  2 active torsions:
REMARK  status: ('A' for Active; 'I' for Inactive)
REMARK    1  A    between atoms: S1_2  and  C2_3 
REMARK    2  A    between atoms: C2_3  and  C3_4 
ROOT
HETATM    1  C3  UNL     1     -12.615  20.100  63.197  1.00  0.00     0.208 C 
HETATM    2  O1  UNL     1     -11.309  20.217  62.659  1.00  0.00    -0.300 OA
HETATM    3  C4  UNL     1     -11.187  19.689  61.404  1.00  0.00     0.301 C 
HETATM    4  O2  UNL     1     -10.245  18.917  61.002  1.00  0.00    -0.259 OA
HETATM    5  C5  UNL     1     -12.276  20.098  60.511  1.00  0.00     0.085 C 
HETATM    6  C6  UNL     1     -12.318  20.162  59.198  1.00  0.00     0.080 C 
HETATM    7 BR1  UNL     1     -10.760  19.659  58.228  1.00  0.00    -0.062 Br
HETATM    8  S2  UNL     1     -13.595  20.510  61.690  1.00  0.00    -0.090 SA
ENDROOT
BRANCH   1   9
HETATM    9  C2  UNL     1     -12.879  18.701  63.650  1.00  0.00     0.117 C 
BRANCH   9  10
HETATM   10  S1  UNL     1     -12.773  18.635  65.441  1.00  0.00    -0.170 SA
HETATM   11  C1  UNL     1     -11.878  20.068  66.050  1.00  0.00     0.089 C 
ENDBRANCH   9  10
ENDBRANCH   1   9
TORSDOF 2
ENDMDL
MODEL 2
REMARK VINA RESULT: -4.114986124      3.034      4.821
REMARK  2 active torsions:
REMARK  status: ('A' for Active; 'I' for Inactive)
REMARK    1  A    between atoms: S1_2  and  C2_3 
REMARK    2  A    between atoms: C2_3  and  C3_4 
ROOT
HETATM    1  C3  UNL     1     -11.752  19.450  59.216  1.00  0.00     0.208 C 
HETATM    2  O1  UNL     1     -11.224  18.688  60.287  1.00  0.00    -0.300 OA
HETATM    3  C4  UNL     1     -11.097  19.396  61.450  1.00  0.00     0.301 C 
HETATM    4  O2  UNL     1     -10.068  19.405  62.215  1.00  0.00    -0.259 OA
HETATM    5  C5  UNL     1     -12.294  20.183  61.766  1.00  0.00     0.085 C 
HETATM    6  C6  UNL     1     -12.730  20.638  62.920  1.00  0.00     0.080 C 
HETATM    7 BR1  UNL     1     -11.701  20.261  64.476  1.00  0.00    -0.062 Br
HETATM    8  S2  UNL     1     -13.055  20.383  60.128  1.00  0.00    -0.090 SA
ENDROOT
BRANCH   1   9
HETATM    9  C2  UNL     1     -10.717  20.372  58.660  1.00  0.00     0.117 C 
BRANCH   9  10
HETATM   10  S1  UNL     1      -9.536  19.418  57.702  1.00  0.00    -0.170 SA
HETATM   11  C1  UNL     1      -8.458  18.501  58.807  1.00  0.00     0.089 C 
ENDBRANCH   9  10
ENDBRANCH   1   9
TORSDOF 2
ENDMDL
MODEL 3
REMARK VINA RESULT: -4.020552852      2.397      2.663
REMARK  2 active torsions:
REMARK  status: ('A' for Active; 'I' for Inactive)
REMARK    1  A    between atoms: S1_2  and  C2_3 
REMARK    2  A    between atoms: C2_3  and  C3_4 
ROOT
HETATM    1  C3  UNL     1     -12.773  20.172  62.704  1.00  0.00     0.208 C 
HETATM    2  O1  UNL     1     -13.343  19.903  61.436  1.00  0.00    -0.300 OA
HETATM    3  C4  UNL     1     -12.476  20.096  60.396  1.00  0.00     0.301 C 
HETATM    4  O2  UNL     1     -12.735  20.727  59.310  1.00  0.00    -0.259 OA
HETATM    5  C5  UNL     1     -11.162  19.493  60.637  1.00  0.00     0.085 C 
HETATM    6  C6  UNL     1     -10.238  19.101  59.786  1.00  0.00     0.080 C 
HETATM    7 BR1  UNL     1     -10.585  19.319  57.928  1.00  0.00    -0.062 Br
HETATM    8  S2  UNL     1     -11.112  19.412  62.452  1.00  0.00    -0.090 SA
ENDROOT
BRANCH   1   9
HETATM    9  C2  UNL     1     -12.664  21.644  62.936  1.00  0.00     0.117 C 
BRANCH   9  10
HETATM   10  S1  UNL     1     -11.368  21.953  64.139  1.00  0.00    -0.170 SA
HETATM   11  C1  UNL     1     -11.037  23.716  64.235  1.00  0.00     0.089 C 
ENDBRANCH   9  10
ENDBRANCH   1   9
TORSDOF 2
ENDMDL
MODEL 4
REMARK VINA RESULT: -3.900298952     10.559     11.235
REMARK  2 active torsions:
REMARK  status: ('A' for Active; 'I' for Inactive)
REMARK    1  A    between atoms: S1_2  and  C2_3 
REMARK    2  A    between atoms: C2_3  and  C3_4 
ROOT
HETATM    1  C3  UNL     1     -12.960  25.499  53.705  1.00  0.00     0.208 C 
HETATM    2  O1  UNL     1     -11.741  24.892  53.316  1.00  0.00    -0.300 OA
HETATM    3  C4  UNL     1     -10.715  25.782  53.158  1.00  0.00     0.301 C 
HETATM    4  O2  UNL     1      -9.900  25.820  52.168  1.00  0.00    -0.259 OA
HETATM    5  C5  UNL     1     -10.618  26.734  54.268  1.00  0.00     0.085 C 
HETATM    6  C6  UNL     1      -9.591  27.436  54.697  1.00  0.00     0.080 C 
HETATM    7 BR1  UNL     1      -7.931  27.240  53.787  1.00  0.00    -0.062 Br
HETATM    8  S2  UNL     1     -12.309  26.714  54.930  1.00  0.00    -0.090 SA
ENDROOT
BRANCH   1   9
HETATM    9  C2  UNL     1     -13.603  26.190  52.548  1.00  0.00     0.117 C 
BRANCH   9  10
HETATM   10  S1  UNL     1     -15.333  25.716  52.469  1.00  0.00    -0.170 SA
HETATM   11  C1  UNL     1     -15.665  24.429  53.677  1.00  0.00     0.089 C 
ENDBRANCH   9  10
ENDBRANCH   1   9
TORSDOF 2
ENDMDL
MODEL 5
REMARK VINA RESULT: -3.894967154      9.295      9.954
REMARK  2 active torsions:
REMARK  status: ('A' for Active; 'I' for Inactive)
REMARK    1  A    between atoms: S1_2  and  C2_3 
REMARK    2  A    between atoms: C2_3  and  C3_4 
ROOT
HETATM    1  C3  UNL     1     -13.906  24.436  54.347  1.00  0.00     0.208 C 
HETATM    2  O1  UNL     1     -14.128  23.103  54.772  1.00  0.00    -0.300 OA
HETATM    3  C4  UNL     1     -15.451  22.770  54.857  1.00  0.00     0.301 C 
HETATM    4  O2  UNL     1     -16.010  22.158  55.835  1.00  0.00    -0.259 OA
HETATM    5  C5  UNL     1     -16.216  23.191  53.679  1.00  0.00     0.085 C 
HETATM    6  C6  UNL     1     -17.347  22.730  53.191  1.00  0.00     0.080 C 
HETATM    7 BR1  UNL     1     -18.190  21.287  54.101  1.00  0.00    -0.062 Br
HETATM    8  S2  UNL     1     -15.193  24.547  53.031  1.00  0.00    -0.090 SA
ENDROOT
BRANCH   1   9
HETATM    9  C2  UNL     1     -14.182  25.399  55.455  1.00  0.00     0.117 C 
BRANCH   9  10
HETATM   10  S1  UNL     1     -13.003  26.750  55.365  1.00  0.00    -0.170 SA
HETATM   11  C1  UNL     1     -11.753  26.384  54.128  1.00  0.00     0.089 C 
ENDBRANCH   9  10
ENDBRANCH   1   9
TORSDOF 2
ENDMDL
