MODEL 1
REMARK VINA RESULT: -6.474653856      0.000      0.000
REMARK  3 active torsions:
REMARK  status: ('A' for Active; 'I' for Inactive)
REMARK    1  A    between atoms: C2_2  and  O2_4 
REMARK    2  A    between atoms: O2_4  and  C3_5 
REMARK    3  A    between atoms: C3_5  and  C4_7 
ROOT
HETATM    1  C4  UNL     1     -11.895  19.568  63.231  1.00  0.00     0.168 A 
HETATM    2  O4  UNL     1     -12.461  18.485  63.683  1.00  0.00    -0.308 OA
HETATM    3  C5  UNL     1     -12.786  18.601  64.949  1.00  0.00     0.051 A 
HETATM    4  C6  UNL     1     -13.445  17.583  65.814  1.00  0.00     0.077 C 
HETATM    5  C7  UNL     1     -12.406  19.859  65.376  1.00  0.00     0.054 A 
HETATM    6  C8  UNL     1     -11.841  20.453  64.259  1.00  0.00     0.053 A 
HETATM    7 BR1  UNL     1     -11.119  22.200  64.182  1.00  0.00    -0.048 Br
ENDROOT
BRANCH   1   8
HETATM    8  C3  UNL     1     -11.424  19.740  61.859  1.00  0.00     0.326 C 
HETATM    9  O3  UNL     1     -10.392  19.176  61.442  1.00  0.00    -0.256 OA
BRANCH   8  10
HETATM   10  O2  UNL     1     -12.106  20.545  60.949  1.00  0.00    -0.240 OA
BRANCH  10  11
HETATM   11  C2  UNL     1     -12.218  20.161  59.621  1.00  0.00     0.262 C 
HETATM   12  C1  UNL     1     -11.334  20.760  58.619  1.00  0.00     0.126 C 
HETATM   13  O1  UNL     1     -13.079  19.295  59.250  1.00  0.00    -0.265 OA
ENDBRANCH  10  11
ENDBRANCH   8  10
ENDBRANCH   1   8
TORSDOF 3
ENDMDL
MODEL 2
REMARK VINA RESULT: -6.421317339      1.315      1.709
REMARK  3 active torsions:
REMARK  status: ('A' for Active; 'I' for Inactive)
REMARK    1  A    between atoms: C2_2  and  O2_4 
REMARK    2  A    between atoms: O2_4  and  C3_5 
REMARK    3  A    between atoms: C3_5  and  C4_7 
ROOT
HETATM    1  C4  UNL     1     -13.139  19.447  63.385  1.00  0.00     0.168 A 
HETATM    2  O4  UNL     1     -13.822  18.355  63.585  1.00  0.00    -0.308 OA
HETATM    3  C5  UNL     1     -13.578  17.841  64.767  1.00  0.00     0.051 A 
HETATM    4  C6  UNL     1     -14.162  16.604  65.357  1.00  0.00     0.077 C 
HETATM    5  C7  UNL     1     -12.660  18.651  65.408  1.00  0.00     0.054 A 
HETATM    6  C8  UNL     1     -12.398  19.667  64.502  1.00  0.00     0.053 A 
HETATM    7 BR1  UNL     1     -11.211  21.114  64.778  1.00  0.00    -0.048 Br
ENDROOT
BRANCH   1   8
HETATM    8  C3  UNL     1     -13.199  20.245  62.164  1.00  0.00     0.326 C 
HETATM    9  O3  UNL     1     -14.250  20.814  61.802  1.00  0.00    -0.256 OA
BRANCH   8  10
HETATM   10  O2  UNL     1     -12.086  20.410  61.343  1.00  0.00    -0.240 OA
BRANCH  10  11
HETATM   11  C2  UNL     1     -11.940  19.641  60.199  1.00  0.00     0.262 C 
HETATM   12  C1  UNL     1     -10.664  18.971  59.937  1.00  0.00     0.126 C 
HETATM   13  O1  UNL     1     -12.895  19.502  59.363  1.00  0.00    -0.265 OA
ENDBRANCH  10  11
ENDBRANCH   8  10
ENDBRANCH   1   8
TORSDOF 3
ENDMDL
MODEL 3
REMARK VINA RESULT: -5.673866147      1.864      2.726
REMARK  3 active torsions:
REMARK  status: ('A' for Active; 'I' for Inactive)
REMARK    1  A    between atoms: C2_2  and  O2_4 
REMARK    2  A    between atoms: O2_4  and  C3_5 
REMARK    3  A    between atoms: C3_5  and  C4_7 
ROOT
HETATM    1  C4  UNL     1     -11.689  20.644  62.897  1.00  0.00     0.168 A 
HETATM    2  O4  UNL     1     -11.286  21.881  62.973  1.00  0.00    -0.308 OA
HETATM    3  C5  UNL     1     -11.392  22.351  64.194  1.00  0.00     0.051 A 
HETATM    4  C6  UNL     1     -11.035  23.714  64.676  1.00  0.00     0.077 C 
HETATM    5  C7  UNL     1     -11.905  21.349  64.997  1.00  0.00     0.054 A 
HETATM    6  C8  UNL     1     -12.084  20.273  64.142  1.00  0.00     0.053 A 
HETATM    7 BR1  UNL     1     -12.764  18.576  64.631  1.00  0.00    -0.048 Br
ENDROOT
BRANCH   1   8
HETATM    8  C3  UNL     1     -11.691  19.852  61.670  1.00  0.00     0.326 C 
HETATM    9  O3  UNL     1     -10.789  19.026  61.420  1.00  0.00    -0.256 OA
BRANCH   8  10
HETATM   10  O2  UNL     1     -12.700  19.981  60.719  1.00  0.00    -0.240 OA
BRANCH  10  11
HETATM   11  C2  UNL     1     -12.386  20.082  59.373  1.00  0.00     0.262 C 
HETATM   12  C1  UNL     1     -11.281  20.947  58.952  1.00  0.00     0.126 C 
HETATM   13  O1  UNL     1     -13.039  19.436  58.487  1.00  0.00    -0.265 OA
ENDBRANCH  10  11
ENDBRANCH   8  10
ENDBRANCH   1   8
TORSDOF 3
ENDMDL
MODEL 4
REMARK VINA RESULT: -5.667540641      2.132      3.079
REMARK  3 active torsions:
REMARK  status: ('A' for Active; 'I' for Inactive)
REMARK    1  A    between atoms: C2_2  and  O2_4 
REMARK    2  A    between atoms: O2_4  and  C3_5 
REMARK    3  A    between atoms: C3_5  and  C4_7 
ROOT
HETATM    1  C4  UNL     1     -12.589  20.804  63.084  1.00  0.00     0.168 A 
HETATM    2  O4  UNL     1     -12.059  21.989  62.967  1.00  0.00    -0.308 OA
HETATM    3  C5  UNL     1     -11.385  22.325  64.042  1.00  0.00     0.051 A 
HETATM    4  C6  UNL     1     -10.644  23.594  64.289  1.00  0.00     0.077 C 
HETATM    5  C7  UNL     1     -11.471  21.284  64.947  1.00  0.00     0.054 A 
HETATM    6  C8  UNL     1     -12.245  20.328  64.308  1.00  0.00     0.053 A 
HETATM    7 BR1  UNL     1     -12.735  18.646  65.023  1.00  0.00    -0.048 Br
ENDROOT
BRANCH   1   8
HETATM    8  C3  UNL     1     -13.395  20.157  62.052  1.00  0.00     0.326 C 
HETATM    9  O3  UNL     1     -14.207  19.249  62.326  1.00  0.00    -0.256 OA
BRANCH   8  10
HETATM   10  O2  UNL     1     -13.295  20.522  60.711  1.00  0.00    -0.240 OA
BRANCH  10  11
HETATM   11  C2  UNL     1     -12.483  19.802  59.848  1.00  0.00     0.262 C 
HETATM   12  C1  UNL     1     -11.133  19.425  60.273  1.00  0.00     0.126 C 
HETATM   13  O1  UNL     1     -12.885  19.461  58.686  1.00  0.00    -0.265 OA
ENDBRANCH  10  11
ENDBRANCH   8  10
ENDBRANCH   1   8
TORSDOF 3
ENDMDL
MODEL 5
REMARK VINA RESULT: -5.640609573      2.548      5.125
REMARK  3 active torsions:
REMARK  status: ('A' for Active; 'I' for Inactive)
REMARK    1  A    between atoms: C2_2  and  O2_4 
REMARK    2  A    between atoms: O2_4  and  C3_5 
REMARK    3  A    between atoms: C3_5  and  C4_7 
ROOT
HETATM    1  C4  UNL     1     -11.247  19.644  60.479  1.00  0.00     0.168 A 
HETATM    2  O4  UNL     1     -10.180  18.960  60.786  1.00  0.00    -0.308 OA
HETATM    3  C5  UNL     1      -9.502  18.615  59.717  1.00  0.00     0.051 A 
HETATM    4  C6  UNL     1      -8.236  17.833  59.659  1.00  0.00     0.077 C 
HETATM    5  C7  UNL     1     -10.167  19.106  58.609  1.00  0.00     0.054 A 
HETATM    6  C8  UNL     1     -11.276  19.757  59.127  1.00  0.00     0.053 A 
HETATM    7 BR1  UNL     1     -12.602  20.653  58.116  1.00  0.00    -0.048 Br
ENDROOT
BRANCH   1   8
HETATM    8  C3  UNL     1     -12.200  20.166  61.455  1.00  0.00     0.326 C 
HETATM    9  O3  UNL     1     -13.426  20.194  61.225  1.00  0.00    -0.256 OA
BRANCH   8  10
HETATM   10  O2  UNL     1     -11.784  20.660  62.689  1.00  0.00    -0.240 OA
BRANCH  10  11
HETATM   11  C2  UNL     1     -11.906  19.884  63.832  1.00  0.00     0.262 C 
HETATM   12  C1  UNL     1     -11.608  20.472  65.139  1.00  0.00     0.126 C 
HETATM   13  O1  UNL     1     -12.273  18.663  63.770  1.00  0.00    -0.265 OA
ENDBRANCH  10  11
ENDBRANCH   8  10
ENDBRANCH   1   8
TORSDOF 3
ENDMDL
