MODEL 1
REMARK VINA RESULT: -5.803701845      0.000      0.000
REMARK  3 active torsions:
REMARK  status: ('A' for Active; 'I' for Inactive)
REMARK    1  A    between atoms: O1_2  and  C2_3 
REMARK       I    between atoms: C2_3  and  N1_5 
REMARK    2  A    between atoms: C5_9  and  C7_11 
REMARK    3  A    between atoms: C7_11  and  O4_13 
ROOT
HETATM    1  C2  UNL     1     -11.309  25.466  53.407  1.00  0.00     0.364 C 
HETATM    2  O2  UNL     1     -10.718  24.372  53.208  1.00  0.00    -0.238 OA
HETATM    3  N1  UNL     1     -12.470  25.889  52.755  1.00  0.00    -0.307 N 
ATOM      4  H1  UNL     1     -12.417  26.796  52.292  1.00  0.00     0.170 HD
HETATM    5  C3  UNL     1     -13.577  25.288  52.668  1.00  0.00     0.026 C 
HETATM    6  C4  UNL     1     -13.895  23.967  53.256  1.00  0.00     0.075 C 
HETATM    7  C5  UNL     1     -15.188  24.051  54.064  1.00  0.00     0.049 C 
HETATM    8  C6  UNL     1     -14.996  24.899  55.298  1.00  0.00     0.026 C 
HETATM    9  C9  UNL     1     -16.271  24.623  53.156  1.00  0.00     0.023 C 
HETATM   10  C10 UNL     1     -15.877  26.054  52.850  1.00  0.00     0.044 C 
HETATM   11  C11 UNL     1     -14.669  25.962  51.907  1.00  0.00     0.215 C 
HETATM   12  F1  UNL     1     -14.338  27.234  51.536  1.00  0.00    -0.243 F 
ENDROOT
BRANCH   1  13
HETATM   13  O1  UNL     1     -10.743  26.311  54.360  1.00  0.00    -0.309 OA
HETATM   14  C1  UNL     1      -9.419  26.767  54.315  1.00  0.00     0.215 C 
ENDBRANCH   1  13
BRANCH   7  15
HETATM   15  C7  UNL     1     -15.620  22.713  54.476  1.00  0.00     0.267 C 
HETATM   16  O3  UNL     1     -15.203  22.218  55.538  1.00  0.00    -0.264 OA
BRANCH  15  17
HETATM   17  O4  UNL     1     -16.493  21.993  53.692  1.00  0.00    -0.326 OA
HETATM   18  C8  UNL     1     -17.786  21.605  54.122  1.00  0.00     0.213 C 
ENDBRANCH  15  17
ENDBRANCH   7  15
TORSDOF 3
ENDMDL
MODEL 2
REMARK VINA RESULT: -5.357151421      0.705      1.339
REMARK  3 active torsions:
REMARK  status: ('A' for Active; 'I' for Inactive)
REMARK    1  A    between atoms: O1_2  and  C2_3 
REMARK       I    between atoms: C2_3  and  N1_5 
REMARK    2  A    between atoms: C5_9  and  C7_11 
REMARK    3  A    between atoms: C7_11  and  O4_13 
ROOT
HETATM    1  C2  UNL     1     -11.263  25.804  53.426  1.00  0.00     0.364 C 
HETATM    2  O2  UNL     1     -10.602  24.748  53.242  1.00  0.00    -0.238 OA
HETATM    3  N1  UNL     1     -12.445  26.145  52.763  1.00  0.00    -0.307 N 
ATOM      4  H1  UNL     1     -12.446  27.049  52.291  1.00  0.00     0.170 HD
HETATM    5  C3  UNL     1     -13.511  25.473  52.676  1.00  0.00     0.026 C 
HETATM    6  C4  UNL     1     -13.747  24.140  53.275  1.00  0.00     0.075 C 
HETATM    7  C5  UNL     1     -15.048  24.149  54.074  1.00  0.00     0.049 C 
HETATM    8  C6  UNL     1     -14.918  25.020  55.301  1.00  0.00     0.026 C 
HETATM    9  C9  UNL     1     -16.159  24.641  53.155  1.00  0.00     0.023 C 
HETATM   10  C10 UNL     1     -15.856  26.092  52.837  1.00  0.00     0.044 C 
HETATM   11  C11 UNL     1     -14.638  26.069  51.901  1.00  0.00     0.215 C 
HETATM   12  F1  UNL     1     -14.387  27.356  51.520  1.00  0.00    -0.243 F 
ENDROOT
BRANCH   1  13
HETATM   13  O1  UNL     1     -10.759  26.693  54.374  1.00  0.00    -0.309 OA
HETATM   14  C1  UNL     1      -9.392  26.897  54.607  1.00  0.00     0.215 C 
ENDBRANCH   1  13
BRANCH   7  15
HETATM   15  C7  UNL     1     -15.396  22.791  54.497  1.00  0.00     0.267 C 
HETATM   16  O3  UNL     1     -15.978  22.019  53.714  1.00  0.00    -0.264 OA
BRANCH  15  17
HETATM   17  O4  UNL     1     -15.082  22.356  55.764  1.00  0.00    -0.326 OA
HETATM   18  C8  UNL     1     -13.862  21.712  56.087  1.00  0.00     0.213 C 
ENDBRANCH  15  17
ENDBRANCH   7  15
TORSDOF 3
ENDMDL
MODEL 3
REMARK VINA RESULT: -5.305289069     10.906     12.740
REMARK  3 active torsions:
REMARK  status: ('A' for Active; 'I' for Inactive)
REMARK    1  A    between atoms: O1_2  and  C2_3 
REMARK       I    between atoms: C2_3  and  N1_5 
REMARK    2  A    between atoms: C5_9  and  C7_11 
REMARK    3  A    between atoms: C7_11  and  O4_13 
ROOT
HETATM    1  C2  UNL     1     -14.107  16.977  65.063  1.00  0.00     0.364 C 
HETATM    2  O2  UNL     1     -13.645  15.936  64.525  1.00  0.00    -0.238 OA
HETATM    3  N1  UNL     1     -13.349  18.066  65.501  1.00  0.00    -0.307 N 
ATOM      4  H1  UNL     1     -13.482  18.339  66.475  1.00  0.00     0.170 HD
HETATM    5  C3  UNL     1     -12.521  18.755  64.842  1.00  0.00     0.026 C 
HETATM    6  C4  UNL     1     -12.162  18.552  63.420  1.00  0.00     0.075 C 
HETATM    7  C5  UNL     1     -12.281  19.869  62.658  1.00  0.00     0.049 C 
HETATM    8  C6  UNL     1     -13.724  20.301  62.553  1.00  0.00     0.026 C 
HETATM    9  C9  UNL     1     -11.438  20.909  63.386  1.00  0.00     0.023 C 
HETATM   10  C10 UNL     1     -12.097  21.145  64.731  1.00  0.00     0.044 C 
HETATM   11  C11 UNL     1     -11.837  19.875  65.552  1.00  0.00     0.215 C 
HETATM   12  F1  UNL     1     -12.340  20.083  66.804  1.00  0.00    -0.243 F 
ENDROOT
BRANCH   1  13
HETATM   13  O1  UNL     1     -15.490  17.029  65.224  1.00  0.00    -0.309 OA
HETATM   14  C1  UNL     1     -16.293  15.907  65.470  1.00  0.00     0.215 C 
ENDBRANCH   1  13
BRANCH   7  15
HETATM   15  C7  UNL     1     -11.734  19.728  61.306  1.00  0.00     0.267 C 
HETATM   16  O3  UNL     1     -10.604  19.236  61.134  1.00  0.00    -0.264 OA
BRANCH  15  17
HETATM   17  O4  UNL     1     -12.465  20.137  60.215  1.00  0.00    -0.326 OA
HETATM   18  C8  UNL     1     -12.336  19.557  58.929  1.00  0.00     0.213 C 
ENDBRANCH  15  17
ENDBRANCH   7  15
TORSDOF 3
ENDMDL
MODEL 4
REMARK VINA RESULT: -5.191338791      2.296      2.894
REMARK  3 active torsions:
REMARK  status: ('A' for Active; 'I' for Inactive)
REMARK    1  A    between atoms: O1_2  and  C2_3 
REMARK       I    between atoms: C2_3  and  N1_5 
REMARK    2  A    between atoms: C5_9  and  C7_11 
REMARK    3  A    between atoms: C7_11  and  O4_13 
ROOT
HETATM    1  C2  UNL     1      -9.364  25.743  52.887  1.00  0.00     0.364 C 
HETATM    2  O2  UNL     1      -9.405  24.501  52.681  1.00  0.00    -0.238 OA
HETATM    3  N1  UNL     1     -10.304  26.671  52.430  1.00  0.00    -0.307 N 
ATOM      4  H1  UNL     1      -9.934  27.448  51.884  1.00  0.00     0.170 HD
HETATM    5  C3  UNL     1     -11.554  26.665  52.609  1.00  0.00     0.026 C 
HETATM    6  C4  UNL     1     -12.318  25.647  53.364  1.00  0.00     0.075 C 
HETATM    7  C5  UNL     1     -13.222  26.325  54.390  1.00  0.00     0.049 C 
HETATM    8  C6  UNL     1     -12.404  26.971  55.483  1.00  0.00     0.026 C 
HETATM    9  C9  UNL     1     -14.079  27.349  53.655  1.00  0.00     0.023 C 
HETATM   10  C10 UNL     1     -13.139  28.427  53.150  1.00  0.00     0.044 C 
HETATM   11  C11 UNL     1     -12.340  27.783  52.009  1.00  0.00     0.215 C 
HETATM   12  F1  UNL     1     -11.543  28.749  51.468  1.00  0.00    -0.243 F 
ENDROOT
BRANCH   1  13
HETATM   13  O1  UNL     1      -8.286  26.212  53.635  1.00  0.00    -0.309 OA
HETATM   14  C1  UNL     1      -7.834  27.538  53.611  1.00  0.00     0.215 C 
ENDBRANCH   1  13
BRANCH   7  15
HETATM   15  C7  UNL     1     -14.129  25.347  54.997  1.00  0.00     0.267 C 
HETATM   16  O3  UNL     1     -14.893  25.687  55.919  1.00  0.00    -0.264 OA
BRANCH  15  17
HETATM   17  O4  UNL     1     -14.144  24.045  54.553  1.00  0.00    -0.326 OA
HETATM   18  C8  UNL     1     -14.758  22.987  55.266  1.00  0.00     0.213 C 
ENDBRANCH  15  17
ENDBRANCH   7  15
TORSDOF 3
ENDMDL
MODEL 5
REMARK VINA RESULT: -5.174108334      2.813      6.103
REMARK  3 active torsions:
REMARK  status: ('A' for Active; 'I' for Inactive)
REMARK    1  A    between atoms: O1_2  and  C2_3 
REMARK       I    between atoms: C2_3  and  N1_5 
REMARK    2  A    between atoms: C5_9  and  C7_11 
REMARK    3  A    between atoms: C7_11  and  O4_13 
ROOT
HETATM    1  C2  UNL     1     -14.073  25.189  52.462  1.00  0.00     0.364 C 
HETATM    2  O2  UNL     1     -13.717  24.022  52.153  1.00  0.00    -0.238 OA
HETATM    3  N1  UNL     1     -13.815  25.819  53.682  1.00  0.00    -0.307 N 
ATOM      4  H1  UNL     1     -14.629  26.183  54.177  1.00  0.00     0.170 HD
HETATM    5  C3  UNL     1     -12.700  25.992  54.249  1.00  0.00     0.026 C 
HETATM    6  C4  UNL     1     -11.385  25.554  53.727  1.00  0.00     0.075 C 
HETATM    7  C5  UNL     1     -10.400  26.720  53.745  1.00  0.00     0.049 C 
HETATM    8  C6  UNL     1     -10.796  27.773  52.738  1.00  0.00     0.026 C 
HETATM    9  C9  UNL     1     -10.369  27.284  55.160  1.00  0.00     0.023 C 
HETATM   10  C10 UNL     1     -11.735  27.888  55.423  1.00  0.00     0.044 C 
HETATM   11  C11 UNL     1     -12.697  26.700  55.562  1.00  0.00     0.215 C 
HETATM   12  F1  UNL     1     -13.925  27.200  55.887  1.00  0.00    -0.243 F 
ENDROOT
BRANCH   1  13
HETATM   13  O1  UNL     1     -14.782  25.897  51.493  1.00  0.00    -0.309 OA
HETATM   14  C1  UNL     1     -14.799  27.295  51.400  1.00  0.00     0.215 C 
ENDBRANCH   1  13
BRANCH   7  15
HETATM   15  C7  UNL     1      -9.049  26.252  53.428  1.00  0.00     0.267 C 
HETATM   16  O3  UNL     1      -8.878  25.339  52.601  1.00  0.00    -0.264 OA
BRANCH  15  17
HETATM   17  O4  UNL     1      -7.956  26.818  54.043  1.00  0.00    -0.326 OA
HETATM   18  C8  UNL     1      -7.100  27.749  53.406  1.00  0.00     0.213 C 
ENDBRANCH  15  17
ENDBRANCH   7  15
TORSDOF 3
ENDMDL
