MODEL 1
REMARK VINA RESULT: -7.372535927      0.000      0.000
REMARK  13 active torsions:
REMARK  status: ('A' for Active; 'I' for Inactive)
REMARK    1  A    between atoms: C2_2  and  O1_3 
REMARK    2  A    between atoms: C2_2  and  C3_5 
REMARK    3  A    between atoms: C3_5  and  O2_6 
REMARK    4  A    between atoms: C3_5  and  C4_8 
REMARK    5  A    between atoms: C4_8  and  O3_9 
REMARK    6  A    between atoms: C4_8  and  C5_11 
REMARK    7  A    between atoms: C5_11  and  S1_13 
REMARK    8  A    between atoms: S1_13  and  C7_14 
REMARK    9  A    between atoms: C8_16  and  N1_17 
REMARK   10  A    between atoms: N1_17  and  C9_19 
REMARK   11  A    between atoms: C10_22  and  N3_23 
REMARK   12  A    between atoms: N5_27  and  N6_28 
REMARK   13  A    between atoms: N7_33  and  O6_34 
ROOT
HETATM    1  N3  UNL     1      35.764  13.486 -33.771  1.00  0.00    -0.123 N 
ATOM      2  H3  UNL     1      35.792  12.924 -32.921  1.00  0.00     0.197 HD
HETATM    3  C11 UNL     1      35.301  12.863 -34.925  1.00  0.00     0.196 C 
HETATM    4  N4  UNL     1      34.923  12.357 -35.905  1.00  0.00    -0.171 NA
ENDROOT
BRANCH   1   5
HETATM    5  C10 UNL     1      36.158  14.699 -33.677  1.00  0.00     0.731 A 
HETATM    6  N2  UNL     1      35.415  15.755 -34.098  1.00  0.00    -0.017 N 
HETATM    7  C9  UNL     1      35.861  17.018 -33.995  1.00  0.00     0.727 A 
ATOM      8  H2  UNL     1      34.494  15.586 -34.503  1.00  0.00     0.203 HD
HETATM    9  N7  UNL     1      37.067  17.271 -33.466  1.00  0.00     0.007 N 
HETATM   10  C12 UNL     1      37.797  16.220 -33.051  1.00  0.00     0.401 A 
HETATM   11  N5  UNL     1      37.365  14.940 -33.148  1.00  0.00    -0.034 N 
HETATM   12  O5  UNL     1      38.939  16.421 -32.547  1.00  0.00    -0.241 OA
BRANCH   7  13
HETATM   13  N1  UNL     1      35.064  18.127 -34.439  1.00  0.00    -0.173 N 
ATOM     14  H1  UNL     1      35.140  19.028 -33.966  1.00  0.00     0.183 HD
BRANCH  13  15
HETATM   15  C8  UNL     1      34.150  17.972 -35.556  1.00  0.00     0.388 C 
HETATM   16  O4  UNL     1      33.050  17.314 -35.125  1.00  0.00    -0.325 OA
HETATM   17  C7  UNL     1      31.886  18.055 -35.448  1.00  0.00     0.222 C 
HETATM   18  C13 UNL     1      32.419  19.146 -36.309  1.00  0.00     0.094 C 
HETATM   19  O7  UNL     1      33.807  19.177 -36.075  1.00  0.00    -0.330 OA
HETATM   20  C14 UNL     1      32.264  18.928 -37.790  1.00  0.00     0.049 C 
HETATM   21  C15 UNL     1      31.961  20.543 -35.865  1.00  0.00     0.049 C 
BRANCH  17  22
HETATM   22  S1  UNL     1      30.758  16.905 -36.146  1.00  0.00    -0.127 SA
BRANCH  22  23
HETATM   23  C5  UNL     1      31.235  15.508 -37.052  1.00  0.00     0.077 C 
HETATM   24  C6  UNL     1      31.746  15.766 -38.454  1.00  0.00     0.024 C 
BRANCH  23  25
HETATM   25  C4  UNL     1      32.163  14.529 -36.390  1.00  0.00     0.163 C 
BRANCH  25  26
HETATM   26  C3  UNL     1      31.374  13.510 -35.538  1.00  0.00     0.176 C 
BRANCH  26  27
HETATM   27  C2  UNL     1      31.678  13.812 -34.079  1.00  0.00     0.145 C 
HETATM   28  C1  UNL     1      32.206  12.510 -33.481  1.00  0.00     0.042 C 
BRANCH  27  29
HETATM   29  O1  UNL     1      32.699  14.767 -34.014  1.00  0.00    -0.393 OA
ATOM     30  H1  UNL     1      32.510  15.445 -34.652  1.00  0.00     0.210 HD
ENDBRANCH  27  29
ENDBRANCH  26  27
BRANCH  26  31
HETATM   31  O2  UNL     1      31.727  12.216 -35.778  1.00  0.00    -0.390 OA
ATOM     32  H2  UNL     1      31.518  12.021 -36.684  1.00  0.00     0.210 HD
ENDBRANCH  26  31
ENDBRANCH  25  26
BRANCH  25  33
HETATM   33  O3  UNL     1      32.909  13.766 -37.302  1.00  0.00    -0.392 OA
ATOM     34  H3  UNL     1      32.272  13.284 -37.816  1.00  0.00     0.210 HD
ENDBRANCH  25  33
ENDBRANCH  23  25
ENDBRANCH  22  23
ENDBRANCH  17  22
ENDBRANCH  13  15
ENDBRANCH   7  13
BRANCH   9  35
HETATM   35  O6  UNL     1      37.541  18.550 -33.354  1.00  0.00    -0.265 OA
ATOM     36  H6  UNL     1      38.103  18.929 -34.020  1.00  0.00     0.246 HD
ENDBRANCH   9  35
BRANCH  11  37
HETATM   37  N6  UNL     1      38.139  13.851 -32.709  1.00  0.00    -0.320 N 
ATOM     38  H62 UNL     1      37.736  12.930 -32.538  1.00  0.00     0.178 HD
ATOM     39  H61 UNL     1      39.139  13.990 -32.561  1.00  0.00     0.178 HD
ENDBRANCH  11  37
ENDBRANCH   1   5
TORSDOF 13
ENDMDL
MODEL 2
REMARK VINA RESULT: -7.352721449      0.867      1.520
REMARK  13 active torsions:
REMARK  status: ('A' for Active; 'I' for Inactive)
REMARK    1  A    between atoms: C2_2  and  O1_3 
REMARK    2  A    between atoms: C2_2  and  C3_5 
REMARK    3  A    between atoms: C3_5  and  O2_6 
REMARK    4  A    between atoms: C3_5  and  C4_8 
REMARK    5  A    between atoms: C4_8  and  O3_9 
REMARK    6  A    between atoms: C4_8  and  C5_11 
REMARK    7  A    between atoms: C5_11  and  S1_13 
REMARK    8  A    between atoms: S1_13  and  C7_14 
REMARK    9  A    between atoms: C8_16  and  N1_17 
REMARK   10  A    between atoms: N1_17  and  C9_19 
REMARK   11  A    between atoms: C10_22  and  N3_23 
REMARK   12  A    between atoms: N5_27  and  N6_28 
REMARK   13  A    between atoms: N7_33  and  O6_34 
ROOT
HETATM    1  N3  UNL     1      35.674  13.493 -33.665  1.00  0.00    -0.123 N 
ATOM      2  H3  UNL     1      35.673  12.933 -32.813  1.00  0.00     0.197 HD
HETATM    3  C11 UNL     1      35.199  12.883 -34.822  1.00  0.00     0.196 C 
HETATM    4  N4  UNL     1      34.813  12.388 -35.804  1.00  0.00    -0.171 NA
ENDROOT
BRANCH   1   5
HETATM    5  C10 UNL     1      36.111  14.690 -33.571  1.00  0.00     0.731 A 
HETATM    6  N2  UNL     1      35.382  15.778 -33.932  1.00  0.00    -0.017 N 
HETATM    7  C9  UNL     1      35.874  17.024 -33.831  1.00  0.00     0.727 A 
ATOM      8  H2  UNL     1      34.436  15.645 -34.289  1.00  0.00     0.203 HD
HETATM    9  N7  UNL     1      37.114  17.228 -33.364  1.00  0.00     0.007 N 
HETATM   10  C12 UNL     1      37.831  16.147 -33.009  1.00  0.00     0.401 A 
HETATM   11  N5  UNL     1      37.353  14.883 -33.105  1.00  0.00    -0.034 N 
HETATM   12  O5  UNL     1      39.004  16.302 -32.565  1.00  0.00    -0.241 OA
BRANCH   7  13
HETATM   13  N1  UNL     1      35.090  18.165 -34.211  1.00  0.00    -0.173 N 
ATOM     14  H1  UNL     1      35.182  19.039 -33.692  1.00  0.00     0.183 HD
BRANCH  13  15
HETATM   15  C8  UNL     1      34.168  18.083 -35.329  1.00  0.00     0.388 C 
HETATM   16  O4  UNL     1      32.924  17.861 -34.847  1.00  0.00    -0.325 OA
HETATM   17  C7  UNL     1      32.029  18.838 -35.352  1.00  0.00     0.222 C 
HETATM   18  C13 UNL     1      32.857  19.551 -36.362  1.00  0.00     0.094 C 
HETATM   19  O7  UNL     1      34.194  19.221 -36.067  1.00  0.00    -0.330 OA
HETATM   20  C14 UNL     1      32.641  19.124 -37.788  1.00  0.00     0.049 C 
HETATM   21  C15 UNL     1      32.832  21.078 -36.192  1.00  0.00     0.049 C 
BRANCH  17  22
HETATM   22  S1  UNL     1      30.611  17.957 -35.896  1.00  0.00    -0.127 SA
BRANCH  22  23
HETATM   23  C5  UNL     1      30.564  16.241 -36.127  1.00  0.00     0.077 C 
HETATM   24  C6  UNL     1      31.578  15.671 -37.097  1.00  0.00     0.024 C 
BRANCH  23  25
HETATM   25  C4  UNL     1      30.551  15.372 -34.901  1.00  0.00     0.163 C 
BRANCH  25  26
HETATM   26  C3  UNL     1      31.796  14.459 -34.858  1.00  0.00     0.176 C 
BRANCH  26  27
HETATM   27  C2  UNL     1      31.301  13.030 -34.686  1.00  0.00     0.145 C 
HETATM   28  C1  UNL     1      29.776  13.103 -34.747  1.00  0.00     0.042 C 
BRANCH  27  29
HETATM   29  O1  UNL     1      31.744  12.261 -35.768  1.00  0.00    -0.393 OA
ATOM     30  H1  UNL     1      31.486  11.360 -35.615  1.00  0.00     0.210 HD
ENDBRANCH  27  29
ENDBRANCH  26  27
BRANCH  26  31
HETATM   31  O2  UNL     1      32.635  14.736 -33.820  1.00  0.00    -0.390 OA
ATOM     32  H2  UNL     1      33.498  14.413 -34.051  1.00  0.00     0.210 HD
ENDBRANCH  26  31
ENDBRANCH  25  26
BRANCH  25  33
HETATM   33  O3  UNL     1      30.573  16.102 -33.701  1.00  0.00    -0.392 OA
ATOM     34  H3  UNL     1      30.815  16.988 -33.943  1.00  0.00     0.210 HD
ENDBRANCH  25  33
ENDBRANCH  23  25
ENDBRANCH  22  23
ENDBRANCH  17  22
ENDBRANCH  13  15
ENDBRANCH   7  13
BRANCH   9  35
HETATM   35  O6  UNL     1      37.635  18.489 -33.256  1.00  0.00    -0.265 OA
ATOM     36  H6  UNL     1      37.649  18.948 -32.424  1.00  0.00     0.246 HD
ENDBRANCH   9  35
BRANCH  11  37
HETATM   37  N6  UNL     1      38.114  13.762 -32.729  1.00  0.00    -0.320 N 
ATOM     38  H62 UNL     1      37.857  13.169 -31.940  1.00  0.00     0.178 HD
ATOM     39  H61 UNL     1      38.950  13.535 -33.267  1.00  0.00     0.178 HD
ENDBRANCH  11  37
ENDBRANCH   1   5
TORSDOF 13
ENDMDL
MODEL 3
REMARK VINA RESULT: -7.322100477      2.554      2.950
REMARK  13 active torsions:
REMARK  status: ('A' for Active; 'I' for Inactive)
REMARK    1  A    between atoms: C2_2  and  O1_3 
REMARK    2  A    between atoms: C2_2  and  C3_5 
REMARK    3  A    between atoms: C3_5  and  O2_6 
REMARK    4  A    between atoms: C3_5  and  C4_8 
REMARK    5  A    between atoms: C4_8  and  O3_9 
REMARK    6  A    between atoms: C4_8  and  C5_11 
REMARK    7  A    between atoms: C5_11  and  S1_13 
REMARK    8  A    between atoms: S1_13  and  C7_14 
REMARK    9  A    between atoms: C8_16  and  N1_17 
REMARK   10  A    between atoms: N1_17  and  C9_19 
REMARK   11  A    between atoms: C10_22  and  N3_23 
REMARK   12  A    between atoms: N5_27  and  N6_28 
REMARK   13  A    between atoms: N7_33  and  O6_34 
ROOT
HETATM    1  N3  UNL     1      33.679  13.278 -33.705  1.00  0.00    -0.123 N 
ATOM      2  H3  UNL     1      33.918  12.637 -32.949  1.00  0.00     0.197 HD
HETATM    3  C11 UNL     1      32.859  12.786 -34.715  1.00  0.00     0.196 C 
HETATM    4  N4  UNL     1      32.179  12.390 -35.576  1.00  0.00    -0.171 NA
ENDROOT
BRANCH   1   5
HETATM    5  C10 UNL     1      34.162  14.460 -33.637  1.00  0.00     0.731 A 
HETATM    6  N2  UNL     1      33.402  15.559 -33.390  1.00  0.00    -0.017 N 
HETATM    7  C9  UNL     1      33.938  16.789 -33.334  1.00  0.00     0.727 A 
ATOM      8  H2  UNL     1      32.399  15.447 -33.242  1.00  0.00     0.203 HD
HETATM    9  N7  UNL     1      35.254  16.967 -33.524  1.00  0.00     0.007 N 
HETATM   10  C12 UNL     1      35.999  15.874 -33.769  1.00  0.00     0.401 A 
HETATM   11  N5  UNL     1      35.478  14.625 -33.829  1.00  0.00    -0.034 N 
HETATM   12  O5  UNL     1      37.243  16.003 -33.952  1.00  0.00    -0.241 OA
BRANCH   7  13
HETATM   13  N1  UNL     1      33.125  17.942 -33.067  1.00  0.00    -0.173 N 
ATOM     14  H1  UNL     1      33.268  18.476 -32.209  1.00  0.00     0.183 HD
BRANCH  13  15
HETATM   15  C8  UNL     1      32.102  18.353 -34.010  1.00  0.00     0.388 C 
HETATM   16  O4  UNL     1      31.096  17.449 -33.977  1.00  0.00    -0.325 OA
HETATM   17  C7  UNL     1      29.863  18.106 -33.741  1.00  0.00     0.222 C 
HETATM   18  C13 UNL     1      30.233  19.544 -33.840  1.00  0.00     0.094 C 
HETATM   19  O7  UNL     1      31.634  19.591 -33.714  1.00  0.00    -0.330 OA
HETATM   20  C14 UNL     1      29.924  20.196 -35.161  1.00  0.00     0.049 C 
HETATM   21  C15 UNL     1      29.748  20.375 -32.643  1.00  0.00     0.049 C 
BRANCH  17  22
HETATM   22  S1  UNL     1      28.731  17.444 -34.909  1.00  0.00    -0.127 SA
BRANCH  22  23
HETATM   23  C5  UNL     1      29.200  16.514 -36.293  1.00  0.00     0.077 C 
HETATM   24  C6  UNL     1      30.387  17.035 -37.075  1.00  0.00     0.024 C 
BRANCH  23  25
HETATM   25  C4  UNL     1      29.372  15.032 -36.113  1.00  0.00     0.163 C 
BRANCH  25  26
HETATM   26  C3  UNL     1      28.009  14.307 -36.166  1.00  0.00     0.176 C 
BRANCH  26  27
HETATM   27  C2  UNL     1      28.042  13.209 -35.114  1.00  0.00     0.145 C 
HETATM   28  C1  UNL     1      27.006  12.176 -35.552  1.00  0.00     0.042 C 
BRANCH  27  29
HETATM   29  O1  UNL     1      29.301  12.598 -35.133  1.00  0.00    -0.393 OA
ATOM     30  H1  UNL     1      29.821  12.971 -34.431  1.00  0.00     0.210 HD
ENDBRANCH  27  29
ENDBRANCH  26  27
BRANCH  26  31
HETATM   31  O2  UNL     1      27.754  13.723 -37.371  1.00  0.00    -0.390 OA
ATOM     32  H2  UNL     1      28.109  14.286 -38.048  1.00  0.00     0.210 HD
ENDBRANCH  26  31
ENDBRANCH  25  26
BRANCH  25  33
HETATM   33  O3  UNL     1      30.158  14.439 -37.114  1.00  0.00    -0.392 OA
ATOM     34  H3  UNL     1      29.771  14.707 -37.938  1.00  0.00     0.210 HD
ENDBRANCH  25  33
ENDBRANCH  23  25
ENDBRANCH  22  23
ENDBRANCH  17  22
ENDBRANCH  13  15
ENDBRANCH   7  13
BRANCH   9  35
HETATM   35  O6  UNL     1      35.819  18.212 -33.474  1.00  0.00    -0.265 OA
ATOM     36  H6  UNL     1      36.175  18.625 -34.252  1.00  0.00     0.246 HD
ENDBRANCH   9  35
BRANCH  11  37
HETATM   37  N6  UNL     1      36.270  13.492 -34.085  1.00  0.00    -0.320 N 
ATOM     38  H62 UNL     1      36.471  13.170 -35.032  1.00  0.00     0.178 HD
ATOM     39  H61 UNL     1      36.656  12.977 -33.294  1.00  0.00     0.178 HD
ENDBRANCH  11  37
ENDBRANCH   1   5
TORSDOF 13
ENDMDL
MODEL 4
REMARK VINA RESULT: -7.261459270      2.101      2.477
REMARK  13 active torsions:
REMARK  status: ('A' for Active; 'I' for Inactive)
REMARK    1  A    between atoms: C2_2  and  O1_3 
REMARK    2  A    between atoms: C2_2  and  C3_5 
REMARK    3  A    between atoms: C3_5  and  O2_6 
REMARK    4  A    between atoms: C3_5  and  C4_8 
REMARK    5  A    between atoms: C4_8  and  O3_9 
REMARK    6  A    between atoms: C4_8  and  C5_11 
REMARK    7  A    between atoms: C5_11  and  S1_13 
REMARK    8  A    between atoms: S1_13  and  C7_14 
REMARK    9  A    between atoms: C8_16  and  N1_17 
REMARK   10  A    between atoms: N1_17  and  C9_19 
REMARK   11  A    between atoms: C10_22  and  N3_23 
REMARK   12  A    between atoms: N5_27  and  N6_28 
REMARK   13  A    between atoms: N7_33  and  O6_34 
ROOT
HETATM    1  N3  UNL     1      35.928  13.508 -33.950  1.00  0.00    -0.123 N 
ATOM      2  H3  UNL     1      36.231  12.842 -33.240  1.00  0.00     0.197 HD
HETATM    3  C11 UNL     1      35.153  13.011 -34.993  1.00  0.00     0.196 C 
HETATM    4  N4  UNL     1      34.509  12.613 -35.879  1.00  0.00    -0.171 NA
ENDROOT
BRANCH   1   5
HETATM    5  C10 UNL     1      36.297  14.723 -33.800  1.00  0.00     0.731 A 
HETATM    6  N2  UNL     1      35.586  15.779 -34.273  1.00  0.00    -0.017 N 
HETATM    7  C9  UNL     1      36.005  17.044 -34.108  1.00  0.00     0.727 A 
ATOM      8  H2  UNL     1      34.710  15.607 -34.767  1.00  0.00     0.203 HD
HETATM    9  N7  UNL     1      37.152  17.301 -33.462  1.00  0.00     0.007 N 
HETATM   10  C12 UNL     1      37.852  16.250 -32.996  1.00  0.00     0.401 A 
HETATM   11  N5  UNL     1      37.446  14.967 -33.153  1.00  0.00    -0.034 N 
HETATM   12  O5  UNL     1      38.938  16.454 -32.382  1.00  0.00    -0.241 OA
BRANCH   7  13
HETATM   13  N1  UNL     1      35.241  18.152 -34.608  1.00  0.00    -0.173 N 
ATOM     14  H1  UNL     1      35.590  19.104 -34.490  1.00  0.00     0.183 HD
BRANCH  13  15
HETATM   15  C8  UNL     1      33.975  17.925 -35.281  1.00  0.00     0.388 C 
HETATM   16  O4  UNL     1      33.131  17.316 -34.418  1.00  0.00    -0.325 OA
HETATM   17  C7  UNL     1      31.919  18.046 -34.330  1.00  0.00     0.222 C 
HETATM   18  C13 UNL     1      32.069  19.061 -35.409  1.00  0.00     0.094 C 
HETATM   19  O7  UNL     1      33.441  19.092 -35.721  1.00  0.00    -0.330 OA
HETATM   20  C14 UNL     1      31.368  18.734 -36.700  1.00  0.00     0.049 C 
HETATM   21  C15 UNL     1      31.789  20.494 -34.930  1.00  0.00     0.049 C 
BRANCH  17  22
HETATM   22  S1  UNL     1      30.631  16.861 -34.462  1.00  0.00    -0.127 SA
BRANCH  22  23
HETATM   23  C5  UNL     1      30.833  15.279 -35.137  1.00  0.00     0.077 C 
HETATM   24  C6  UNL     1      31.068  14.157 -34.149  1.00  0.00     0.024 C 
BRANCH  23  25
HETATM   25  C4  UNL     1      29.815  14.813 -36.140  1.00  0.00     0.163 C 
BRANCH  25  26
HETATM   26  C3  UNL     1      28.388  14.889 -35.555  1.00  0.00     0.176 C 
BRANCH  26  27
HETATM   27  C2  UNL     1      27.654  13.631 -35.994  1.00  0.00     0.145 C 
HETATM   28  C1  UNL     1      27.614  12.718 -34.770  1.00  0.00     0.042 C 
BRANCH  27  29
HETATM   29  O1  UNL     1      26.338  13.965 -36.332  1.00  0.00    -0.393 OA
ATOM     30  H1  UNL     1      25.820  13.966 -35.535  1.00  0.00     0.210 HD
ENDBRANCH  27  29
ENDBRANCH  26  27
BRANCH  26  31
HETATM   31  O2  UNL     1      27.677  15.963 -36.000  1.00  0.00    -0.390 OA
ATOM     32  H2  UNL     1      28.256  16.493 -36.534  1.00  0.00     0.210 HD
ENDBRANCH  26  31
ENDBRANCH  25  26
BRANCH  25  33
HETATM   33  O3  UNL     1      29.789  15.592 -37.309  1.00  0.00    -0.392 OA
ATOM     34  H3  UNL     1      30.579  15.368 -37.785  1.00  0.00     0.210 HD
ENDBRANCH  25  33
ENDBRANCH  23  25
ENDBRANCH  22  23
ENDBRANCH  17  22
ENDBRANCH  13  15
ENDBRANCH   7  13
BRANCH   9  35
HETATM   35  O6  UNL     1      37.598  18.582 -33.285  1.00  0.00    -0.265 OA
ATOM     36  H6  UNL     1      37.724  18.946 -32.416  1.00  0.00     0.246 HD
ENDBRANCH   9  35
BRANCH  11  37
HETATM   37  N6  UNL     1      38.187  13.879 -32.660  1.00  0.00    -0.320 N 
ATOM     38  H62 UNL     1      39.190  13.786 -32.819  1.00  0.00     0.178 HD
ATOM     39  H61 UNL     1      37.701  13.160 -32.124  1.00  0.00     0.178 HD
ENDBRANCH  11  37
ENDBRANCH   1   5
TORSDOF 13
ENDMDL
MODEL 5
REMARK VINA RESULT: -7.234322657      1.718      2.608
REMARK  13 active torsions:
REMARK  status: ('A' for Active; 'I' for Inactive)
REMARK    1  A    between atoms: C2_2  and  O1_3 
REMARK    2  A    between atoms: C2_2  and  C3_5 
REMARK    3  A    between atoms: C3_5  and  O2_6 
REMARK    4  A    between atoms: C3_5  and  C4_8 
REMARK    5  A    between atoms: C4_8  and  O3_9 
REMARK    6  A    between atoms: C4_8  and  C5_11 
REMARK    7  A    between atoms: C5_11  and  S1_13 
REMARK    8  A    between atoms: S1_13  and  C7_14 
REMARK    9  A    between atoms: C8_16  and  N1_17 
REMARK   10  A    between atoms: N1_17  and  C9_19 
REMARK   11  A    between atoms: C10_22  and  N3_23 
REMARK   12  A    between atoms: N5_27  and  N6_28 
REMARK   13  A    between atoms: N7_33  and  O6_34 
ROOT
HETATM    1  N3  UNL     1      37.039  15.490 -33.557  1.00  0.00    -0.123 N 
ATOM      2  H3  UNL     1      37.967  15.202 -33.866  1.00  0.00     0.197 HD
HETATM    3  C11 UNL     1      36.224  14.506 -33.007  1.00  0.00     0.196 C 
HETATM    4  N4  UNL     1      35.522  13.695 -32.551  1.00  0.00    -0.171 NA
ENDROOT
BRANCH   1   5
HETATM    5  C10 UNL     1      36.732  16.721 -33.712  1.00  0.00     0.731 A 
HETATM    6  N2  UNL     1      35.530  17.132 -34.195  1.00  0.00    -0.017 N 
HETATM    7  C9  UNL     1      35.241  18.433 -34.355  1.00  0.00     0.727 A 
ATOM      8  H2  UNL     1      34.829  16.433 -34.442  1.00  0.00     0.203 HD
HETATM    9  N7  UNL     1      36.143  19.374 -34.038  1.00  0.00     0.007 N 
HETATM   10  C12 UNL     1      37.331  18.960 -33.562  1.00  0.00     0.401 A 
HETATM   11  N5  UNL     1      37.641  17.652 -33.393  1.00  0.00    -0.034 N 
HETATM   12  O5  UNL     1      38.206  19.818 -33.252  1.00  0.00    -0.241 OA
BRANCH   7  13
HETATM   13  N1  UNL     1      33.965  18.855 -34.862  1.00  0.00    -0.173 N 
ATOM     14  H1  UNL     1      33.573  19.750 -34.568  1.00  0.00     0.183 HD
BRANCH  13  15
HETATM   15  C8  UNL     1      33.229  18.013 -35.788  1.00  0.00     0.388 C 
HETATM   16  O4  UNL     1      32.421  17.193 -35.077  1.00  0.00    -0.325 OA
HETATM   17  C7  UNL     1      31.086  17.312 -35.539  1.00  0.00     0.222 C 
HETATM   18  C13 UNL     1      31.233  18.158 -36.755  1.00  0.00     0.094 C 
HETATM   19  O7  UNL     1      32.501  18.761 -36.653  1.00  0.00    -0.330 OA
HETATM   20  C14 UNL     1      31.245  17.409 -38.060  1.00  0.00     0.049 C 
HETATM   21  C15 UNL     1      30.277  19.360 -36.771  1.00  0.00     0.049 C 
BRANCH  17  22
HETATM   22  S1  UNL     1      30.490  15.671 -35.721  1.00  0.00    -0.127 SA
BRANCH  22  23
HETATM   23  C5  UNL     1      30.497  14.491 -34.453  1.00  0.00     0.077 C 
HETATM   24  C6  UNL     1      29.583  13.299 -34.647  1.00  0.00     0.024 C 
BRANCH  23  25
HETATM   25  C4  UNL     1      31.830  13.985 -33.977  1.00  0.00     0.163 C 
BRANCH  25  26
HETATM   26  C3  UNL     1      32.767  13.693 -35.169  1.00  0.00     0.176 C 
BRANCH  26  27
HETATM   27  C2  UNL     1      33.277  12.269 -35.003  1.00  0.00     0.145 C 
HETATM   28  C1  UNL     1      34.668  12.243 -35.632  1.00  0.00     0.042 C 
BRANCH  27  29
HETATM   29  O1  UNL     1      33.411  11.990 -33.638  1.00  0.00    -0.393 OA
ATOM     30  H1  UNL     1      32.546  12.017 -33.245  1.00  0.00     0.210 HD
ENDBRANCH  27  29
ENDBRANCH  26  27
BRANCH  26  31
HETATM   31  O2  UNL     1      33.850  14.519 -35.221  1.00  0.00    -0.390 OA
ATOM     32  H2  UNL     1      34.094  14.620 -36.134  1.00  0.00     0.210 HD
ENDBRANCH  26  31
ENDBRANCH  25  26
BRANCH  25  33
HETATM   33  O3  UNL     1      32.517  14.905 -33.169  1.00  0.00    -0.392 OA
ATOM     34  H3  UNL     1      32.759  14.428 -32.385  1.00  0.00     0.210 HD
ENDBRANCH  25  33
ENDBRANCH  23  25
ENDBRANCH  22  23
ENDBRANCH  17  22
ENDBRANCH  13  15
ENDBRANCH   7  13
BRANCH   9  35
HETATM   35  O6  UNL     1      35.869  20.705 -34.197  1.00  0.00    -0.265 OA
ATOM     36  H6  UNL     1      36.030  21.329 -33.498  1.00  0.00     0.246 HD
ENDBRANCH   9  35
BRANCH  11  37
HETATM   37  N6  UNL     1      38.887  17.234 -32.892  1.00  0.00    -0.320 N 
ATOM     38  H62 UNL     1      39.447  16.518 -33.354  1.00  0.00     0.178 HD
ATOM     39  H61 UNL     1      39.240  17.666 -32.039  1.00  0.00     0.178 HD
ENDBRANCH  11  37
ENDBRANCH   1   5
TORSDOF 13
ENDMDL
