MODEL 1
REMARK VINA RESULT: -8.219967802      0.000      0.000
REMARK  13 active torsions:
REMARK  status: ('A' for Active; 'I' for Inactive)
REMARK    1  A    between atoms: O1_2  and  C2_3 
REMARK    2  A    between atoms: C2_3  and  C3_5 
REMARK    3  A    between atoms: C3_5  and  C4_6 
REMARK    4  A    between atoms: C4_6  and  N1_7 
REMARK    5  A    between atoms: C4_6  and  C15_43 
REMARK    6  A    between atoms: N1_7  and  C5_9 
REMARK    7  A    between atoms: C5_9  and  O3_10 
REMARK    8  A    between atoms: C5_9  and  C6_12 
REMARK    9  A    between atoms: C7_13  and  N2_14 
REMARK   10  A    between atoms: N3_16  and  C8_18 
REMARK   11  A    between atoms: C9_21  and  N5_22 
REMARK   12  A    between atoms: C10_27  and  N7_28 
REMARK   13  A    between atoms: N8_31  and  N9_32 
ROOT
HETATM    1  C6  UNL     1      28.697  17.577 -34.845  1.00  0.00     0.128 A 
HETATM    2  C7  UNL     1      29.455  17.372 -33.681  1.00  0.00     0.142 A 
HETATM    3  N10 UNL     1      29.105  17.938 -32.522  1.00  0.00    -0.330 N 
ATOM      4  H10 UNL     1      29.684  17.763 -31.701  1.00  0.00     0.168 HD
HETATM    5  C11 UNL     1      28.038  18.715 -32.391  1.00  0.00     0.083 A 
HETATM    6  C12 UNL     1      27.698  19.311 -31.089  1.00  0.00     0.089 C 
HETATM    7  N11 UNL     1      27.285  18.944 -33.455  1.00  0.00    -0.307 N 
HETATM    8  C13 UNL     1      26.112  19.786 -33.374  1.00  0.00     0.161 C 
HETATM    9  C14 UNL     1      27.598  18.391 -34.667  1.00  0.00     0.267 A 
HETATM   10  O4  UNL     1      26.843  18.652 -35.620  1.00  0.00    -0.267 OA
ENDROOT
BRANCH   2  11
HETATM   11  N2  UNL     1      30.620  16.543 -33.756  1.00  0.00    -0.270 N 
HETATM   12  N3  UNL     1      30.528  15.290 -33.564  1.00  0.00    -0.128 N 
ATOM     13  H3  UNL     1      29.612  14.891 -33.356  1.00  0.00     0.205 HD
ATOM     14  H2  UNL     1      31.528  16.959 -33.966  1.00  0.00     0.189 HD
BRANCH  12  15
HETATM   15  C8  UNL     1      31.649  14.429 -33.629  1.00  0.00     0.747 A 
HETATM   16  N4  UNL     1      32.819  14.753 -33.037  1.00  0.00    -0.018 N 
HETATM   17  C9  UNL     1      33.889  13.911 -33.108  1.00  0.00     0.705 A 
ATOM     18  H4  UNL     1      32.904  15.635 -32.533  1.00  0.00     0.203 HD
HETATM   19  N6  UNL     1      33.794  12.752 -33.763  1.00  0.00    -0.020 N 
HETATM   20  C10 UNL     1      32.633  12.423 -34.355  1.00  0.00     0.726 A 
ATOM     21  H6  UNL     1      34.596  12.123 -33.815  1.00  0.00     0.203 HD
HETATM   22  N8  UNL     1      31.563  13.266 -34.284  1.00  0.00     0.085 N 
BRANCH  17  23
HETATM   23  N5  UNL     1      34.982  14.249 -32.534  1.00  0.00    -0.234 N 
ATOM     24  H52 UNL     1      34.971  14.710 -31.624  1.00  0.00     0.174 HD
ATOM     25  H51 UNL     1      35.867  14.052 -33.002  1.00  0.00     0.174 HD
ENDBRANCH  17  23
BRANCH  20  26
HETATM   26  N7  UNL     1      32.597  11.295 -34.973  1.00  0.00    -0.232 N 
ATOM     27  H72 UNL     1      32.856  11.191 -35.954  1.00  0.00     0.174 HD
ATOM     28  H71 UNL     1      32.291  10.485 -34.434  1.00  0.00     0.174 HD
ENDBRANCH  20  26
BRANCH  22  29
HETATM   29  N9  UNL     1      30.404  12.843 -34.923  1.00  0.00    -0.309 N 
ATOM     30  H92 UNL     1      29.532  13.261 -34.598  1.00  0.00     0.178 HD
ATOM     31  H91 UNL     1      30.407  12.156 -35.676  1.00  0.00     0.178 HD
ENDBRANCH  22  29
ENDBRANCH  12  15
ENDBRANCH   2  11
BRANCH   1  32
HETATM   32  C5  UNL     1      29.078  16.959 -36.095  1.00  0.00     0.156 C 
BRANCH  32  33
HETATM   33  N1  UNL     1      29.573  17.588 -37.237  1.00  0.00    -0.355 N 
ATOM     34  H1  UNL     1      28.949  17.705 -38.035  1.00  0.00     0.162 HD
BRANCH  33  35
HETATM   35  C4  UNL     1      30.942  18.088 -37.347  1.00  0.00     0.194 C 
BRANCH  35  36
HETATM   36  C3  UNL     1      31.523  17.801 -38.695  1.00  0.00     0.147 C 
BRANCH  36  37
HETATM   37  C2  UNL     1      31.650  16.363 -38.904  1.00  0.00     0.260 C 
HETATM   38  O2  UNL     1      32.232  15.951 -39.961  1.00  0.00    -0.265 OA
BRANCH  37  39
HETATM   39  O1  UNL     1      31.195  15.365 -38.053  1.00  0.00    -0.326 OA
HETATM   40  C1  UNL     1      32.097  14.383 -37.560  1.00  0.00     0.213 C 
ENDBRANCH  37  39
ENDBRANCH  36  37
ENDBRANCH  35  36
BRANCH  35  41
HETATM   41  C15 UNL     1      31.049  19.510 -37.036  1.00  0.00     0.197 C 
HETATM   42  O5  UNL     1      30.002  20.254 -36.991  1.00  0.00    -0.646 OA
HETATM   43  O6  UNL     1      32.237  20.157 -36.775  1.00  0.00    -0.646 OA
ENDBRANCH  35  41
ENDBRANCH  33  35
ENDBRANCH  32  33
BRANCH  32  44
HETATM   44  O3  UNL     1      28.923  15.667 -36.109  1.00  0.00    -0.345 OA
ATOM     45  H3  UNL     1      28.067  15.311 -36.316  1.00  0.00     0.219 HD
ENDBRANCH  32  44
ENDBRANCH   1  32
TORSDOF 13
ENDMDL
MODEL 2
REMARK VINA RESULT: -8.102298112      1.070      2.165
REMARK  13 active torsions:
REMARK  status: ('A' for Active; 'I' for Inactive)
REMARK    1  A    between atoms: O1_2  and  C2_3 
REMARK    2  A    between atoms: C2_3  and  C3_5 
REMARK    3  A    between atoms: C3_5  and  C4_6 
REMARK    4  A    between atoms: C4_6  and  N1_7 
REMARK    5  A    between atoms: C4_6  and  C15_43 
REMARK    6  A    between atoms: N1_7  and  C5_9 
REMARK    7  A    between atoms: C5_9  and  O3_10 
REMARK    8  A    between atoms: C5_9  and  C6_12 
REMARK    9  A    between atoms: C7_13  and  N2_14 
REMARK   10  A    between atoms: N3_16  and  C8_18 
REMARK   11  A    between atoms: C9_21  and  N5_22 
REMARK   12  A    between atoms: C10_27  and  N7_28 
REMARK   13  A    between atoms: N8_31  and  N9_32 
ROOT
HETATM    1  C6  UNL     1      28.768  17.217 -34.849  1.00  0.00     0.128 A 
HETATM    2  C7  UNL     1      29.575  17.184 -33.700  1.00  0.00     0.142 A 
HETATM    3  N10 UNL     1      29.241  17.873 -32.605  1.00  0.00    -0.330 N 
ATOM      4  H10 UNL     1      29.855  17.821 -31.792  1.00  0.00     0.168 HD
HETATM    5  C11 UNL     1      28.148  18.621 -32.526  1.00  0.00     0.083 A 
HETATM    6  C12 UNL     1      27.829  19.357 -31.294  1.00  0.00     0.089 C 
HETATM    7  N11 UNL     1      27.350  18.690 -33.579  1.00  0.00    -0.307 N 
HETATM    8  C13 UNL     1      26.147  19.492 -33.555  1.00  0.00     0.161 C 
HETATM    9  C14 UNL     1      27.643  18.005 -34.728  1.00  0.00     0.267 A 
HETATM   10  O4  UNL     1      26.846  18.120 -35.674  1.00  0.00    -0.267 OA
ENDROOT
BRANCH   2  11
HETATM   11  N2  UNL     1      30.769  16.394 -33.721  1.00  0.00    -0.270 N 
HETATM   12  N3  UNL     1      30.705  15.132 -33.594  1.00  0.00    -0.128 N 
ATOM     13  H3  UNL     1      29.790  14.695 -33.477  1.00  0.00     0.205 HD
ATOM     14  H2  UNL     1      31.676  16.847 -33.838  1.00  0.00     0.189 HD
BRANCH  12  15
HETATM   15  C8  UNL     1      31.856  14.309 -33.608  1.00  0.00     0.747 A 
HETATM   16  N4  UNL     1      32.995  14.682 -32.984  1.00  0.00    -0.018 N 
HETATM   17  C9  UNL     1      34.095  13.876 -33.006  1.00  0.00     0.705 A 
ATOM     18  H4  UNL     1      33.032  15.573 -32.490  1.00  0.00     0.203 HD
HETATM   19  N6  UNL     1      34.062  12.706 -33.647  1.00  0.00    -0.020 N 
HETATM   20  C10 UNL     1      32.932  12.328 -34.271  1.00  0.00     0.726 A 
ATOM     21  H6  UNL     1      34.885  12.105 -33.663  1.00  0.00     0.203 HD
HETATM   22  N8  UNL     1      31.833  13.134 -34.248  1.00  0.00     0.085 N 
BRANCH  17  23
HETATM   23  N5  UNL     1      35.156  14.260 -32.402  1.00  0.00    -0.234 N 
ATOM     24  H52 UNL     1      35.311  15.248 -32.200  1.00  0.00     0.174 HD
ATOM     25  H51 UNL     1      35.848  13.563 -32.128  1.00  0.00     0.174 HD
ENDBRANCH  17  23
BRANCH  20  26
HETATM   26  N7  UNL     1      32.955  11.192 -34.873  1.00  0.00    -0.232 N 
ATOM     27  H72 UNL     1      33.300  10.338 -34.435  1.00  0.00     0.174 HD
ATOM     28  H71 UNL     1      32.607  11.172 -35.832  1.00  0.00     0.174 HD
ENDBRANCH  20  26
BRANCH  22  29
HETATM   29  N9  UNL     1      30.710  12.663 -34.918  1.00  0.00    -0.309 N 
ATOM     30  H92 UNL     1      29.807  12.927 -34.526  1.00  0.00     0.178 HD
ATOM     31  H91 UNL     1      30.769  12.085 -35.756  1.00  0.00     0.178 HD
ENDBRANCH  22  29
ENDBRANCH  12  15
ENDBRANCH   2  11
BRANCH   1  32
HETATM   32  C5  UNL     1      29.131  16.465 -36.030  1.00  0.00     0.156 C 
BRANCH  32  33
HETATM   33  N1  UNL     1      29.623  16.963 -37.235  1.00  0.00    -0.355 N 
ATOM     34  H1  UNL     1      28.967  17.400 -37.883  1.00  0.00     0.162 HD
BRANCH  33  35
HETATM   35  C4  UNL     1      31.032  16.891 -37.618  1.00  0.00     0.194 C 
BRANCH  35  36
HETATM   36  C3  UNL     1      31.740  18.180 -37.345  1.00  0.00     0.147 C 
BRANCH  36  37
HETATM   37  C2  UNL     1      32.412  18.662 -38.546  1.00  0.00     0.260 C 
HETATM   38  O2  UNL     1      32.178  18.072 -39.652  1.00  0.00    -0.265 OA
BRANCH  37  39
HETATM   39  O1  UNL     1      33.304  19.723 -38.619  1.00  0.00    -0.326 OA
HETATM   40  C1  UNL     1      34.142  20.026 -37.511  1.00  0.00     0.213 C 
ENDBRANCH  37  39
ENDBRANCH  36  37
ENDBRANCH  35  36
BRANCH  35  41
HETATM   41  C15 UNL     1      31.732  15.779 -36.984  1.00  0.00     0.197 C 
HETATM   42  O5  UNL     1      32.552  15.983 -36.015  1.00  0.00    -0.646 OA
HETATM   43  O6  UNL     1      31.581  14.459 -37.353  1.00  0.00    -0.646 OA
ENDBRANCH  35  41
ENDBRANCH  33  35
ENDBRANCH  32  33
BRANCH  32  44
HETATM   44  O3  UNL     1      28.961  15.181 -35.905  1.00  0.00    -0.345 OA
ATOM     45  H3  UNL     1      29.359  14.736 -35.166  1.00  0.00     0.219 HD
ENDBRANCH  32  44
ENDBRANCH   1  32
TORSDOF 13
ENDMDL
MODEL 3
REMARK VINA RESULT: -8.050287396      0.817      2.411
REMARK  13 active torsions:
REMARK  status: ('A' for Active; 'I' for Inactive)
REMARK    1  A    between atoms: O1_2  and  C2_3 
REMARK    2  A    between atoms: C2_3  and  C3_5 
REMARK    3  A    between atoms: C3_5  and  C4_6 
REMARK    4  A    between atoms: C4_6  and  N1_7 
REMARK    5  A    between atoms: C4_6  and  C15_43 
REMARK    6  A    between atoms: N1_7  and  C5_9 
REMARK    7  A    between atoms: C5_9  and  O3_10 
REMARK    8  A    between atoms: C5_9  and  C6_12 
REMARK    9  A    between atoms: C7_13  and  N2_14 
REMARK   10  A    between atoms: N3_16  and  C8_18 
REMARK   11  A    between atoms: C9_21  and  N5_22 
REMARK   12  A    between atoms: C10_27  and  N7_28 
REMARK   13  A    between atoms: N8_31  and  N9_32 
ROOT
HETATM    1  C6  UNL     1      28.707  17.404 -34.887  1.00  0.00     0.128 A 
HETATM    2  C7  UNL     1      29.480  17.272 -33.722  1.00  0.00     0.142 A 
HETATM    3  N10 UNL     1      29.125  17.883 -32.588  1.00  0.00    -0.330 N 
ATOM      4  H10 UNL     1      29.715  17.762 -31.765  1.00  0.00     0.168 HD
HETATM    5  C11 UNL     1      28.040  18.640 -32.483  1.00  0.00     0.083 A 
HETATM    6  C12 UNL     1      27.696  19.288 -31.209  1.00  0.00     0.089 C 
HETATM    7  N11 UNL     1      27.273  18.800 -33.550  1.00  0.00    -0.307 N 
HETATM    8  C13 UNL     1      26.081  19.616 -33.498  1.00  0.00     0.161 C 
HETATM    9  C14 UNL     1      27.590  18.198 -34.738  1.00  0.00     0.267 A 
HETATM   10  O4  UNL     1      26.821  18.395 -35.695  1.00  0.00    -0.267 OA
ENDROOT
BRANCH   2  11
HETATM   11  N2  UNL     1      30.664  16.468 -33.769  1.00  0.00    -0.270 N 
HETATM   12  N3  UNL     1      30.591  15.211 -33.607  1.00  0.00    -0.128 N 
ATOM     13  H3  UNL     1      29.677  14.788 -33.442  1.00  0.00     0.205 HD
ATOM     14  H2  UNL     1      31.570  16.907 -33.935  1.00  0.00     0.189 HD
BRANCH  12  15
HETATM   15  C8  UNL     1      31.731  14.374 -33.645  1.00  0.00     0.747 A 
HETATM   16  N4  UNL     1      32.878  14.718 -33.018  1.00  0.00    -0.018 N 
HETATM   17  C9  UNL     1      33.967  13.899 -33.064  1.00  0.00     0.705 A 
ATOM     18  H4  UNL     1      32.928  15.598 -32.505  1.00  0.00     0.203 HD
HETATM   19  N6  UNL     1      33.916  12.744 -33.730  1.00  0.00    -0.020 N 
HETATM   20  C10 UNL     1      32.779  12.395 -34.357  1.00  0.00     0.726 A 
ATOM     21  H6  UNL     1      34.732  12.133 -33.763  1.00  0.00     0.203 HD
HETATM   22  N8  UNL     1      31.690  13.214 -34.311  1.00  0.00     0.085 N 
BRANCH  17  23
HETATM   23  N5  UNL     1      35.036  14.256 -32.456  1.00  0.00    -0.234 N 
ATOM     24  H52 UNL     1      34.987  14.774 -31.579  1.00  0.00     0.174 HD
ATOM     25  H51 UNL     1      35.939  14.016 -32.865  1.00  0.00     0.174 HD
ENDBRANCH  17  23
BRANCH  20  26
HETATM   26  N7  UNL     1      32.785  11.272 -34.985  1.00  0.00    -0.232 N 
ATOM     27  H72 UNL     1      33.612  10.901 -35.452  1.00  0.00     0.174 HD
ATOM     28  H71 UNL     1      31.909  10.749 -34.999  1.00  0.00     0.174 HD
ENDBRANCH  20  26
BRANCH  22  29
HETATM   29  N9  UNL     1      30.559  12.772 -34.986  1.00  0.00    -0.309 N 
ATOM     30  H92 UNL     1      30.439  13.116 -35.939  1.00  0.00     0.178 HD
ATOM     31  H91 UNL     1      29.877  12.139 -34.568  1.00  0.00     0.178 HD
ENDBRANCH  22  29
ENDBRANCH  12  15
ENDBRANCH   2  11
BRANCH   1  32
HETATM   32  C5  UNL     1      29.093  16.737 -36.111  1.00  0.00     0.156 C 
BRANCH  32  33
HETATM   33  N1  UNL     1      29.636  17.314 -37.258  1.00  0.00    -0.355 N 
ATOM     34  H1  UNL     1      29.060  17.966 -37.791  1.00  0.00     0.162 HD
BRANCH  33  35
HETATM   35  C4  UNL     1      30.988  17.033 -37.735  1.00  0.00     0.194 C 
BRANCH  35  36
HETATM   36  C3  UNL     1      31.854  18.251 -37.675  1.00  0.00     0.147 C 
BRANCH  36  37
HETATM   37  C2  UNL     1      31.305  19.226 -36.740  1.00  0.00     0.260 C 
HETATM   38  O2  UNL     1      31.661  19.162 -35.517  1.00  0.00    -0.265 OA
BRANCH  37  39
HETATM   39  O1  UNL     1      30.414  20.245 -37.044  1.00  0.00    -0.326 OA
HETATM   40  C1  UNL     1      29.687  20.889 -36.005  1.00  0.00     0.213 C 
ENDBRANCH  37  39
ENDBRANCH  36  37
ENDBRANCH  35  36
BRANCH  35  41
HETATM   41  C15 UNL     1      31.616  15.923 -37.026  1.00  0.00     0.197 C 
HETATM   42  O5  UNL     1      31.387  14.706 -37.374  1.00  0.00    -0.646 OA
HETATM   43  O6  UNL     1      32.477  16.074 -35.961  1.00  0.00    -0.646 OA
ENDBRANCH  35  41
ENDBRANCH  33  35
ENDBRANCH  32  33
BRANCH  32  44
HETATM   44  O3  UNL     1      28.892  15.451 -36.091  1.00  0.00    -0.345 OA
ATOM     45  H3  UNL     1      28.923  14.996 -35.258  1.00  0.00     0.219 HD
ENDBRANCH  32  44
ENDBRANCH   1  32
TORSDOF 13
ENDMDL
MODEL 4
REMARK VINA RESULT: -7.927918081      3.546      6.388
REMARK  13 active torsions:
REMARK  status: ('A' for Active; 'I' for Inactive)
REMARK    1  A    between atoms: O1_2  and  C2_3 
REMARK    2  A    between atoms: C2_3  and  C3_5 
REMARK    3  A    between atoms: C3_5  and  C4_6 
REMARK    4  A    between atoms: C4_6  and  N1_7 
REMARK    5  A    between atoms: C4_6  and  C15_43 
REMARK    6  A    between atoms: N1_7  and  C5_9 
REMARK    7  A    between atoms: C5_9  and  O3_10 
REMARK    8  A    between atoms: C5_9  and  C6_12 
REMARK    9  A    between atoms: C7_13  and  N2_14 
REMARK   10  A    between atoms: N3_16  and  C8_18 
REMARK   11  A    between atoms: C9_21  and  N5_22 
REMARK   12  A    between atoms: C10_27  and  N7_28 
REMARK   13  A    between atoms: N8_31  and  N9_32 
ROOT
HETATM    1  C6  UNL     1      32.699  16.550 -34.124  1.00  0.00     0.128 A 
HETATM    2  C7  UNL     1      31.914  17.251 -35.055  1.00  0.00     0.142 A 
HETATM    3  N10 UNL     1      32.220  18.502 -35.409  1.00  0.00    -0.330 N 
ATOM      4  H10 UNL     1      31.624  18.975 -36.087  1.00  0.00     0.168 HD
HETATM    5  C11 UNL     1      33.263  19.159 -34.917  1.00  0.00     0.083 A 
HETATM    6  C12 UNL     1      33.554  20.536 -35.344  1.00  0.00     0.089 C 
HETATM    7  N11 UNL     1      34.039  18.548 -34.036  1.00  0.00    -0.307 N 
HETATM    8  C13 UNL     1      35.188  19.212 -33.462  1.00  0.00     0.161 C 
HETATM    9  C14 UNL     1      33.772  17.265 -33.637  1.00  0.00     0.267 A 
HETATM   10  O4  UNL     1      34.545  16.759 -32.806  1.00  0.00    -0.267 OA
ENDROOT
BRANCH   2  11
HETATM   11  N2  UNL     1      30.773  16.598 -35.623  1.00  0.00    -0.270 N 
HETATM   12  N3  UNL     1      29.666  16.587 -35.000  1.00  0.00    -0.128 N 
ATOM     13  H3  UNL     1      29.608  17.049 -34.092  1.00  0.00     0.205 HD
ATOM     14  H2  UNL     1      30.850  16.141 -36.531  1.00  0.00     0.189 HD
BRANCH  12  15
HETATM   15  C8  UNL     1      28.511  15.956 -35.519  1.00  0.00     0.747 A 
HETATM   16  N4  UNL     1      27.393  16.660 -35.805  1.00  0.00    -0.018 N 
HETATM   17  C9  UNL     1      26.289  16.036 -36.306  1.00  0.00     0.705 A 
ATOM     18  H4  UNL     1      27.376  17.666 -35.644  1.00  0.00     0.203 HD
HETATM   19  N6  UNL     1      26.297  14.720 -36.522  1.00  0.00    -0.020 N 
HETATM   20  C10 UNL     1      27.406  14.012 -36.241  1.00  0.00     0.726 A 
ATOM     21  H6  UNL     1      25.471  14.255 -36.898  1.00  0.00     0.203 HD
HETATM   22  N8  UNL     1      28.509  14.636 -35.740  1.00  0.00     0.085 N 
BRANCH  17  23
HETATM   23  N5  UNL     1      25.249  16.735 -36.567  1.00  0.00    -0.234 N 
ATOM     24  H52 UNL     1      25.336  17.665 -36.976  1.00  0.00     0.174 HD
ATOM     25  H51 UNL     1      24.329  16.348 -36.356  1.00  0.00     0.174 HD
ENDBRANCH  17  23
BRANCH  20  26
HETATM   26  N7  UNL     1      27.359  12.747 -36.468  1.00  0.00    -0.232 N 
ATOM     27  H72 UNL     1      28.021  12.267 -37.077  1.00  0.00     0.174 HD
ATOM     28  H71 UNL     1      26.615  12.224 -36.005  1.00  0.00     0.174 HD
ENDBRANCH  20  26
BRANCH  22  29
HETATM   29  N9  UNL     1      29.609  13.827 -35.480  1.00  0.00    -0.309 N 
ATOM     30  H92 UNL     1      29.413  12.840 -35.313  1.00  0.00     0.178 HD
ATOM     31  H91 UNL     1      30.564  14.183 -35.454  1.00  0.00     0.178 HD
ENDBRANCH  22  29
ENDBRANCH  12  15
ENDBRANCH   2  11
BRANCH   1  32
HETATM   32  C5  UNL     1      32.367  15.194 -33.749  1.00  0.00     0.156 C 
BRANCH  32  33
HETATM   33  N1  UNL     1      33.148  14.051 -33.914  1.00  0.00    -0.355 N 
ATOM     34  H1  UNL     1      33.184  13.375 -33.152  1.00  0.00     0.162 HD
BRANCH  33  35
HETATM   35  C4  UNL     1      33.920  13.775 -35.124  1.00  0.00     0.194 C 
BRANCH  35  36
HETATM   36  C3  UNL     1      35.221  13.110 -34.803  1.00  0.00     0.147 C 
BRANCH  36  37
HETATM   37  C2  UNL     1      36.165  14.069 -34.241  1.00  0.00     0.260 C 
HETATM   38  O2  UNL     1      36.431  15.122 -34.908  1.00  0.00    -0.265 OA
BRANCH  37  39
HETATM   39  O1  UNL     1      36.823  13.957 -33.024  1.00  0.00    -0.326 OA
HETATM   40  C1  UNL     1      37.824  14.901 -32.666  1.00  0.00     0.213 C 
ENDBRANCH  37  39
ENDBRANCH  36  37
ENDBRANCH  35  36
BRANCH  35  41
HETATM   41  C15 UNL     1      33.172  12.994 -36.103  1.00  0.00     0.197 C 
HETATM   42  O5  UNL     1      32.203  12.233 -35.736  1.00  0.00    -0.646 OA
HETATM   43  O6  UNL     1      33.429  13.001 -37.457  1.00  0.00    -0.646 OA
ENDBRANCH  35  41
ENDBRANCH  33  35
ENDBRANCH  32  33
BRANCH  32  44
HETATM   44  O3  UNL     1      31.193  15.076 -33.197  1.00  0.00    -0.345 OA
ATOM     45  H3  UNL     1      31.007  15.573 -32.409  1.00  0.00     0.219 HD
ENDBRANCH  32  44
ENDBRANCH   1  32
TORSDOF 13
ENDMDL
MODEL 5
REMARK VINA RESULT: -7.920429868      2.120      3.494
REMARK  13 active torsions:
REMARK  status: ('A' for Active; 'I' for Inactive)
REMARK    1  A    between atoms: O1_2  and  C2_3 
REMARK    2  A    between atoms: C2_3  and  C3_5 
REMARK    3  A    between atoms: C3_5  and  C4_6 
REMARK    4  A    between atoms: C4_6  and  N1_7 
REMARK    5  A    between atoms: C4_6  and  C15_43 
REMARK    6  A    between atoms: N1_7  and  C5_9 
REMARK    7  A    between atoms: C5_9  and  O3_10 
REMARK    8  A    between atoms: C5_9  and  C6_12 
REMARK    9  A    between atoms: C7_13  and  N2_14 
REMARK   10  A    between atoms: N3_16  and  C8_18 
REMARK   11  A    between atoms: C9_21  and  N5_22 
REMARK   12  A    between atoms: C10_27  and  N7_28 
REMARK   13  A    between atoms: N8_31  and  N9_32 
ROOT
HETATM    1  C6  UNL     1      29.150  15.973 -34.936  1.00  0.00     0.128 A 
HETATM    2  C7  UNL     1      30.039  16.602 -34.049  1.00  0.00     0.142 A 
HETATM    3  N10 UNL     1      29.703  17.737 -33.428  1.00  0.00    -0.330 N 
ATOM      4  H10 UNL     1      30.378  18.161 -32.792  1.00  0.00     0.168 HD
HETATM    5  C11 UNL     1      28.532  18.337 -33.601  1.00  0.00     0.083 A 
HETATM    6  C12 UNL     1      28.215  19.584 -32.890  1.00  0.00     0.089 C 
HETATM    7  N11 UNL     1      27.655  17.788 -34.426  1.00  0.00    -0.307 N 
HETATM    8  C13 UNL     1      26.364  18.397 -34.658  1.00  0.00     0.161 C 
HETATM    9  C14 UNL     1      27.946  16.627 -35.089  1.00  0.00     0.267 A 
HETATM   10  O4  UNL     1      27.072  16.173 -35.847  1.00  0.00    -0.267 OA
ENDROOT
BRANCH   2  11
HETATM   11  N2  UNL     1      31.320  16.005 -33.819  1.00  0.00    -0.270 N 
HETATM   12  N3  UNL     1      32.375  16.709 -33.882  1.00  0.00    -0.128 N 
ATOM     13  H3  UNL     1      32.292  17.702 -34.099  1.00  0.00     0.205 HD
ATOM     14  H2  UNL     1      31.385  15.010 -33.603  1.00  0.00     0.189 HD
BRANCH  12  15
HETATM   15  C8  UNL     1      33.663  16.165 -33.662  1.00  0.00     0.747 A 
HETATM   16  N4  UNL     1      33.838  14.849 -33.412  1.00  0.00    -0.018 N 
HETATM   17  C9  UNL     1      35.086  14.341 -33.204  1.00  0.00     0.705 A 
ATOM     18  H4  UNL     1      33.029  14.229 -33.379  1.00  0.00     0.203 HD
HETATM   19  N6  UNL     1      36.154  15.139 -33.244  1.00  0.00    -0.020 N 
HETATM   20  C10 UNL     1      35.989  16.450 -33.492  1.00  0.00     0.726 A 
ATOM     21  H6  UNL     1      37.088  14.758 -33.089  1.00  0.00     0.203 HD
HETATM   22  N8  UNL     1      34.741  16.957 -33.700  1.00  0.00     0.085 N 
BRANCH  17  23
HETATM   23  N5  UNL     1      35.214  13.089 -32.972  1.00  0.00    -0.234 N 
ATOM     24  H52 UNL     1      34.456  12.559 -32.541  1.00  0.00     0.174 HD
ATOM     25  H51 UNL     1      36.088  12.627 -33.223  1.00  0.00     0.174 HD
ENDBRANCH  17  23
BRANCH  20  26
HETATM   26  N7  UNL     1      37.053  17.173 -33.520  1.00  0.00    -0.232 N 
ATOM     27  H72 UNL     1      37.989  16.781 -33.618  1.00  0.00     0.174 HD
ATOM     28  H71 UNL     1      36.925  18.182 -33.437  1.00  0.00     0.174 HD
ENDBRANCH  20  26
BRANCH  22  29
HETATM   29  N9  UNL     1      34.665  18.322 -33.951  1.00  0.00    -0.309 N 
ATOM     30  H92 UNL     1      33.999  18.613 -34.666  1.00  0.00     0.178 HD
ATOM     31  H91 UNL     1      35.235  19.007 -33.456  1.00  0.00     0.178 HD
ENDBRANCH  22  29
ENDBRANCH  12  15
ENDBRANCH   2  11
BRANCH   1  32
HETATM   32  C5  UNL     1      29.517  14.742 -35.601  1.00  0.00     0.156 C 
BRANCH  32  33
HETATM   33  N1  UNL     1      30.092  14.598 -36.863  1.00  0.00    -0.355 N 
ATOM     34  H1  UNL     1      29.537  14.168 -37.602  1.00  0.00     0.162 HD
BRANCH  33  35
HETATM   35  C4  UNL     1      31.451  15.033 -37.179  1.00  0.00     0.194 C 
BRANCH  35  36
HETATM   36  C3  UNL     1      32.350  13.868 -37.448  1.00  0.00     0.147 C 
BRANCH  36  37
HETATM   37  C2  UNL     1      32.887  13.335 -36.201  1.00  0.00     0.260 C 
HETATM   38  O2  UNL     1      34.125  13.033 -36.152  1.00  0.00    -0.265 OA
BRANCH  37  39
HETATM   39  O1  UNL     1      32.177  13.114 -35.029  1.00  0.00    -0.326 OA
HETATM   40  C1  UNL     1      32.209  11.835 -34.408  1.00  0.00     0.213 C 
ENDBRANCH  37  39
ENDBRANCH  36  37
ENDBRANCH  35  36
BRANCH  35  41
HETATM   41  C15 UNL     1      31.496  15.980 -38.288  1.00  0.00     0.197 C 
HETATM   42  O5  UNL     1      30.954  17.142 -38.184  1.00  0.00    -0.646 OA
HETATM   43  O6  UNL     1      32.099  15.724 -39.501  1.00  0.00    -0.646 OA
ENDBRANCH  35  41
ENDBRANCH  33  35
ENDBRANCH  32  33
BRANCH  32  44
HETATM   44  O3  UNL     1      29.260  13.674 -34.903  1.00  0.00    -0.345 OA
ATOM     45  H3  UNL     1      28.595  13.073 -35.215  1.00  0.00     0.219 HD
ENDBRANCH  32  44
ENDBRANCH   1  32
TORSDOF 13
ENDMDL
