MODEL 1
REMARK VINA RESULT: -8.559815287      0.000      0.000
REMARK  12 active torsions:
REMARK  status: ('A' for Active; 'I' for Inactive)
REMARK    1  A    between atoms: O1_2  and  N1_3 
REMARK    2  A    between atoms: N3_12  and  C7_13 
REMARK    3  A    between atoms: C7_13  and  N4_14 
REMARK    4  A    between atoms: C7_13  and  C11_25 
REMARK    5  A    between atoms: N4_14  and  O3_15 
REMARK    6  A    between atoms: O3_15  and  C8_16 
REMARK    7  A    between atoms: C8_16  and  O4_17 
REMARK    8  A    between atoms: C8_16  and  C9_19 
REMARK    9  A    between atoms: C9_19  and  O5_20 
REMARK   10  A    between atoms: C9_19  and  C10_22 
REMARK   11  A    between atoms: C10_22  and  O6_23 
REMARK   12  A    between atoms: C15_32  and  N6_33 
ROOT
HETATM    1  C7  UNL     1      30.347  16.087 -35.484  1.00  0.00     0.264 C 
ENDROOT
BRANCH   1   2
HETATM    2  N3  UNL     1      29.870  17.412 -35.139  1.00  0.00    -0.076 N 
HETATM    3  C2  UNL     1      29.912  18.400 -36.023  1.00  0.00     0.715 A 
HETATM    4  N1  UNL     1      30.377  18.324 -37.225  1.00  0.00    -0.096 N 
HETATM    5  N2  UNL     1      29.404  19.620 -35.621  1.00  0.00    -0.195 N 
ATOM      6  H1  UNL     1      30.350  19.156 -37.816  1.00  0.00     0.213 HD
HETATM    7  C3  UNL     1      29.430  20.721 -36.550  1.00  0.00     0.175 C 
HETATM    8  C4  UNL     1      28.892  19.813 -34.404  1.00  0.00     0.114 A 
HETATM    9  C5  UNL     1      28.854  18.781 -33.496  1.00  0.00     0.093 A 
HETATM   10  C6  UNL     1      29.359  17.581 -33.905  1.00  0.00     0.270 A 
HETATM   11  O2  UNL     1      29.350  16.596 -33.112  1.00  0.00    -0.267 OA
BRANCH   4  12
HETATM   12  O1  UNL     1      30.894  17.194 -37.725  1.00  0.00    -0.271 OA
HETATM   13  C1  UNL     1      31.661  17.036 -38.881  1.00  0.00     0.238 C 
ENDBRANCH   4  12
ENDBRANCH   1   2
BRANCH   1  14
HETATM   14  N4  UNL     1      29.621  15.396 -36.171  1.00  0.00    -0.256 NA
BRANCH  14  15
HETATM   15  O3  UNL     1      28.779  14.754 -36.733  1.00  0.00    -0.172 OA
BRANCH  15  16
HETATM   16  C8  UNL     1      27.638  13.978 -36.572  1.00  0.00     0.332 C 
BRANCH  16  17
HETATM   17  O4  UNL     1      26.468  14.693 -36.490  1.00  0.00    -0.366 OA
ATOM     18  H4  UNL     1      25.679  14.165 -36.524  1.00  0.00     0.212 HD
ENDBRANCH  16  17
BRANCH  16  19
HETATM   19  C9  UNL     1      27.845  13.163 -35.282  1.00  0.00     0.200 C 
BRANCH  19  20
HETATM   20  O5  UNL     1      29.171  12.732 -35.219  1.00  0.00    -0.388 OA
ATOM     21  H5  UNL     1      29.610  13.175 -34.502  1.00  0.00     0.210 HD
ENDBRANCH  19  20
BRANCH  19  22
HETATM   22  C10 UNL     1      26.887  11.988 -35.228  1.00  0.00     0.201 C 
BRANCH  22  23
HETATM   23  O6  UNL     1      26.974  11.357 -36.487  1.00  0.00    -0.398 OA
ATOM     24  H6  UNL     1      26.818  10.433 -36.328  1.00  0.00     0.209 HD
ENDBRANCH  22  23
ENDBRANCH  19  22
ENDBRANCH  16  19
ENDBRANCH  15  16
ENDBRANCH  14  15
ENDBRANCH   1  14
BRANCH   1  25
HETATM   25  C11 UNL     1      31.627  15.556 -35.017  1.00  0.00     0.099 A 
HETATM   26  C12 UNL     1      31.756  14.230 -34.565  1.00  0.00     0.056 A 
HETATM   27  C13 UNL     1      33.059  13.984 -34.194  1.00  0.00     0.080 A 
HETATM   28  C14 UNL     1      33.755  12.913 -33.696  1.00  0.00     0.273 A 
HETATM   29  C16 UNL     1      33.725  15.147 -34.416  1.00  0.00     0.139 A 
HETATM   30  O7  UNL     1      33.107  11.841 -33.500  1.00  0.00    -0.267 OA
HETATM   31  N5  UNL     1      35.062  12.948 -33.415  1.00  0.00    -0.156 N 
HETATM   32  C15 UNL     1      35.712  14.105 -33.637  1.00  0.00     0.680 A 
ATOM     33  H5  UNL     1      35.547  12.130 -33.047  1.00  0.00     0.187 HD
HETATM   34  N7  UNL     1      35.041  15.166 -34.127  1.00  0.00    -0.176 N 
ATOM     35  H7  UNL     1      35.557  16.030 -34.287  1.00  0.00     0.186 HD
HETATM   36  N8  UNL     1      32.842  16.058 -34.905  1.00  0.00    -0.332 N 
HETATM   37  C17 UNL     1      33.258  17.391 -35.251  1.00  0.00     0.158 C 
BRANCH  32  38
HETATM   38  N6  UNL     1      36.974  14.187 -33.380  1.00  0.00    -0.234 N 
ATOM     39  H62 UNL     1      37.548  13.346 -33.319  1.00  0.00     0.174 HD
ATOM     40  H61 UNL     1      37.401  15.102 -33.237  1.00  0.00     0.174 HD
ENDBRANCH  32  38
ENDBRANCH   1  25
TORSDOF 12
ENDMDL
MODEL 2
REMARK VINA RESULT: -8.373687522      2.195      3.362
REMARK  12 active torsions:
REMARK  status: ('A' for Active; 'I' for Inactive)
REMARK    1  A    between atoms: O1_2  and  N1_3 
REMARK    2  A    between atoms: N3_12  and  C7_13 
REMARK    3  A    between atoms: C7_13  and  N4_14 
REMARK    4  A    between atoms: C7_13  and  C11_25 
REMARK    5  A    between atoms: N4_14  and  O3_15 
REMARK    6  A    between atoms: O3_15  and  C8_16 
REMARK    7  A    between atoms: C8_16  and  O4_17 
REMARK    8  A    between atoms: C8_16  and  C9_19 
REMARK    9  A    between atoms: C9_19  and  O5_20 
REMARK   10  A    between atoms: C9_19  and  C10_22 
REMARK   11  A    between atoms: C10_22  and  O6_23 
REMARK   12  A    between atoms: C15_32  and  N6_33 
ROOT
HETATM    1  C7  UNL     1      32.179  15.792 -34.699  1.00  0.00     0.264 C 
ENDROOT
BRANCH   1   2
HETATM    2  N3  UNL     1      31.856  16.902 -35.574  1.00  0.00    -0.076 N 
HETATM    3  C2  UNL     1      31.768  16.729 -36.885  1.00  0.00     0.715 A 
HETATM    4  N1  UNL     1      31.971  15.623 -37.521  1.00  0.00    -0.096 N 
HETATM    5  N2  UNL     1      31.422  17.833 -37.639  1.00  0.00    -0.195 N 
ATOM      6  H1  UNL     1      31.868  15.614 -38.536  1.00  0.00     0.213 HD
HETATM    7  C3  UNL     1      31.315  17.690 -39.070  1.00  0.00     0.175 C 
HETATM    8  C4  UNL     1      31.183  19.025 -37.090  1.00  0.00     0.114 A 
HETATM    9  C5  UNL     1      31.277  19.192 -35.728  1.00  0.00     0.093 A 
HETATM   10  C6  UNL     1      31.620  18.095 -34.994  1.00  0.00     0.270 A 
HETATM   11  O2  UNL     1      31.721  18.188 -33.737  1.00  0.00    -0.267 OA
BRANCH   4  12
HETATM   12  O1  UNL     1      32.311  14.488 -36.897  1.00  0.00    -0.271 OA
HETATM   13  C1  UNL     1      32.880  13.339 -37.450  1.00  0.00     0.238 C 
ENDBRANCH   4  12
ENDBRANCH   1   2
BRANCH   1  14
HETATM   14  N4  UNL     1      31.261  15.080 -34.343  1.00  0.00    -0.256 NA
BRANCH  14  15
HETATM   15  O3  UNL     1      30.314  14.366 -34.163  1.00  0.00    -0.172 OA
BRANCH  15  16
HETATM   16  C8  UNL     1      29.739  13.136 -34.459  1.00  0.00     0.332 C 
BRANCH  16  17
HETATM   17  O4  UNL     1      30.465  12.361 -35.330  1.00  0.00    -0.366 OA
ATOM     18  H4  UNL     1      30.566  12.733 -36.199  1.00  0.00     0.212 HD
ENDBRANCH  16  17
BRANCH  16  19
HETATM   19  C9  UNL     1      28.353  13.437 -35.056  1.00  0.00     0.200 C 
BRANCH  19  20
HETATM   20  O5  UNL     1      27.919  12.333 -35.792  1.00  0.00    -0.388 OA
ATOM     21  H5  UNL     1      27.002  12.170 -35.603  1.00  0.00     0.210 HD
ENDBRANCH  19  20
BRANCH  19  22
HETATM   22  C10 UNL     1      28.397  14.684 -35.918  1.00  0.00     0.201 C 
BRANCH  22  23
HETATM   23  O6  UNL     1      29.274  14.390 -36.983  1.00  0.00    -0.398 OA
ATOM     24  H6  UNL     1      28.791  13.821 -37.571  1.00  0.00     0.209 HD
ENDBRANCH  22  23
ENDBRANCH  19  22
ENDBRANCH  16  19
ENDBRANCH  15  16
ENDBRANCH  14  15
ENDBRANCH   1  14
BRANCH   1  25
HETATM   25  C11 UNL     1      33.534  15.527 -34.216  1.00  0.00     0.099 A 
HETATM   26  C12 UNL     1      34.513  16.536 -34.173  1.00  0.00     0.056 A 
HETATM   27  C13 UNL     1      35.690  16.027 -33.672  1.00  0.00     0.080 A 
HETATM   28  C14 UNL     1      36.943  16.521 -33.410  1.00  0.00     0.273 A 
HETATM   29  C16 UNL     1      35.438  14.719 -33.410  1.00  0.00     0.139 A 
HETATM   30  O7  UNL     1      37.148  17.745 -33.665  1.00  0.00    -0.267 OA
HETATM   31  N5  UNL     1      37.936  15.781 -32.906  1.00  0.00    -0.156 N 
HETATM   32  C15 UNL     1      37.676  14.486 -32.650  1.00  0.00     0.680 A 
ATOM     33  H5  UNL     1      38.855  16.183 -32.722  1.00  0.00     0.187 HD
HETATM   34  N7  UNL     1      36.449  13.988 -32.903  1.00  0.00    -0.176 N 
ATOM     35  H7  UNL     1      36.278  13.004 -32.698  1.00  0.00     0.186 HD
HETATM   36  N8  UNL     1      34.146  14.458 -33.745  1.00  0.00    -0.332 N 
HETATM   37  C17 UNL     1      33.578  13.149 -33.567  1.00  0.00     0.158 C 
BRANCH  32  38
HETATM   38  N6  UNL     1      38.604  13.733 -32.163  1.00  0.00    -0.234 N 
ATOM     39  H62 UNL     1      39.282  14.107 -31.499  1.00  0.00     0.174 HD
ATOM     40  H61 UNL     1      38.659  12.754 -32.445  1.00  0.00     0.174 HD
ENDBRANCH  32  38
ENDBRANCH   1  25
TORSDOF 12
ENDMDL
MODEL 3
REMARK VINA RESULT: -8.062663164      1.253      1.709
REMARK  12 active torsions:
REMARK  status: ('A' for Active; 'I' for Inactive)
REMARK    1  A    between atoms: O1_2  and  N1_3 
REMARK    2  A    between atoms: N3_12  and  C7_13 
REMARK    3  A    between atoms: C7_13  and  N4_14 
REMARK    4  A    between atoms: C7_13  and  C11_25 
REMARK    5  A    between atoms: N4_14  and  O3_15 
REMARK    6  A    between atoms: O3_15  and  C8_16 
REMARK    7  A    between atoms: C8_16  and  O4_17 
REMARK    8  A    between atoms: C8_16  and  C9_19 
REMARK    9  A    between atoms: C9_19  and  O5_20 
REMARK   10  A    between atoms: C9_19  and  C10_22 
REMARK   11  A    between atoms: C10_22  and  O6_23 
REMARK   12  A    between atoms: C15_32  and  N6_33 
ROOT
HETATM    1  C7  UNL     1      30.040  16.212 -35.780  1.00  0.00     0.264 C 
ENDROOT
BRANCH   1   2
HETATM    2  N3  UNL     1      29.438  17.501 -35.494  1.00  0.00    -0.076 N 
HETATM    3  C2  UNL     1      29.488  18.484 -36.383  1.00  0.00     0.715 A 
HETATM    4  N1  UNL     1      30.063  18.436 -37.538  1.00  0.00    -0.096 N 
HETATM    5  N2  UNL     1      28.859  19.665 -36.042  1.00  0.00    -0.195 N 
ATOM      6  H1  UNL     1      30.029  19.261 -38.138  1.00  0.00     0.213 HD
HETATM    7  C3  UNL     1      28.888  20.761 -36.978  1.00  0.00     0.175 C 
HETATM    8  C4  UNL     1      28.227  19.827 -34.878  1.00  0.00     0.114 A 
HETATM    9  C5  UNL     1      28.183  18.800 -33.965  1.00  0.00     0.093 A 
HETATM   10  C6  UNL     1      28.807  17.638 -34.313  1.00  0.00     0.270 A 
HETATM   11  O2  UNL     1      28.800  16.658 -33.513  1.00  0.00    -0.267 OA
BRANCH   4  12
HETATM   12  O1  UNL     1      30.704  17.345 -37.977  1.00  0.00    -0.271 OA
HETATM   13  C1  UNL     1      31.730  17.270 -38.920  1.00  0.00     0.238 C 
ENDBRANCH   4  12
ENDBRANCH   1   2
BRANCH   1  14
HETATM   14  N4  UNL     1      29.369  15.411 -36.400  1.00  0.00    -0.256 NA
BRANCH  14  15
HETATM   15  O3  UNL     1      28.609  14.609 -36.866  1.00  0.00    -0.172 OA
BRANCH  15  16
HETATM   16  C8  UNL     1      27.424  13.911 -36.669  1.00  0.00     0.332 C 
BRANCH  16  17
HETATM   17  O4  UNL     1      26.315  14.704 -36.504  1.00  0.00    -0.366 OA
ATOM     18  H4  UNL     1      25.727  14.421 -35.813  1.00  0.00     0.212 HD
ENDBRANCH  16  17
BRANCH  16  19
HETATM   19  C9  UNL     1      27.635  13.039 -35.419  1.00  0.00     0.200 C 
BRANCH  19  20
HETATM   20  O5  UNL     1      29.004  12.874 -35.199  1.00  0.00    -0.388 OA
ATOM     21  H5  UNL     1      29.379  13.702 -34.925  1.00  0.00     0.210 HD
ENDBRANCH  19  20
BRANCH  19  22
HETATM   22  C10 UNL     1      26.943  11.698 -35.574  1.00  0.00     0.201 C 
BRANCH  22  23
HETATM   23  O6  UNL     1      25.591  11.988 -35.854  1.00  0.00    -0.398 OA
ATOM     24  H6  UNL     1      25.582  12.864 -36.222  1.00  0.00     0.209 HD
ENDBRANCH  22  23
ENDBRANCH  19  22
ENDBRANCH  16  19
ENDBRANCH  15  16
ENDBRANCH  14  15
ENDBRANCH   1  14
BRANCH   1  25
HETATM   25  C11 UNL     1      31.381  15.843 -35.330  1.00  0.00     0.099 A 
HETATM   26  C12 UNL     1      32.091  16.627 -34.402  1.00  0.00     0.056 A 
HETATM   27  C13 UNL     1      33.316  16.055 -34.143  1.00  0.00     0.080 A 
HETATM   28  C14 UNL     1      34.396  16.356 -33.353  1.00  0.00     0.273 A 
HETATM   29  C16 UNL     1      33.360  14.931 -34.904  1.00  0.00     0.139 A 
HETATM   30  O7  UNL     1      34.326  17.412 -32.653  1.00  0.00    -0.267 OA
HETATM   31  N5  UNL     1      35.497  15.600 -33.289  1.00  0.00    -0.156 N 
HETATM   32  C15 UNL     1      35.531  14.489 -34.046  1.00  0.00     0.680 A 
ATOM     33  H5  UNL     1      36.280  15.855 -32.688  1.00  0.00     0.187 HD
HETATM   34  N7  UNL     1      34.476  14.181 -34.827  1.00  0.00    -0.176 N 
ATOM     35  H7  UNL     1      34.526  13.332 -35.391  1.00  0.00     0.186 HD
HETATM   36  N8  UNL     1      32.193  14.837 -35.595  1.00  0.00    -0.332 N 
HETATM   37  C17 UNL     1      31.936  13.736 -36.484  1.00  0.00     0.158 C 
BRANCH  32  38
HETATM   38  N6  UNL     1      36.572  13.728 -34.018  1.00  0.00    -0.234 N 
ATOM     39  H62 UNL     1      37.508  14.124 -34.109  1.00  0.00     0.174 HD
ATOM     40  H61 UNL     1      36.458  12.721 -33.904  1.00  0.00     0.174 HD
ENDBRANCH  32  38
ENDBRANCH   1  25
TORSDOF 12
ENDMDL
MODEL 4
REMARK VINA RESULT: -7.854864805      2.867      4.613
REMARK  12 active torsions:
REMARK  status: ('A' for Active; 'I' for Inactive)
REMARK    1  A    between atoms: O1_2  and  N1_3 
REMARK    2  A    between atoms: N3_12  and  C7_13 
REMARK    3  A    between atoms: C7_13  and  N4_14 
REMARK    4  A    between atoms: C7_13  and  C11_25 
REMARK    5  A    between atoms: N4_14  and  O3_15 
REMARK    6  A    between atoms: O3_15  and  C8_16 
REMARK    7  A    between atoms: C8_16  and  O4_17 
REMARK    8  A    between atoms: C8_16  and  C9_19 
REMARK    9  A    between atoms: C9_19  and  O5_20 
REMARK   10  A    between atoms: C9_19  and  C10_22 
REMARK   11  A    between atoms: C10_22  and  O6_23 
REMARK   12  A    between atoms: C15_32  and  N6_33 
ROOT
HETATM    1  C7  UNL     1      29.312  17.226 -35.982  1.00  0.00     0.264 C 
ENDROOT
BRANCH   1   2
HETATM    2  N3  UNL     1      28.499  17.870 -34.968  1.00  0.00    -0.076 N 
HETATM    3  C2  UNL     1      28.797  17.750 -33.682  1.00  0.00     0.715 A 
HETATM    4  N1  UNL     1      29.775  17.064 -33.189  1.00  0.00    -0.096 N 
HETATM    5  N2  UNL     1      27.990  18.425 -32.787  1.00  0.00    -0.195 N 
ATOM      6  H1  UNL     1      29.906  17.052 -32.178  1.00  0.00     0.213 HD
HETATM    7  C3  UNL     1      28.278  18.321 -31.378  1.00  0.00     0.175 C 
HETATM    8  C4  UNL     1      26.955  19.168 -33.182  1.00  0.00     0.114 A 
HETATM    9  C5  UNL     1      26.656  19.286 -34.519  1.00  0.00     0.093 A 
HETATM   10  C6  UNL     1      27.460  18.614 -35.392  1.00  0.00     0.270 A 
HETATM   11  O2  UNL     1      27.233  18.686 -36.634  1.00  0.00    -0.267 OA
BRANCH   4  12
HETATM   12  O1  UNL     1      30.624  16.369 -33.958  1.00  0.00    -0.271 OA
HETATM   13  C1  UNL     1      31.350  15.225 -33.622  1.00  0.00     0.238 C 
ENDBRANCH   4  12
ENDBRANCH   1   2
BRANCH   1  14
HETATM   14  N4  UNL     1      29.045  16.073 -36.258  1.00  0.00    -0.256 NA
BRANCH  14  15
HETATM   15  O3  UNL     1      28.650  15.002 -36.625  1.00  0.00    -0.172 OA
BRANCH  15  16
HETATM   16  C8  UNL     1      27.615  14.078 -36.545  1.00  0.00     0.332 C 
BRANCH  16  17
HETATM   17  O4  UNL     1      26.358  14.630 -36.505  1.00  0.00    -0.366 OA
ATOM     18  H4  UNL     1      25.794  14.278 -35.827  1.00  0.00     0.212 HD
ENDBRANCH  16  17
BRANCH  16  19
HETATM   19  C9  UNL     1      27.866  13.255 -35.269  1.00  0.00     0.200 C 
BRANCH  19  20
HETATM   20  O5  UNL     1      29.231  12.985 -35.156  1.00  0.00    -0.388 OA
ATOM     21  H5  UNL     1      29.690  13.380 -35.888  1.00  0.00     0.210 HD
ENDBRANCH  19  20
BRANCH  19  22
HETATM   22  C10 UNL     1      27.057  11.972 -35.288  1.00  0.00     0.201 C 
BRANCH  22  23
HETATM   23  O6  UNL     1      27.075  11.520 -36.624  1.00  0.00    -0.398 OA
ATOM     24  H6  UNL     1      27.983  11.552 -36.899  1.00  0.00     0.209 HD
ENDBRANCH  22  23
ENDBRANCH  19  22
ENDBRANCH  16  19
ENDBRANCH  15  16
ENDBRANCH  14  15
ENDBRANCH   1  14
BRANCH   1  25
HETATM   25  C11 UNL     1      30.434  17.891 -36.643  1.00  0.00     0.099 A 
HETATM   26  C12 UNL     1      30.905  17.471 -37.899  1.00  0.00     0.056 A 
HETATM   27  C13 UNL     1      31.956  18.267 -38.298  1.00  0.00     0.080 A 
HETATM   28  C14 UNL     1      32.783  18.330 -39.390  1.00  0.00     0.273 A 
HETATM   29  C16 UNL     1      32.128  19.167 -37.296  1.00  0.00     0.139 A 
HETATM   30  O7  UNL     1      32.597  17.477 -40.309  1.00  0.00    -0.267 OA
HETATM   31  N5  UNL     1      33.756  19.238 -39.526  1.00  0.00    -0.156 N 
HETATM   32  C15 UNL     1      33.920  20.125 -38.528  1.00  0.00     0.680 A 
ATOM     33  H5  UNL     1      34.351  19.256 -40.354  1.00  0.00     0.187 HD
HETATM   34  N7  UNL     1      33.114  20.074 -37.449  1.00  0.00    -0.176 N 
ATOM     35  H7  UNL     1      33.258  20.759 -36.707  1.00  0.00     0.186 HD
HETATM   36  N8  UNL     1      31.206  18.914 -36.330  1.00  0.00    -0.332 N 
HETATM   37  C17 UNL     1      31.131  19.717 -35.139  1.00  0.00     0.158 C 
BRANCH  32  38
HETATM   38  N6  UNL     1      34.846  21.019 -38.614  1.00  0.00    -0.234 N 
ATOM     39  H62 UNL     1      35.792  20.821 -38.286  1.00  0.00     0.174 HD
ATOM     40  H61 UNL     1      34.631  21.932 -39.013  1.00  0.00     0.174 HD
ENDBRANCH  32  38
ENDBRANCH   1  25
TORSDOF 12
ENDMDL
MODEL 5
REMARK VINA RESULT: -7.767116456      2.044      3.747
REMARK  12 active torsions:
REMARK  status: ('A' for Active; 'I' for Inactive)
REMARK    1  A    between atoms: O1_2  and  N1_3 
REMARK    2  A    between atoms: N3_12  and  C7_13 
REMARK    3  A    between atoms: C7_13  and  N4_14 
REMARK    4  A    between atoms: C7_13  and  C11_25 
REMARK    5  A    between atoms: N4_14  and  O3_15 
REMARK    6  A    between atoms: O3_15  and  C8_16 
REMARK    7  A    between atoms: C8_16  and  O4_17 
REMARK    8  A    between atoms: C8_16  and  C9_19 
REMARK    9  A    between atoms: C9_19  and  O5_20 
REMARK   10  A    between atoms: C9_19  and  C10_22 
REMARK   11  A    between atoms: C10_22  and  O6_23 
REMARK   12  A    between atoms: C15_32  and  N6_33 
ROOT
HETATM    1  C7  UNL     1      32.120  14.985 -35.306  1.00  0.00     0.264 C 
ENDROOT
BRANCH   1   2
HETATM    2  N3  UNL     1      31.844  15.684 -36.546  1.00  0.00    -0.076 N 
HETATM    3  C2  UNL     1      31.303  16.895 -36.536  1.00  0.00     0.715 A 
HETATM    4  N1  UNL     1      30.948  17.560 -35.488  1.00  0.00    -0.096 N 
HETATM    5  N2  UNL     1      31.106  17.501 -37.761  1.00  0.00    -0.195 N 
ATOM      6  H1  UNL     1      30.545  18.489 -35.609  1.00  0.00     0.213 HD
HETATM    7  C3  UNL     1      30.520  18.818 -37.798  1.00  0.00     0.175 C 
HETATM    8  C4  UNL     1      31.440  16.911 -38.911  1.00  0.00     0.114 A 
HETATM    9  C5  UNL     1      32.001  15.656 -38.908  1.00  0.00     0.093 A 
HETATM   10  C6  UNL     1      32.190  15.067 -37.692  1.00  0.00     0.270 A 
HETATM   11  O2  UNL     1      32.702  13.913 -37.627  1.00  0.00    -0.267 OA
BRANCH   4  12
HETATM   12  O1  UNL     1      31.091  17.075 -34.247  1.00  0.00    -0.271 OA
HETATM   13  C1  UNL     1      30.383  17.431 -33.097  1.00  0.00     0.238 C 
ENDBRANCH   4  12
ENDBRANCH   1   2
BRANCH   1  14
HETATM   14  N4  UNL     1      31.182  14.452 -34.748  1.00  0.00    -0.256 NA
BRANCH  14  15
HETATM   15  O3  UNL     1      30.173  13.938 -34.352  1.00  0.00    -0.172 OA
BRANCH  15  16
HETATM   16  C8  UNL     1      28.835  13.688 -34.628  1.00  0.00     0.332 C 
BRANCH  16  17
HETATM   17  O4  UNL     1      28.564  12.401 -35.024  1.00  0.00    -0.366 OA
ATOM     18  H4  UNL     1      28.372  12.305 -35.950  1.00  0.00     0.212 HD
ENDBRANCH  16  17
BRANCH  16  19
HETATM   19  C9  UNL     1      28.428  14.674 -35.737  1.00  0.00     0.200 C 
BRANCH  19  20
HETATM   20  O5  UNL     1      28.274  15.948 -35.187  1.00  0.00    -0.388 OA
ATOM     21  H5  UNL     1      29.117  16.259 -34.877  1.00  0.00     0.210 HD
ENDBRANCH  19  20
BRANCH  19  22
HETATM   22  C10 UNL     1      27.153  14.219 -36.421  1.00  0.00     0.201 C 
BRANCH  22  23
HETATM   23  O6  UNL     1      27.557  13.584 -37.615  1.00  0.00    -0.398 OA
ATOM     24  H6  UNL     1      27.837  14.279 -38.199  1.00  0.00     0.209 HD
ENDBRANCH  22  23
ENDBRANCH  19  22
ENDBRANCH  16  19
ENDBRANCH  15  16
ENDBRANCH  14  15
ENDBRANCH   1  14
BRANCH   1  25
HETATM   25  C11 UNL     1      33.452  14.928 -34.704  1.00  0.00     0.099 A 
HETATM   26  C12 UNL     1      34.249  16.079 -34.565  1.00  0.00     0.056 A 
HETATM   27  C13 UNL     1      35.443  15.754 -33.962  1.00  0.00     0.080 A 
HETATM   28  C14 UNL     1      36.572  16.434 -33.583  1.00  0.00     0.273 A 
HETATM   29  C16 UNL     1      35.381  14.416 -33.733  1.00  0.00     0.139 A 
HETATM   30  O7  UNL     1      36.600  17.681 -33.810  1.00  0.00    -0.267 OA
HETATM   31  N5  UNL     1      37.622  15.851 -32.995  1.00  0.00    -0.156 N 
HETATM   32  C15 UNL     1      37.551  14.527 -32.773  1.00  0.00     0.680 A 
ATOM     33  H5  UNL     1      38.445  16.390 -32.726  1.00  0.00     0.187 HD
HETATM   34  N7  UNL     1      36.448  13.845 -33.141  1.00  0.00    -0.176 N 
ATOM     35  H7  UNL     1      36.419  12.842 -32.960  1.00  0.00     0.186 HD
HETATM   36  N8  UNL     1      34.183  13.960 -34.186  1.00  0.00    -0.332 N 
HETATM   37  C17 UNL     1      33.818  12.574 -34.070  1.00  0.00     0.158 C 
BRANCH  32  38
HETATM   38  N6  UNL     1      38.541  13.920 -32.209  1.00  0.00    -0.234 N 
ATOM     39  H62 UNL     1      39.502  14.195 -32.410  1.00  0.00     0.174 HD
ATOM     40  H61 UNL     1      38.359  13.157 -31.556  1.00  0.00     0.174 HD
ENDBRANCH  32  38
ENDBRANCH   1  25
TORSDOF 12
ENDMDL
