MODEL 1
REMARK VINA RESULT: -8.552644090      0.000      0.000
REMARK  11 active torsions:
REMARK  status: ('A' for Active; 'I' for Inactive)
REMARK    1  A    between atoms: C2_2  and  C3_3 
REMARK    2  A    between atoms: C3_3  and  N1_4 
REMARK    3  A    between atoms: C5_6  and  C6_7 
REMARK    4  A    between atoms: C6_7  and  N2_9 
REMARK    5  A    between atoms: N2_9  and  N3_11 
REMARK       I    between atoms: N3_11  and  C7_13 
REMARK    6  A    between atoms: C7_13  and  C8_15 
REMARK    7  A    between atoms: N6_20  and  C9_21 
REMARK    8  A    between atoms: C10_27  and  N9_28 
REMARK    9  A    between atoms: C11_33  and  N11_34 
REMARK   10  A    between atoms: N12_37  and  C12_38 
REMARK   11  A    between atoms: C12_38  and  C13_39 
REMARK       I    between atoms: C13_39  and  N13_41 
ROOT
HETATM    1  N3  UNL     1      31.686  12.774 -35.060  1.00  0.00    -0.262 N 
ATOM      2  H3  UNL     1      31.944  13.474 -35.755  1.00  0.00     0.190 HD
HETATM    3  C7  UNL     1      32.653  12.230 -34.188  1.00  0.00     0.306 C 
HETATM    4  O1  UNL     1      32.380  11.365 -33.318  1.00  0.00    -0.262 OA
ENDROOT
BRANCH   1   5
HETATM    5  N2  UNL     1      30.361  12.328 -34.947  1.00  0.00    -0.287 N 
ATOM      6  H2  UNL     1      30.181  11.325 -34.905  1.00  0.00     0.188 HD
BRANCH   5   7
HETATM    7  C6  UNL     1      29.262  13.224 -34.889  1.00  0.00     0.130 C 
HETATM    8  S1  UNL     1      27.735  12.682 -34.699  1.00  0.00    -0.058 SA
BRANCH   7   9
HETATM    9  C5  UNL     1      29.443  14.674 -34.998  1.00  0.00     0.065 A 
HETATM   10  C4  UNL     1      29.455  15.606 -33.982  1.00  0.00     0.129 A 
HETATM   11  N1  UNL     1      29.651  16.863 -34.490  1.00  0.00    -0.298 N 
HETATM   12  N12 UNL     1      29.759  16.727 -35.787  1.00  0.00    -0.266 N 
HETATM   13  C11 UNL     1      29.639  15.417 -36.142  1.00  0.00     0.131 A 
BRANCH  11  14
HETATM   14  C3  UNL     1      29.734  18.060 -33.679  1.00  0.00     0.148 C 
BRANCH  14  15
HETATM   15  C2  UNL     1      28.511  18.336 -32.878  1.00  0.00     0.017 C 
HETATM   16  C1  UNL     1      27.426  18.754 -33.884  1.00  0.00     0.007 C 
ENDBRANCH  14  15
ENDBRANCH  11  14
BRANCH  12  17
HETATM   17  C12 UNL     1      29.991  17.785 -36.748  1.00  0.00     0.253 C 
BRANCH  17  18
HETATM   18  C13 UNL     1      31.438  18.108 -36.866  1.00  0.00     0.237 C 
HETATM   19  O3  UNL     1      32.291  17.404 -36.232  1.00  0.00    -0.272 OA
HETATM   20  N13 UNL     1      31.864  19.187 -37.674  1.00  0.00    -0.364 N 
HETATM   21  C14 UNL     1      33.281  19.480 -37.771  1.00  0.00     0.149 C 
ATOM     22  H13 UNL     1      31.184  19.752 -38.183  1.00  0.00     0.161 HD
ENDBRANCH  17  18
ENDBRANCH  12  17
BRANCH  13  23
HETATM   23  N11 UNL     1      29.695  14.921 -37.341  1.00  0.00    -0.383 N 
ATOM     24 2H11 UNL     1      29.290  15.313 -38.190  1.00  0.00     0.157 HD
ATOM     25 1H11 UNL     1      30.169  14.050 -37.583  1.00  0.00     0.157 HD
ENDBRANCH  13  23
ENDBRANCH   7   9
ENDBRANCH   5   7
ENDBRANCH   1   5
BRANCH   3  26
HETATM   26  C8  UNL     1      34.030  12.688 -34.298  1.00  0.00     0.208 A 
HETATM   27  N4  UNL     1      34.926  12.376 -35.271  1.00  0.00    -0.264 N 
HETATM   28  N5  UNL     1      36.054  12.983 -35.011  1.00  0.00    -0.218 N 
ATOM     29  H4  UNL     1      34.748  11.768 -36.072  1.00  0.00     0.190 HD
HETATM   30  N6  UNL     1      35.950  13.699 -33.890  1.00  0.00    -0.158 N 
ATOM     31  H5  UNL     1      36.895  12.920 -35.584  1.00  0.00     0.210 HD
HETATM   32  N10 UNL     1      34.715  13.507 -33.472  1.00  0.00    -0.255 N 
ATOM     33  H10 UNL     1      34.324  13.926 -32.628  1.00  0.00     0.191 HD
BRANCH  30  34
HETATM   34  C9  UNL     1      36.982  14.488 -33.304  1.00  0.00     0.214 A 
HETATM   35  N7  UNL     1      38.032  14.023 -32.571  1.00  0.00    -0.219 N 
HETATM   36  O2  UNL     1      38.780  15.018 -32.192  1.00  0.00    -0.153 OA
ATOM     37  H7  UNL     1      38.206  13.042 -32.353  1.00  0.00     0.198 HD
HETATM   38  N8  UNL     1      38.279  16.140 -32.639  1.00  0.00    -0.222 N 
HETATM   39  C10 UNL     1      37.159  15.855 -33.336  1.00  0.00     0.171 A 
ATOM     40  H8  UNL     1      38.668  17.070 -32.486  1.00  0.00     0.198 HD
BRANCH  39  41
HETATM   41  N9  UNL     1      36.384  16.696 -33.930  1.00  0.00    -0.381 N 
ATOM     42  H92 UNL     1      35.737  16.497 -34.694  1.00  0.00     0.157 HD
ATOM     43  H91 UNL     1      36.312  17.690 -33.714  1.00  0.00     0.157 HD
ENDBRANCH  39  41
ENDBRANCH  30  34
ENDBRANCH   3  26
TORSDOF 11
ENDMDL
MODEL 2
REMARK VINA RESULT: -8.415564349      1.584      2.822
REMARK  11 active torsions:
REMARK  status: ('A' for Active; 'I' for Inactive)
REMARK    1  A    between atoms: C2_2  and  C3_3 
REMARK    2  A    between atoms: C3_3  and  N1_4 
REMARK    3  A    between atoms: C5_6  and  C6_7 
REMARK    4  A    between atoms: C6_7  and  N2_9 
REMARK    5  A    between atoms: N2_9  and  N3_11 
REMARK       I    between atoms: N3_11  and  C7_13 
REMARK    6  A    between atoms: C7_13  and  C8_15 
REMARK    7  A    between atoms: N6_20  and  C9_21 
REMARK    8  A    between atoms: C10_27  and  N9_28 
REMARK    9  A    between atoms: C11_33  and  N11_34 
REMARK   10  A    between atoms: N12_37  and  C12_38 
REMARK   11  A    between atoms: C12_38  and  C13_39 
REMARK       I    between atoms: C13_39  and  N13_41 
ROOT
HETATM    1  N3  UNL     1      32.168  12.731 -35.150  1.00  0.00    -0.262 N 
ATOM      2  H3  UNL     1      32.658  12.776 -36.043  1.00  0.00     0.190 HD
HETATM    3  C7  UNL     1      32.838  13.027 -33.943  1.00  0.00     0.306 C 
HETATM    4  O1  UNL     1      32.275  12.983 -32.820  1.00  0.00    -0.262 OA
ENDROOT
BRANCH   1   5
HETATM    5  N2  UNL     1      30.814  12.373 -35.090  1.00  0.00    -0.287 N 
ATOM      6  H2  UNL     1      30.568  11.385 -35.033  1.00  0.00     0.188 HD
BRANCH   5   7
HETATM    7  C6  UNL     1      29.774  13.338 -35.106  1.00  0.00     0.130 C 
HETATM    8  S1  UNL     1      28.233  12.930 -34.757  1.00  0.00    -0.058 SA
BRANCH   7   9
HETATM    9  C5  UNL     1      30.029  14.742 -35.436  1.00  0.00     0.065 A 
HETATM   10  C4  UNL     1      29.993  15.341 -36.678  1.00  0.00     0.129 A 
HETATM   11  N1  UNL     1      30.290  16.674 -36.573  1.00  0.00    -0.298 N 
HETATM   12  N12 UNL     1      30.508  16.908 -35.304  1.00  0.00    -0.266 N 
HETATM   13  C11 UNL     1      30.361  15.766 -34.575  1.00  0.00     0.131 A 
BRANCH  11  14
HETATM   14  C3  UNL     1      30.317  17.588 -37.696  1.00  0.00     0.148 C 
BRANCH  14  15
HETATM   15  C2  UNL     1      31.433  17.346 -38.649  1.00  0.00     0.017 C 
HETATM   16  C1  UNL     1      32.339  18.587 -38.572  1.00  0.00     0.007 C 
ENDBRANCH  14  15
ENDBRANCH  11  14
BRANCH  12  17
HETATM   17  C12 UNL     1      30.843  18.184 -34.707  1.00  0.00     0.253 C 
BRANCH  17  18
HETATM   18  C13 UNL     1      32.283  18.254 -34.341  1.00  0.00     0.237 C 
HETATM   19  O3  UNL     1      33.166  17.941 -35.205  1.00  0.00    -0.272 OA
HETATM   20  N13 UNL     1      32.669  18.664 -33.043  1.00  0.00    -0.364 N 
HETATM   21  C14 UNL     1      34.079  18.724 -32.712  1.00  0.00     0.149 C 
ATOM     22  H13 UNL     1      31.964  18.915 -32.349  1.00  0.00     0.161 HD
ENDBRANCH  17  18
ENDBRANCH  12  17
BRANCH  13  23
HETATM   23  N11 UNL     1      30.502  15.631 -33.292  1.00  0.00    -0.383 N 
ATOM     24 2H11 UNL     1      30.276  14.810 -32.730  1.00  0.00     0.157 HD
ATOM     25 1H11 UNL     1      30.868  16.353 -32.671  1.00  0.00     0.157 HD
ENDBRANCH  13  23
ENDBRANCH   7   9
ENDBRANCH   5   7
ENDBRANCH   1   5
BRANCH   3  26
HETATM   26  C8  UNL     1      34.243  13.401 -33.996  1.00  0.00     0.208 A 
HETATM   27  N4  UNL     1      35.256  12.714 -34.590  1.00  0.00    -0.264 N 
HETATM   28  N5  UNL     1      36.369  13.377 -34.415  1.00  0.00    -0.218 N 
ATOM     29  H4  UNL     1      35.162  11.828 -35.088  1.00  0.00     0.190 HD
HETATM   30  N6  UNL     1      36.142  14.494 -33.720  1.00  0.00    -0.158 N 
ATOM     31  H5  UNL     1      37.282  13.083 -34.761  1.00  0.00     0.210 HD
HETATM   32  N10 UNL     1      34.847  14.490 -33.476  1.00  0.00    -0.255 N 
ATOM     33  H10 UNL     1      34.360  15.221 -32.957  1.00  0.00     0.191 HD
BRANCH  30  34
HETATM   34  C9  UNL     1      37.122  15.456 -33.344  1.00  0.00     0.214 A 
HETATM   35  N7  UNL     1      37.076  16.794 -33.596  1.00  0.00    -0.219 N 
HETATM   36  O2  UNL     1      38.135  17.372 -33.110  1.00  0.00    -0.153 OA
ATOM     37  H7  UNL     1      36.322  17.271 -34.092  1.00  0.00     0.198 HD
HETATM   38  N8  UNL     1      38.899  16.480 -32.537  1.00  0.00    -0.222 N 
HETATM   39  C10 UNL     1      38.305  15.274 -32.659  1.00  0.00     0.171 A 
ATOM     40  H8  UNL     1      39.790  16.664 -32.077  1.00  0.00     0.198 HD
BRANCH  39  41
HETATM   41  N9  UNL     1      38.750  14.146 -32.223  1.00  0.00    -0.381 N 
ATOM     42  H92 UNL     1      39.527  13.606 -32.604  1.00  0.00     0.157 HD
ATOM     43  H91 UNL     1      38.379  13.633 -31.423  1.00  0.00     0.157 HD
ENDBRANCH  39  41
ENDBRANCH  30  34
ENDBRANCH   3  26
TORSDOF 11
ENDMDL
MODEL 3
REMARK VINA RESULT: -8.406186645      0.686      1.110
REMARK  11 active torsions:
REMARK  status: ('A' for Active; 'I' for Inactive)
REMARK    1  A    between atoms: C2_2  and  C3_3 
REMARK    2  A    between atoms: C3_3  and  N1_4 
REMARK    3  A    between atoms: C5_6  and  C6_7 
REMARK    4  A    between atoms: C6_7  and  N2_9 
REMARK    5  A    between atoms: N2_9  and  N3_11 
REMARK       I    between atoms: N3_11  and  C7_13 
REMARK    6  A    between atoms: C7_13  and  C8_15 
REMARK    7  A    between atoms: N6_20  and  C9_21 
REMARK    8  A    between atoms: C10_27  and  N9_28 
REMARK    9  A    between atoms: C11_33  and  N11_34 
REMARK   10  A    between atoms: N12_37  and  C12_38 
REMARK   11  A    between atoms: C12_38  and  C13_39 
REMARK       I    between atoms: C13_39  and  N13_41 
ROOT
HETATM    1  N3  UNL     1      31.772  12.898 -34.946  1.00  0.00    -0.262 N 
ATOM      2  H3  UNL     1      31.987  13.661 -35.588  1.00  0.00     0.190 HD
HETATM    3  C7  UNL     1      32.776  12.334 -34.130  1.00  0.00     0.306 C 
HETATM    4  O1  UNL     1      32.556  11.393 -33.327  1.00  0.00    -0.262 OA
ENDROOT
BRANCH   1   5
HETATM    5  N2  UNL     1      30.470  12.384 -34.852  1.00  0.00    -0.287 N 
ATOM      6  H2  UNL     1      30.344  11.374 -34.795  1.00  0.00     0.188 HD
BRANCH   5   7
HETATM    7  C6  UNL     1      29.325  13.221 -34.833  1.00  0.00     0.130 C 
HETATM    8  S1  UNL     1      27.825  12.602 -34.665  1.00  0.00    -0.058 SA
BRANCH   7   9
HETATM    9  C5  UNL     1      29.431  14.676 -34.966  1.00  0.00     0.065 A 
HETATM   10  C4  UNL     1      29.512  15.616 -33.961  1.00  0.00     0.129 A 
HETATM   11  N1  UNL     1      29.599  16.876 -34.492  1.00  0.00    -0.298 N 
HETATM   12  N12 UNL     1      29.572  16.734 -35.793  1.00  0.00    -0.266 N 
HETATM   13  C11 UNL     1      29.470  15.418 -36.128  1.00  0.00     0.131 A 
BRANCH  11  14
HETATM   14  C3  UNL     1      29.717  18.082 -33.699  1.00  0.00     0.148 C 
BRANCH  14  15
HETATM   15  C2  UNL     1      28.551  18.343 -32.813  1.00  0.00     0.017 C 
HETATM   16  C1  UNL     1      27.415  18.823 -33.732  1.00  0.00     0.007 C 
ENDBRANCH  14  15
ENDBRANCH  11  14
BRANCH  12  17
HETATM   17  C12 UNL     1      29.653  17.793 -36.777  1.00  0.00     0.253 C 
BRANCH  17  18
HETATM   18  C13 UNL     1      31.057  18.025 -37.214  1.00  0.00     0.237 C 
HETATM   19  O3  UNL     1      31.640  17.154 -37.938  1.00  0.00    -0.272 OA
HETATM   20  N13 UNL     1      31.737  19.203 -36.828  1.00  0.00    -0.364 N 
HETATM   21  C14 UNL     1      33.104  19.404 -37.268  1.00  0.00     0.149 C 
ATOM     22  H13 UNL     1      31.273  19.902 -36.248  1.00  0.00     0.161 HD
ENDBRANCH  17  18
ENDBRANCH  12  17
BRANCH  13  23
HETATM   23  N11 UNL     1      29.419  14.914 -37.324  1.00  0.00    -0.383 N 
ATOM     24 2H11 UNL     1      30.063  15.089 -38.094  1.00  0.00     0.157 HD
ATOM     25 1H11 UNL     1      28.704  14.261 -37.645  1.00  0.00     0.157 HD
ENDBRANCH  13  23
ENDBRANCH   7   9
ENDBRANCH   5   7
ENDBRANCH   1   5
BRANCH   3  26
HETATM   26  C8  UNL     1      34.130  12.862 -34.221  1.00  0.00     0.208 A 
HETATM   27  N4  UNL     1      35.152  12.380 -34.976  1.00  0.00    -0.264 N 
HETATM   28  N5  UNL     1      36.206  13.129 -34.778  1.00  0.00    -0.218 N 
ATOM     29  H4  UNL     1      35.106  11.568 -35.593  1.00  0.00     0.190 HD
HETATM   30  N6  UNL     1      35.928  14.106 -33.913  1.00  0.00    -0.158 N 
ATOM     31  H5  UNL     1      37.112  12.987 -35.224  1.00  0.00     0.210 HD
HETATM   32  N10 UNL     1      34.663  13.927 -33.586  1.00  0.00    -0.255 N 
ATOM     33  H10 UNL     1      34.151  14.520 -32.933  1.00  0.00     0.191 HD
BRANCH  30  34
HETATM   34  C9  UNL     1      36.836  15.106 -33.463  1.00  0.00     0.214 A 
HETATM   35  N7  UNL     1      36.754  16.442 -33.719  1.00  0.00    -0.219 N 
HETATM   36  O2  UNL     1      37.749  17.062 -33.155  1.00  0.00    -0.153 OA
ATOM     37  H7  UNL     1      36.021  16.889 -34.271  1.00  0.00     0.198 HD
HETATM   38  N8  UNL     1      38.503  16.200 -32.525  1.00  0.00    -0.222 N 
HETATM   39  C10 UNL     1      37.971  14.971 -32.691  1.00  0.00     0.171 A 
ATOM     40  H8  UNL     1      39.349  16.419 -31.999  1.00  0.00     0.198 HD
BRANCH  39  41
HETATM   41  N9  UNL     1      38.427  13.861 -32.222  1.00  0.00    -0.381 N 
ATOM     42  H92 UNL     1      37.888  13.027 -31.989  1.00  0.00     0.157 HD
ATOM     43  H91 UNL     1      39.407  13.664 -32.016  1.00  0.00     0.157 HD
ENDBRANCH  39  41
ENDBRANCH  30  34
ENDBRANCH   3  26
TORSDOF 11
ENDMDL
MODEL 4
REMARK VINA RESULT: -8.403704975      1.245      1.483
REMARK  11 active torsions:
REMARK  status: ('A' for Active; 'I' for Inactive)
REMARK    1  A    between atoms: C2_2  and  C3_3 
REMARK    2  A    between atoms: C3_3  and  N1_4 
REMARK    3  A    between atoms: C5_6  and  C6_7 
REMARK    4  A    between atoms: C6_7  and  N2_9 
REMARK    5  A    between atoms: N2_9  and  N3_11 
REMARK       I    between atoms: N3_11  and  C7_13 
REMARK    6  A    between atoms: C7_13  and  C8_15 
REMARK    7  A    between atoms: N6_20  and  C9_21 
REMARK    8  A    between atoms: C10_27  and  N9_28 
REMARK    9  A    between atoms: C11_33  and  N11_34 
REMARK   10  A    between atoms: N12_37  and  C12_38 
REMARK   11  A    between atoms: C12_38  and  C13_39 
REMARK       I    between atoms: C13_39  and  N13_41 
ROOT
HETATM    1  N3  UNL     1      31.682  12.715 -35.151  1.00  0.00    -0.262 N 
ATOM      2  H3  UNL     1      31.971  13.328 -35.913  1.00  0.00     0.190 HD
HETATM    3  C7  UNL     1      32.613  12.273 -34.186  1.00  0.00     0.306 C 
HETATM    4  O1  UNL     1      32.302  11.516 -33.232  1.00  0.00    -0.262 OA
ENDROOT
BRANCH   1   5
HETATM    5  N2  UNL     1      30.351  12.290 -35.035  1.00  0.00    -0.287 N 
ATOM      6  H2  UNL     1      30.151  11.290 -35.048  1.00  0.00     0.188 HD
BRANCH   5   7
HETATM    7  C6  UNL     1      29.273  13.203 -34.902  1.00  0.00     0.130 C 
HETATM    8  S1  UNL     1      27.751  12.684 -34.623  1.00  0.00    -0.058 SA
BRANCH   7   9
HETATM    9  C5  UNL     1      29.470  14.650 -35.008  1.00  0.00     0.065 A 
HETATM   10  C4  UNL     1      29.501  15.580 -33.991  1.00  0.00     0.129 A 
HETATM   11  N1  UNL     1      29.710  16.835 -34.497  1.00  0.00    -0.298 N 
HETATM   12  N12 UNL     1      29.807  16.701 -35.795  1.00  0.00    -0.266 N 
HETATM   13  C11 UNL     1      29.668  15.394 -36.153  1.00  0.00     0.131 A 
BRANCH  11  14
HETATM   14  C3  UNL     1      29.812  18.029 -33.683  1.00  0.00     0.148 C 
BRANCH  14  15
HETATM   15  C2  UNL     1      28.722  18.178 -32.682  1.00  0.00     0.017 C 
HETATM   16  C1  UNL     1      27.591  18.943 -33.390  1.00  0.00     0.007 C 
ENDBRANCH  14  15
ENDBRANCH  11  14
BRANCH  12  17
HETATM   17  C12 UNL     1      30.045  17.759 -36.755  1.00  0.00     0.253 C 
BRANCH  17  18
HETATM   18  C13 UNL     1      28.963  18.780 -36.721  1.00  0.00     0.237 C 
HETATM   19  O3  UNL     1      27.751  18.415 -36.869  1.00  0.00    -0.272 OA
HETATM   20  N13 UNL     1      29.278  20.145 -36.525  1.00  0.00    -0.364 N 
HETATM   21  C14 UNL     1      28.205  21.119 -36.496  1.00  0.00     0.149 C 
ATOM     22  H13 UNL     1      30.247  20.440 -36.406  1.00  0.00     0.161 HD
ENDBRANCH  17  18
ENDBRANCH  12  17
BRANCH  13  23
HETATM   23  N11 UNL     1      29.710  14.900 -37.352  1.00  0.00    -0.383 N 
ATOM     24 2H11 UNL     1      29.827  15.412 -38.226  1.00  0.00     0.157 HD
ATOM     25 1H11 UNL     1      29.630  13.907 -37.571  1.00  0.00     0.157 HD
ENDBRANCH  13  23
ENDBRANCH   7   9
ENDBRANCH   5   7
ENDBRANCH   1   5
BRANCH   3  26
HETATM   26  C8  UNL     1      33.997  12.710 -34.298  1.00  0.00     0.208 A 
HETATM   27  N4  UNL     1      34.893  12.368 -35.261  1.00  0.00    -0.264 N 
HETATM   28  N5  UNL     1      36.028  12.965 -35.006  1.00  0.00    -0.218 N 
ATOM     29  H4  UNL     1      34.711  11.748 -36.051  1.00  0.00     0.190 HD
HETATM   30  N6  UNL     1      35.928  13.703 -33.899  1.00  0.00    -0.158 N 
ATOM     31  H5  UNL     1      36.871  12.879 -35.574  1.00  0.00     0.210 HD
HETATM   32  N10 UNL     1      34.688  13.535 -33.484  1.00  0.00    -0.255 N 
ATOM     33  H10 UNL     1      34.299  13.975 -32.650  1.00  0.00     0.191 HD
BRANCH  30  34
HETATM   34  C9  UNL     1      36.967  14.488 -33.323  1.00  0.00     0.214 A 
HETATM   35  N7  UNL     1      38.025  14.021 -32.602  1.00  0.00    -0.219 N 
HETATM   36  O2  UNL     1      38.778  15.013 -32.229  1.00  0.00    -0.153 OA
ATOM     37  H7  UNL     1      38.199  13.038 -32.387  1.00  0.00     0.198 HD
HETATM   38  N8  UNL     1      38.275  16.136 -32.669  1.00  0.00    -0.222 N 
HETATM   39  C10 UNL     1      37.147  15.855 -33.355  1.00  0.00     0.171 A 
ATOM     40  H8  UNL     1      38.668  17.066 -32.519  1.00  0.00     0.198 HD
BRANCH  39  41
HETATM   41  N9  UNL     1      36.368  16.698 -33.940  1.00  0.00    -0.381 N 
ATOM     42  H92 UNL     1      35.607  16.483 -34.584  1.00  0.00     0.157 HD
ATOM     43  H91 UNL     1      36.408  17.712 -33.835  1.00  0.00     0.157 HD
ENDBRANCH  39  41
ENDBRANCH  30  34
ENDBRANCH   3  26
TORSDOF 11
ENDMDL
MODEL 5
REMARK VINA RESULT: -8.333328461      1.333      2.876
REMARK  11 active torsions:
REMARK  status: ('A' for Active; 'I' for Inactive)
REMARK    1  A    between atoms: C2_2  and  C3_3 
REMARK    2  A    between atoms: C3_3  and  N1_4 
REMARK    3  A    between atoms: C5_6  and  C6_7 
REMARK    4  A    between atoms: C6_7  and  N2_9 
REMARK    5  A    between atoms: N2_9  and  N3_11 
REMARK       I    between atoms: N3_11  and  C7_13 
REMARK    6  A    between atoms: C7_13  and  C8_15 
REMARK    7  A    between atoms: N6_20  and  C9_21 
REMARK    8  A    between atoms: C10_27  and  N9_28 
REMARK    9  A    between atoms: C11_33  and  N11_34 
REMARK   10  A    between atoms: N12_37  and  C12_38 
REMARK   11  A    between atoms: C12_38  and  C13_39 
REMARK       I    between atoms: C13_39  and  N13_41 
ROOT
HETATM    1  N3  UNL     1      31.951  12.561 -35.218  1.00  0.00    -0.262 N 
ATOM      2  H3  UNL     1      32.399  12.627 -36.132  1.00  0.00     0.190 HD
HETATM    3  C7  UNL     1      32.692  12.758 -34.033  1.00  0.00     0.306 C 
HETATM    4  O1  UNL     1      32.182  12.685 -32.887  1.00  0.00    -0.262 OA
ENDROOT
BRANCH   1   5
HETATM    5  N2  UNL     1      30.583  12.273 -35.108  1.00  0.00    -0.287 N 
ATOM      6  H2  UNL     1      30.290  11.298 -35.042  1.00  0.00     0.188 HD
BRANCH   5   7
HETATM    7  C6  UNL     1      29.594  13.289 -35.085  1.00  0.00     0.130 C 
HETATM    8  S1  UNL     1      28.033  12.947 -34.752  1.00  0.00    -0.058 SA
BRANCH   7   9
HETATM    9  C5  UNL     1      29.921  14.690 -35.360  1.00  0.00     0.065 A 
HETATM   10  C4  UNL     1      29.810  15.368 -36.556  1.00  0.00     0.129 A 
HETATM   11  N1  UNL     1      30.216  16.668 -36.407  1.00  0.00    -0.298 N 
HETATM   12  N12 UNL     1      30.573  16.805 -35.156  1.00  0.00    -0.266 N 
HETATM   13  C11 UNL     1      30.412  15.632 -34.481  1.00  0.00     0.131 A 
BRANCH  11  14
HETATM   14  C3  UNL     1      30.202  17.647 -37.474  1.00  0.00     0.148 C 
BRANCH  14  15
HETATM   15  C2  UNL     1      31.286  17.467 -38.478  1.00  0.00     0.017 C 
HETATM   16  C1  UNL     1      32.236  18.663 -38.300  1.00  0.00     0.007 C 
ENDBRANCH  14  15
ENDBRANCH  11  14
BRANCH  12  17
HETATM   17  C12 UNL     1      31.059  18.015 -34.526  1.00  0.00     0.253 C 
BRANCH  17  18
HETATM   18  C13 UNL     1      29.987  18.694 -33.750  1.00  0.00     0.237 C 
HETATM   19  O3  UNL     1      28.879  18.967 -34.318  1.00  0.00    -0.272 OA
HETATM   20  N13 UNL     1      30.195  19.034 -32.393  1.00  0.00    -0.364 N 
HETATM   21  C14 UNL     1      29.134  19.696 -31.660  1.00  0.00     0.149 C 
ATOM     22  H13 UNL     1      31.081  18.817 -31.936  1.00  0.00     0.161 HD
ENDBRANCH  17  18
ENDBRANCH  12  17
BRANCH  13  23
HETATM   23  N11 UNL     1      30.665  15.406 -33.228  1.00  0.00    -0.383 N 
ATOM     24 2H11 UNL     1      30.049  14.970 -32.544  1.00  0.00     0.157 HD
ATOM     25 1H11 UNL     1      31.542  15.645 -32.764  1.00  0.00     0.157 HD
ENDBRANCH  13  23
ENDBRANCH   7   9
ENDBRANCH   5   7
ENDBRANCH   1   5
BRANCH   3  26
HETATM   26  C8  UNL     1      34.112  13.059 -34.138  1.00  0.00     0.208 A 
HETATM   27  N4  UNL     1      34.999  12.544 -35.031  1.00  0.00    -0.264 N 
HETATM   28  N5  UNL     1      36.176  13.062 -34.796  1.00  0.00    -0.218 N 
ATOM     29  H4  UNL     1      34.782  11.866 -35.762  1.00  0.00     0.190 HD
HETATM   30  N6  UNL     1      36.115  13.914 -33.771  1.00  0.00    -0.158 N 
ATOM     31  H5  UNL     1      37.022  12.846 -35.323  1.00  0.00     0.210 HD
HETATM   32  N10 UNL     1      34.854  13.898 -33.385  1.00  0.00    -0.255 N 
ATOM     33  H10 UNL     1      34.485  14.452 -32.613  1.00  0.00     0.191 HD
BRANCH  30  34
HETATM   34  C9  UNL     1      37.205  14.659 -33.239  1.00  0.00     0.214 A 
HETATM   35  N7  UNL     1      38.285  14.150 -32.582  1.00  0.00    -0.219 N 
HETATM   36  O2  UNL     1      39.086  15.114 -32.235  1.00  0.00    -0.153 OA
ATOM     37  H7  UNL     1      38.441  13.160 -32.392  1.00  0.00     0.198 HD
HETATM   38  N8  UNL     1      38.593  16.258 -32.630  1.00  0.00    -0.222 N 
HETATM   39  C10 UNL     1      37.423  16.021 -33.260  1.00  0.00     0.171 A 
ATOM     40  H8  UNL     1      39.021  17.173 -32.487  1.00  0.00     0.198 HD
BRANCH  39  41
HETATM   41  N9  UNL     1      36.640  16.896 -33.789  1.00  0.00    -0.381 N 
ATOM     42  H92 UNL     1      35.872  17.386 -33.330  1.00  0.00     0.157 HD
ATOM     43  H91 UNL     1      36.682  17.221 -34.755  1.00  0.00     0.157 HD
ENDBRANCH  39  41
ENDBRANCH  30  34
ENDBRANCH   3  26
TORSDOF 11
ENDMDL
