MODEL 1
REMARK VINA RESULT: -7.099125225      0.000      0.000
REMARK  10 active torsions:
REMARK  status: ('A' for Active; 'I' for Inactive)
REMARK    1  A    between atoms: O1_2  and  C2_3 
REMARK    2  A    between atoms: C3_5  and  C4_6 
REMARK    3  A    between atoms: C4_6  and  O3_7 
REMARK    4  A    between atoms: C5_9  and  O4_10 
REMARK    5  A    between atoms: O4_10  and  C6_11 
REMARK    6  A    between atoms: C8_17  and  O5_18 
REMARK    7  A    between atoms: O5_18  and  C9_19 
REMARK    8  A    between atoms: C9_19  and  N3_22 
REMARK       I    between atoms: N3_22  and  C12_24 
REMARK    9  A    between atoms: C12_24  and  C13_26 
REMARK   10  A    between atoms: C16_30  and  C17_31 
ROOT
HETATM    1  O5  UNL     1       0.767  80.448  22.398  1.00  0.00    -0.351 OA
ENDROOT
BRANCH   1   2
HETATM    2  C8  UNL     1      -0.367  80.253  21.641  1.00  0.00     0.182 C 
HETATM    3  C2  UNL     1      -0.101  79.496  20.353  1.00  0.00     0.288 C 
HETATM    4  O2  UNL     1      -1.300  79.023  19.870  1.00  0.00    -0.349 OA
HETATM    5  C3  UNL     1      -2.386  79.816  20.127  1.00  0.00     0.177 C 
HETATM    6  C5  UNL     1      -2.063  81.285  20.221  1.00  0.00     0.165 C 
HETATM    7  C7  UNL     1      -0.967  81.594  21.186  1.00  0.00     0.072 C 
BRANCH   3   8
HETATM    8  O1  UNL     1       0.446  80.333  19.382  1.00  0.00    -0.363 OA
HETATM    9  C1  UNL     1       1.760  79.989  19.081  1.00  0.00     0.204 C 
ENDBRANCH   3   8
BRANCH   5  10
HETATM   10  C4  UNL     1      -3.330  79.673  18.921  1.00  0.00     0.198 C 
BRANCH  10  11
HETATM   11  O3  UNL     1      -3.079  80.717  18.019  1.00  0.00    -0.398 OA
ATOM     12  H3  UNL     1      -2.883  80.347  17.165  1.00  0.00     0.209 HD
ENDBRANCH  10  11
ENDBRANCH   5  10
BRANCH   6  13
HETATM   13  O4  UNL     1      -3.236  82.019  20.400  1.00  0.00    -0.317 OA
BRANCH  13  14
HETATM   14  C6  UNL     1      -3.328  83.396  20.299  1.00  0.00     0.225 C 
HETATM   15  N1  UNL     1      -3.004  83.928  19.177  1.00  0.00    -0.368 N 
ATOM     16  H12 UNL     1      -2.691  83.356  18.392  1.00  0.00     0.159 HD
ATOM     17  H11 UNL     1      -3.072  84.943  19.102  1.00  0.00     0.159 HD
HETATM   18  N2  UNL     1      -3.769  84.203  21.406  1.00  0.00    -0.057 NA
ENDBRANCH  13  14
ENDBRANCH   6  13
ENDBRANCH   1   2
BRANCH   1  19
HETATM   19  C9  UNL     1       0.674  80.041  23.711  1.00  0.00     0.129 C 
HETATM   20  C10 UNL     1      -0.090  78.730  23.732  1.00  0.00     0.070 C 
HETATM   21  C11 UNL     1       2.023  79.848  24.376  1.00  0.00     0.070 C 
BRANCH  19  22
HETATM   22  N3  UNL     1      -0.054  81.046  24.445  1.00  0.00    -0.328 N 
HETATM   23  C12 UNL     1       0.449  82.370  24.549  1.00  0.00     0.243 C 
HETATM   24  O6  UNL     1       1.538  82.631  23.984  1.00  0.00    -0.271 OA
ATOM     25  H3  UNL     1      -0.937  80.804  24.894  1.00  0.00     0.165 HD
BRANCH  23  26
HETATM   26  C13 UNL     1      -0.266  83.437  25.295  1.00  0.00     0.179 C 
HETATM   27  C14 UNL     1      -1.724  83.403  24.885  1.00  0.00     0.108 C 
HETATM   28  S1  UNL     1      -2.396  85.049  25.337  1.00  0.00    -0.164 SA
HETATM   29  C15 UNL     1      -1.251  85.721  26.589  1.00  0.00     0.109 C 
HETATM   30  C16 UNL     1       0.130  85.719  25.985  1.00  0.00     0.188 C 
HETATM   31  N4  UNL     1       0.361  84.688  25.031  1.00  0.00    -0.395 N 
ATOM     32  H4  UNL     1       0.942  84.836  24.206  1.00  0.00     0.155 HD
BRANCH  30  33
HETATM   33  C17 UNL     1       1.106  85.774  27.075  1.00  0.00     0.197 C 
HETATM   34  O7  UNL     1       2.268  85.300  27.005  1.00  0.00    -0.646 OA
HETATM   35  O8  UNL     1       0.741  86.384  28.266  1.00  0.00    -0.646 OA
ENDBRANCH  30  33
ENDBRANCH  23  26
ENDBRANCH  19  22
ENDBRANCH   1  19
TORSDOF 10
ENDMDL
MODEL 2
REMARK VINA RESULT: -7.095616746      4.141      9.887
REMARK  10 active torsions:
REMARK  status: ('A' for Active; 'I' for Inactive)
REMARK    1  A    between atoms: O1_2  and  C2_3 
REMARK    2  A    between atoms: C3_5  and  C4_6 
REMARK    3  A    between atoms: C4_6  and  O3_7 
REMARK    4  A    between atoms: C5_9  and  O4_10 
REMARK    5  A    between atoms: O4_10  and  C6_11 
REMARK    6  A    between atoms: C8_17  and  O5_18 
REMARK    7  A    between atoms: O5_18  and  C9_19 
REMARK    8  A    between atoms: C9_19  and  N3_22 
REMARK       I    between atoms: N3_22  and  C12_24 
REMARK    9  A    between atoms: C12_24  and  C13_26 
REMARK   10  A    between atoms: C16_30  and  C17_31 
ROOT
HETATM    1  O5  UNL     1       0.706  85.730  28.172  1.00  0.00    -0.351 OA
ENDROOT
BRANCH   1   2
HETATM    2  C8  UNL     1       0.378  85.057  29.327  1.00  0.00     0.182 C 
HETATM    3  C2  UNL     1      -0.770  85.697  30.084  1.00  0.00     0.288 C 
HETATM    4  O2  UNL     1      -1.268  84.778  30.981  1.00  0.00    -0.349 OA
HETATM    5  C3  UNL     1      -0.343  83.913  31.503  1.00  0.00     0.177 C 
HETATM    6  C5  UNL     1       1.044  84.490  31.605  1.00  0.00     0.165 C 
HETATM    7  C7  UNL     1       1.550  85.062  30.322  1.00  0.00     0.072 C 
BRANCH   3   8
HETATM    8  O1  UNL     1      -0.338  86.805  30.811  1.00  0.00    -0.363 OA
HETATM    9  C1  UNL     1      -1.318  87.267  31.685  1.00  0.00     0.204 C 
ENDBRANCH   3   8
BRANCH   5  10
HETATM   10  C4  UNL     1      -0.782  83.620  32.947  1.00  0.00     0.198 C 
BRANCH  10  11
HETATM   11  O3  UNL     1      -0.215  84.578  33.800  1.00  0.00    -0.398 OA
ATOM     12  H3  UNL     1      -0.904  85.139  34.136  1.00  0.00     0.209 HD
ENDBRANCH  10  11
ENDBRANCH   5  10
BRANCH   6  13
HETATM   13  O4  UNL     1       1.896  83.573  32.222  1.00  0.00    -0.317 OA
BRANCH  13  14
HETATM   14  C6  UNL     1       3.048  83.905  32.913  1.00  0.00     0.225 C 
HETATM   15  N1  UNL     1       4.158  83.439  32.468  1.00  0.00    -0.368 N 
ATOM     16  H12 UNL     1       4.187  82.847  31.638  1.00  0.00     0.159 HD
ATOM     17  H11 UNL     1       5.007  83.684  32.977  1.00  0.00     0.159 HD
HETATM   18  N2  UNL     1       3.007  84.740  34.084  1.00  0.00    -0.057 NA
ENDBRANCH  13  14
ENDBRANCH   6  13
ENDBRANCH   1   2
BRANCH   1  19
HETATM   19  C9  UNL     1       0.853  84.940  27.053  1.00  0.00     0.129 C 
HETATM   20  C10 UNL     1       2.273  85.117  26.549  1.00  0.00     0.070 C 
HETATM   21  C11 UNL     1       0.593  83.469  27.318  1.00  0.00     0.070 C 
BRANCH  19  22
HETATM   22  N3  UNL     1      -0.083  85.392  26.053  1.00  0.00    -0.328 N 
HETATM   23  C12 UNL     1      -0.042  84.864  24.736  1.00  0.00     0.243 C 
HETATM   24  O6  UNL     1       0.828  83.998  24.475  1.00  0.00    -0.271 OA
ATOM     25  H3  UNL     1      -0.779  86.097  26.294  1.00  0.00     0.165 HD
BRANCH  23  26
HETATM   26  C13 UNL     1      -0.985  85.300  23.674  1.00  0.00     0.179 C 
HETATM   27  C14 UNL     1      -2.041  86.178  24.313  1.00  0.00     0.108 C 
HETATM   28  S1  UNL     1      -3.452  86.175  23.140  1.00  0.00    -0.164 SA
HETATM   29  C15 UNL     1      -2.752  85.677  21.530  1.00  0.00     0.109 C 
HETATM   30  C16 UNL     1      -2.063  84.351  21.729  1.00  0.00     0.188 C 
HETATM   31  N4  UNL     1      -1.526  84.150  23.033  1.00  0.00    -0.395 N 
ATOM     32  H4  UNL     1      -1.530  83.233  23.481  1.00  0.00     0.155 HD
BRANCH  30  33
HETATM   33  C17 UNL     1      -1.104  84.167  20.638  1.00  0.00     0.197 C 
HETATM   34  O7  UNL     1      -0.219  83.274  20.621  1.00  0.00    -0.646 OA
HETATM   35  O8  UNL     1      -1.163  85.022  19.547  1.00  0.00    -0.646 OA
ENDBRANCH  30  33
ENDBRANCH  23  26
ENDBRANCH  19  22
ENDBRANCH   1  19
TORSDOF 10
ENDMDL
MODEL 3
REMARK VINA RESULT: -6.954776551      1.607      1.971
REMARK  10 active torsions:
REMARK  status: ('A' for Active; 'I' for Inactive)
REMARK    1  A    between atoms: O1_2  and  C2_3 
REMARK    2  A    between atoms: C3_5  and  C4_6 
REMARK    3  A    between atoms: C4_6  and  O3_7 
REMARK    4  A    between atoms: C5_9  and  O4_10 
REMARK    5  A    between atoms: O4_10  and  C6_11 
REMARK    6  A    between atoms: C8_17  and  O5_18 
REMARK    7  A    between atoms: O5_18  and  C9_19 
REMARK    8  A    between atoms: C9_19  and  N3_22 
REMARK       I    between atoms: N3_22  and  C12_24 
REMARK    9  A    between atoms: C12_24  and  C13_26 
REMARK   10  A    between atoms: C16_30  and  C17_31 
ROOT
HETATM    1  O5  UNL     1       0.757  80.495  22.520  1.00  0.00    -0.351 OA
ENDROOT
BRANCH   1   2
HETATM    2  C8  UNL     1      -0.372  80.293  21.758  1.00  0.00     0.182 C 
HETATM    3  C2  UNL     1      -0.100  79.517  20.483  1.00  0.00     0.288 C 
HETATM    4  O2  UNL     1      -1.297  79.039  19.999  1.00  0.00    -0.349 OA
HETATM    5  C3  UNL     1      -2.383  79.839  20.237  1.00  0.00     0.177 C 
HETATM    6  C5  UNL     1      -2.056  81.308  20.313  1.00  0.00     0.165 C 
HETATM    7  C7  UNL     1      -0.966  81.628  21.281  1.00  0.00     0.072 C 
BRANCH   3   8
HETATM    8  O1  UNL     1       0.456  80.339  19.504  1.00  0.00    -0.363 OA
HETATM    9  C1  UNL     1       1.747  79.944  19.167  1.00  0.00     0.204 C 
ENDBRANCH   3   8
BRANCH   5  10
HETATM   10  C4  UNL     1      -3.318  79.680  19.028  1.00  0.00     0.198 C 
BRANCH  10  11
HETATM   11  O3  UNL     1      -3.047  80.700  18.103  1.00  0.00    -0.398 OA
ATOM     12  H3  UNL     1      -3.867  81.090  17.823  1.00  0.00     0.209 HD
ENDBRANCH  10  11
ENDBRANCH   5  10
BRANCH   6  13
HETATM   13  O4  UNL     1      -3.228  82.047  20.474  1.00  0.00    -0.317 OA
BRANCH  13  14
HETATM   14  C6  UNL     1      -3.332  83.414  20.282  1.00  0.00     0.225 C 
HETATM   15  N1  UNL     1      -2.951  83.882  19.150  1.00  0.00    -0.368 N 
ATOM     16  H12 UNL     1      -2.585  83.268  18.421  1.00  0.00     0.159 HD
ATOM     17  H11 UNL     1      -3.027  84.889  19.009  1.00  0.00     0.159 HD
HETATM   18  N2  UNL     1      -3.847  84.279  21.310  1.00  0.00    -0.057 NA
ENDBRANCH  13  14
ENDBRANCH   6  13
ENDBRANCH   1   2
BRANCH   1  19
HETATM   19  C9  UNL     1       0.633  80.170  23.853  1.00  0.00     0.129 C 
HETATM   20  C10 UNL     1      -0.336  79.006  23.953  1.00  0.00     0.070 C 
HETATM   21  C11 UNL     1       1.949  79.784  24.501  1.00  0.00     0.070 C 
BRANCH  19  22
HETATM   22  N3  UNL     1       0.102  81.314  24.551  1.00  0.00    -0.328 N 
HETATM   23  C12 UNL     1       0.861  82.509  24.660  1.00  0.00     0.243 C 
HETATM   24  O6  UNL     1       2.000  82.533  24.133  1.00  0.00    -0.271 OA
ATOM     25  H3  UNL     1      -0.827  81.265  24.969  1.00  0.00     0.165 HD
BRANCH  23  26
HETATM   26  C13 UNL     1       0.355  83.712  25.370  1.00  0.00     0.179 C 
HETATM   27  C14 UNL     1       1.284  83.999  26.532  1.00  0.00     0.108 C 
HETATM   28  S1  UNL     1       0.318  85.056  27.679  1.00  0.00    -0.164 SA
HETATM   29  C15 UNL     1      -1.021  85.779  26.672  1.00  0.00     0.109 C 
HETATM   30  C16 UNL     1      -1.775  84.638  26.038  1.00  0.00     0.188 C 
HETATM   31  N4  UNL     1      -0.990  83.480  25.774  1.00  0.00    -0.395 N 
ATOM     32  H4  UNL     1      -1.371  82.538  25.869  1.00  0.00     0.155 HD
BRANCH  30  33
HETATM   33  C17 UNL     1      -2.504  85.160  24.880  1.00  0.00     0.197 C 
HETATM   34  O7  UNL     1      -1.982  85.860  23.976  1.00  0.00    -0.646 OA
HETATM   35  O8  UNL     1      -3.855  84.871  24.759  1.00  0.00    -0.646 OA
ENDBRANCH  30  33
ENDBRANCH  23  26
ENDBRANCH  19  22
ENDBRANCH   1  19
TORSDOF 10
ENDMDL
MODEL 4
REMARK VINA RESULT: -6.921349151      3.064      7.186
REMARK  10 active torsions:
REMARK  status: ('A' for Active; 'I' for Inactive)
REMARK    1  A    between atoms: O1_2  and  C2_3 
REMARK    2  A    between atoms: C3_5  and  C4_6 
REMARK    3  A    between atoms: C4_6  and  O3_7 
REMARK    4  A    between atoms: C5_9  and  O4_10 
REMARK    5  A    between atoms: O4_10  and  C6_11 
REMARK    6  A    between atoms: C8_17  and  O5_18 
REMARK    7  A    between atoms: O5_18  and  C9_19 
REMARK    8  A    between atoms: C9_19  and  N3_22 
REMARK       I    between atoms: N3_22  and  C12_24 
REMARK    9  A    between atoms: C12_24  and  C13_26 
REMARK   10  A    between atoms: C16_30  and  C17_31 
ROOT
HETATM    1  O5  UNL     1      -0.401  84.299  25.138  1.00  0.00    -0.351 OA
ENDROOT
BRANCH   1   2
HETATM    2  C8  UNL     1      -1.149  85.431  24.911  1.00  0.00     0.182 C 
HETATM    3  C2  UNL     1      -1.557  86.143  26.187  1.00  0.00     0.288 C 
HETATM    4  O2  UNL     1      -1.951  87.423  25.867  1.00  0.00    -0.349 OA
HETATM    5  C3  UNL     1      -2.549  87.560  24.643  1.00  0.00     0.177 C 
HETATM    6  C5  UNL     1      -3.298  86.334  24.188  1.00  0.00     0.165 C 
HETATM    7  C7  UNL     1      -2.477  85.088  24.216  1.00  0.00     0.072 C 
BRANCH   3   8
HETATM    8  O1  UNL     1      -2.641  85.507  26.793  1.00  0.00    -0.363 OA
HETATM    9  C1  UNL     1      -2.907  86.027  28.055  1.00  0.00     0.204 C 
ENDBRANCH   3   8
BRANCH   5  10
HETATM   10  C4  UNL     1      -3.608  88.664  24.794  1.00  0.00     0.198 C 
BRANCH  10  11
HETATM   11  O3  UNL     1      -3.120  89.847  24.219  1.00  0.00    -0.398 OA
ATOM     12  H3  UNL     1      -3.845  90.444  24.075  1.00  0.00     0.209 HD
ENDBRANCH  10  11
ENDBRANCH   5  10
BRANCH   6  13
HETATM   13  O4  UNL     1      -3.942  86.594  22.978  1.00  0.00    -0.317 OA
BRANCH  13  14
HETATM   14  C6  UNL     1      -3.491  86.175  21.738  1.00  0.00     0.225 C 
HETATM   15  N1  UNL     1      -2.535  86.842  21.202  1.00  0.00    -0.368 N 
ATOM     16  H12 UNL     1      -2.126  87.649  21.673  1.00  0.00     0.159 HD
ATOM     17  H11 UNL     1      -2.202  86.534  20.288  1.00  0.00     0.159 HD
HETATM   18  N2  UNL     1      -4.068  85.037  21.073  1.00  0.00    -0.057 NA
ENDBRANCH  13  14
ENDBRANCH   6  13
ENDBRANCH   1   2
BRANCH   1  19
HETATM   19  C9  UNL     1       0.695  84.143  24.318  1.00  0.00     0.129 C 
HETATM   20  C10 UNL     1       1.004  85.497  23.704  1.00  0.00     0.070 C 
HETATM   21  C11 UNL     1       1.922  83.630  25.046  1.00  0.00     0.070 C 
BRANCH  19  22
HETATM   22  N3  UNL     1       0.354  83.200  23.282  1.00  0.00    -0.328 N 
HETATM   23  C12 UNL     1      -0.323  81.993  23.599  1.00  0.00     0.243 C 
HETATM   24  O6  UNL     1      -0.610  81.778  24.802  1.00  0.00    -0.271 OA
ATOM     25  H3  UNL     1       0.601  83.402  22.313  1.00  0.00     0.165 HD
BRANCH  23  26
HETATM   26  C13 UNL     1      -0.693  80.992  22.566  1.00  0.00     0.179 C 
HETATM   27  C14 UNL     1       0.191  79.776  22.750  1.00  0.00     0.108 C 
HETATM   28  S1  UNL     1       0.126  78.879  21.150  1.00  0.00    -0.164 SA
HETATM   29  C15 UNL     1      -1.389  79.466  20.319  1.00  0.00     0.109 C 
HETATM   30  C16 UNL     1      -1.299  80.968  20.226  1.00  0.00     0.188 C 
HETATM   31  N4  UNL     1      -0.566  81.586  21.278  1.00  0.00    -0.395 N 
ATOM     32  H4  UNL     1       0.017  82.408  21.118  1.00  0.00     0.155 HD
BRANCH  30  33
HETATM   33  C17 UNL     1      -2.651  81.495  20.031  1.00  0.00     0.197 C 
HETATM   34  O7  UNL     1      -2.921  82.500  19.325  1.00  0.00    -0.646 OA
HETATM   35  O8  UNL     1      -3.712  80.857  20.657  1.00  0.00    -0.646 OA
ENDBRANCH  30  33
ENDBRANCH  23  26
ENDBRANCH  19  22
ENDBRANCH   1  19
TORSDOF 10
ENDMDL
MODEL 5
REMARK VINA RESULT: -6.900662673      3.643      9.269
REMARK  10 active torsions:
REMARK  status: ('A' for Active; 'I' for Inactive)
REMARK    1  A    between atoms: O1_2  and  C2_3 
REMARK    2  A    between atoms: C3_5  and  C4_6 
REMARK    3  A    between atoms: C4_6  and  O3_7 
REMARK    4  A    between atoms: C5_9  and  O4_10 
REMARK    5  A    between atoms: O4_10  and  C6_11 
REMARK    6  A    between atoms: C8_17  and  O5_18 
REMARK    7  A    between atoms: O5_18  and  C9_19 
REMARK    8  A    between atoms: C9_19  and  N3_22 
REMARK       I    between atoms: N3_22  and  C12_24 
REMARK    9  A    between atoms: C12_24  and  C13_26 
REMARK   10  A    between atoms: C16_30  and  C17_31 
ROOT
HETATM    1  O5  UNL     1      -1.062  84.020  27.659  1.00  0.00    -0.351 OA
ENDROOT
BRANCH   1   2
HETATM    2  C8  UNL     1      -0.553  84.843  28.637  1.00  0.00     0.182 C 
HETATM    3  C2  UNL     1       0.468  85.834  28.112  1.00  0.00     0.288 C 
HETATM    4  O2  UNL     1       0.626  86.835  29.044  1.00  0.00    -0.349 OA
HETATM    5  C3  UNL     1       0.483  86.444  30.349  1.00  0.00     0.177 C 
HETATM    6  C5  UNL     1       0.880  85.013  30.606  1.00  0.00     0.165 C 
HETATM    7  C7  UNL     1       0.204  84.035  29.704  1.00  0.00     0.072 C 
BRANCH   3   8
HETATM    8  O1  UNL     1       1.710  85.226  27.928  1.00  0.00    -0.363 OA
HETATM    9  C1  UNL     1       2.009  85.056  26.580  1.00  0.00     0.204 C 
ENDBRANCH   3   8
BRANCH   5  10
HETATM   10  C4  UNL     1       1.456  87.302  31.173  1.00  0.00     0.198 C 
BRANCH  10  11
HETATM   11  O3  UNL     1       1.686  88.509  30.497  1.00  0.00    -0.398 OA
ATOM     12  H3  UNL     1       2.223  88.338  29.732  1.00  0.00     0.209 HD
ENDBRANCH  10  11
ENDBRANCH   5  10
BRANCH   6  13
HETATM   13  O4  UNL     1       0.781  84.731  31.969  1.00  0.00    -0.317 OA
BRANCH  13  14
HETATM   14  C6  UNL     1       1.736  84.052  32.705  1.00  0.00     0.225 C 
HETATM   15  N1  UNL     1       1.567  82.791  32.870  1.00  0.00    -0.368 N 
ATOM     16  H12 UNL     1       0.760  82.310  32.473  1.00  0.00     0.159 HD
ATOM     17  H11 UNL     1       2.271  82.290  33.413  1.00  0.00     0.159 HD
HETATM   18  N2  UNL     1       2.875  84.730  33.266  1.00  0.00    -0.057 NA
ENDBRANCH  13  14
ENDBRANCH   6  13
ENDBRANCH   1   2
BRANCH   1  19
HETATM   19  C9  UNL     1      -2.424  84.106  27.467  1.00  0.00     0.129 C 
HETATM   20  C10 UNL     1      -2.967  82.691  27.391  1.00  0.00     0.070 C 
HETATM   21  C11 UNL     1      -3.139  84.860  28.572  1.00  0.00     0.070 C 
BRANCH  19  22
HETATM   22  N3  UNL     1      -2.663  84.793  26.222  1.00  0.00    -0.328 N 
HETATM   23  C12 UNL     1      -1.906  84.471  25.064  1.00  0.00     0.243 C 
HETATM   24  O6  UNL     1      -1.031  83.576  25.162  1.00  0.00    -0.271 OA
ATOM     25  H3  UNL     1      -3.380  85.515  26.172  1.00  0.00     0.165 HD
BRANCH  23  26
HETATM   26  C13 UNL     1      -2.117  85.152  23.760  1.00  0.00     0.179 C 
HETATM   27  C14 UNL     1      -3.065  86.311  23.983  1.00  0.00     0.108 C 
HETATM   28  S1  UNL     1      -3.744  86.711  22.326  1.00  0.00    -0.164 SA
HETATM   29  C15 UNL     1      -2.563  86.004  21.127  1.00  0.00     0.109 C 
HETATM   30  C16 UNL     1      -2.423  84.538  21.443  1.00  0.00     0.188 C 
HETATM   31  N4  UNL     1      -2.603  84.204  22.815  1.00  0.00    -0.395 N 
ATOM     32  H4  UNL     1      -3.055  83.336  23.105  1.00  0.00     0.155 HD
BRANCH  30  33
HETATM   33  C17 UNL     1      -1.168  84.062  20.858  1.00  0.00     0.197 C 
HETATM   34  O7  UNL     1      -0.613  84.586  19.859  1.00  0.00    -0.646 OA
HETATM   35  O8  UNL     1      -0.538  82.967  21.431  1.00  0.00    -0.646 OA
ENDBRANCH  30  33
ENDBRANCH  23  26
ENDBRANCH  19  22
ENDBRANCH   1  19
TORSDOF 10
ENDMDL
