MODEL 1
REMARK VINA RESULT: -7.402839654      0.000      0.000
REMARK  13 active torsions:
REMARK  status: ('A' for Active; 'I' for Inactive)
REMARK    1  A    between atoms: C4_4  and  O1_5 
REMARK    2  A    between atoms: O1_5  and  C5_6 
REMARK    3  A    between atoms: C5_6  and  C6_7 
REMARK    4  A    between atoms: C7_9  and  C8_10 
REMARK    5  A    between atoms: C8_10  and  O3_11 
REMARK    6  A    between atoms: C9_13  and  O4_14 
REMARK    7  A    between atoms: C10_16  and  O5_17 
REMARK    8  A    between atoms: C11_19  and  O6_20 
REMARK    9  A    between atoms: C12_22  and  O7_23 
REMARK   10  A    between atoms: O7_23  and  C13_24 
REMARK   11  A    between atoms: C14_26  and  C15_27 
REMARK   12  A    between atoms: C15_27  and  O9_28 
REMARK   13  A    between atoms: C16_30  and  O10_31 
ROOT
HETATM    1  C1  UNL     1      -1.682  85.343  27.053  1.00  0.00     0.012 C 
HETATM    2  C2  UNL     1      -2.500  84.530  26.082  1.00  0.00     0.015 C 
HETATM    3  C3  UNL     1      -3.935  84.338  26.594  1.00  0.00     0.041 C 
HETATM    4  C4  UNL     1      -4.216  85.734  26.011  1.00  0.00     0.151 C 
HETATM    5  C12 UNL     1      -3.086  85.411  25.017  1.00  0.00     0.157 C 
ENDROOT
BRANCH   4   6
HETATM    6  O1  UNL     1      -5.454  85.822  25.446  1.00  0.00    -0.381 OA
BRANCH   6   7
HETATM    7  C5  UNL     1      -6.220  86.776  26.084  1.00  0.00     0.203 C 
BRANCH   7   8
HETATM    8  C6  UNL     1      -5.914  88.197  25.684  1.00  0.00     0.177 C 
HETATM    9  O2  UNL     1      -6.980  89.046  25.928  1.00  0.00    -0.371 OA
HETATM   10  C7  UNL     1      -7.154  90.042  25.007  1.00  0.00     0.177 C 
HETATM   11  C9  UNL     1      -5.842  90.659  24.557  1.00  0.00     0.180 C 
HETATM   12  C10 UNL     1      -4.908  89.636  23.969  1.00  0.00     0.180 C 
HETATM   13  C11 UNL     1      -5.447  88.266  24.245  1.00  0.00     0.180 C 
BRANCH  10  14
HETATM   14  C8  UNL     1      -7.953  91.154  25.701  1.00  0.00     0.198 C 
BRANCH  14  15
HETATM   15  O3  UNL     1      -8.713  91.860  24.771  1.00  0.00    -0.398 OA
ATOM     16  H3  UNL     1      -9.641  91.745  24.944  1.00  0.00     0.209 HD
ENDBRANCH  14  15
ENDBRANCH  10  14
BRANCH  11  17
HETATM   17  O4  UNL     1      -6.071  91.647  23.587  1.00  0.00    -0.390 OA
ATOM     18  H4  UNL     1      -6.428  92.431  23.988  1.00  0.00     0.210 HD
ENDBRANCH  11  17
BRANCH  12  19
HETATM   19  O5  UNL     1      -3.645  89.743  24.549  1.00  0.00    -0.390 OA
ATOM     20  H5  UNL     1      -3.309  88.882  24.769  1.00  0.00     0.210 HD
ENDBRANCH  12  19
BRANCH  13  21
HETATM   21  O6  UNL     1      -6.410  87.864  23.339  1.00  0.00    -0.390 OA
ATOM     22  H6  UNL     1      -6.259  88.193  22.461  1.00  0.00     0.210 HD
ENDBRANCH  13  21
ENDBRANCH   7   8
ENDBRANCH   6   7
ENDBRANCH   4   6
BRANCH   5  23
HETATM   23  O7  UNL     1      -3.549  84.784  23.889  1.00  0.00    -0.353 OA
BRANCH  23  24
HETATM   24  C13 UNL     1      -3.237  85.440  22.703  1.00  0.00     0.268 C 
HETATM   25  O8  UNL     1      -1.944  85.881  22.800  1.00  0.00    -0.350 OA
HETATM   26  C14 UNL     1      -0.952  85.187  22.205  1.00  0.00     0.185 C 
HETATM   27  C16 UNL     1      -1.331  84.273  21.090  1.00  0.00     0.119 C 
HETATM   28  C17 UNL     1      -1.821  85.194  19.950  1.00  0.00     0.044 C 
HETATM   29  C20 UNL     1      -2.566  83.518  21.392  1.00  0.00     0.124 A 
HETATM   30  C18 UNL     1      -3.282  85.391  20.203  1.00  0.00     0.016 C 
HETATM   31  C19 UNL     1      -3.574  84.651  21.487  1.00  0.00     0.081 C 
HETATM   32  C21 UNL     1      -2.870  82.265  20.762  1.00  0.00     0.210 A 
HETATM   33  O11 UNL     1      -2.654  82.397  22.150  1.00  0.00    -0.371 OA
BRANCH  26  34
HETATM   34  C15 UNL     1      -0.135  84.482  23.296  1.00  0.00     0.199 C 
BRANCH  34  35
HETATM   35  O9  UNL     1       1.205  84.810  23.219  1.00  0.00    -0.398 OA
ATOM     36  H9  UNL     1       1.716  84.346  23.872  1.00  0.00     0.209 HD
ENDBRANCH  34  35
ENDBRANCH  26  34
BRANCH  27  37
HETATM   37  O10 UNL     1      -0.280  83.485  20.645  1.00  0.00    -0.384 OA
ATOM     38  H10 UNL     1      -0.313  82.595  20.976  1.00  0.00     0.210 HD
ENDBRANCH  27  37
ENDBRANCH  23  24
ENDBRANCH   5  23
TORSDOF 13
ENDMDL
MODEL 2
REMARK VINA RESULT: -7.381865361      4.086      7.026
REMARK  13 active torsions:
REMARK  status: ('A' for Active; 'I' for Inactive)
REMARK    1  A    between atoms: C4_4  and  O1_5 
REMARK    2  A    between atoms: O1_5  and  C5_6 
REMARK    3  A    between atoms: C5_6  and  C6_7 
REMARK    4  A    between atoms: C7_9  and  C8_10 
REMARK    5  A    between atoms: C8_10  and  O3_11 
REMARK    6  A    between atoms: C9_13  and  O4_14 
REMARK    7  A    between atoms: C10_16  and  O5_17 
REMARK    8  A    between atoms: C11_19  and  O6_20 
REMARK    9  A    between atoms: C12_22  and  O7_23 
REMARK   10  A    between atoms: O7_23  and  C13_24 
REMARK   11  A    between atoms: C14_26  and  C15_27 
REMARK   12  A    between atoms: C15_27  and  O9_28 
REMARK   13  A    between atoms: C16_30  and  O10_31 
ROOT
HETATM    1  C1  UNL     1       1.907  83.842  25.452  1.00  0.00     0.012 C 
HETATM    2  C2  UNL     1       1.809  84.932  26.489  1.00  0.00     0.015 C 
HETATM    3  C3  UNL     1       0.997  86.124  25.963  1.00  0.00     0.041 C 
HETATM    4  C4  UNL     1      -0.249  85.318  26.367  1.00  0.00     0.151 C 
HETATM    5  C12 UNL     1       0.664  84.671  27.424  1.00  0.00     0.157 C 
ENDROOT
BRANCH   4   6
HETATM    6  O1  UNL     1      -1.234  86.106  26.882  1.00  0.00    -0.381 OA
BRANCH   6   7
HETATM    7  C5  UNL     1      -2.435  85.877  26.239  1.00  0.00     0.203 C 
BRANCH   7   8
HETATM    8  C6  UNL     1      -3.216  87.123  25.906  1.00  0.00     0.177 C 
HETATM    9  O2  UNL     1      -4.450  87.145  26.534  1.00  0.00    -0.371 OA
HETATM   10  C7  UNL     1      -5.464  87.703  25.806  1.00  0.00     0.177 C 
HETATM   11  C9  UNL     1      -5.028  88.945  25.052  1.00  0.00     0.180 C 
HETATM   12  C10 UNL     1      -3.881  88.668  24.118  1.00  0.00     0.180 C 
HETATM   13  C11 UNL     1      -3.336  87.303  24.407  1.00  0.00     0.180 C 
BRANCH  10  14
HETATM   14  C8  UNL     1      -6.538  88.146  26.809  1.00  0.00     0.198 C 
BRANCH  14  15
HETATM   15  O3  UNL     1      -6.316  89.462  27.210  1.00  0.00    -0.398 OA
ATOM     16  H3  UNL     1      -6.596  90.067  26.534  1.00  0.00     0.209 HD
ENDBRANCH  14  15
ENDBRANCH  10  14
BRANCH  11  17
HETATM   17  O4  UNL     1      -6.091  89.458  24.292  1.00  0.00    -0.390 OA
ATOM     18  H4  UNL     1      -5.767  90.046  23.621  1.00  0.00     0.210 HD
ENDBRANCH  11  17
BRANCH  12  19
HETATM   19  O5  UNL     1      -2.864  89.602  24.308  1.00  0.00    -0.390 OA
ATOM     20  H5  UNL     1      -2.018  89.212  24.121  1.00  0.00     0.210 HD
ENDBRANCH  12  19
BRANCH  13  21
HETATM   21  O6  UNL     1      -4.044  86.288  23.791  1.00  0.00    -0.390 OA
ATOM     22  H6  UNL     1      -4.158  86.424  22.858  1.00  0.00     0.210 HD
ENDBRANCH  13  21
ENDBRANCH   7   8
ENDBRANCH   6   7
ENDBRANCH   4   6
BRANCH   5  23
HETATM   23  O7  UNL     1       0.666  85.368  28.605  1.00  0.00    -0.353 OA
BRANCH  23  24
HETATM   24  C13 UNL     1       0.585  84.567  29.739  1.00  0.00     0.268 C 
HETATM   25  O8  UNL     1       1.455  85.074  30.668  1.00  0.00    -0.350 OA
HETATM   26  C14 UNL     1       0.991  85.844  31.673  1.00  0.00     0.185 C 
HETATM   27  C16 UNL     1      -0.455  85.722  32.016  1.00  0.00     0.119 C 
HETATM   28  C17 UNL     1      -0.625  84.298  32.587  1.00  0.00     0.044 C 
HETATM   29  C20 UNL     1      -1.304  85.644  30.807  1.00  0.00     0.124 A 
HETATM   30  C18 UNL     1      -0.896  83.427  31.401  1.00  0.00     0.016 C 
HETATM   31  C19 UNL     1      -0.812  84.340  30.201  1.00  0.00     0.081 C 
HETATM   32  C21 UNL     1      -2.690  86.015  30.819  1.00  0.00     0.210 A 
HETATM   33  O11 UNL     1      -1.718  86.690  30.050  1.00  0.00    -0.371 OA
BRANCH  26  34
HETATM   34  C15 UNL     1       1.414  87.294  31.403  1.00  0.00     0.199 C 
BRANCH  34  35
HETATM   35  O9  UNL     1       1.268  87.625  30.068  1.00  0.00    -0.398 OA
ATOM     36  H9  UNL     1       1.057  88.545  29.958  1.00  0.00     0.209 HD
ENDBRANCH  34  35
ENDBRANCH  26  34
BRANCH  27  37
HETATM   37  O10 UNL     1      -0.880  86.660  32.944  1.00  0.00    -0.384 OA
ATOM     38  H10 UNL     1      -1.301  86.274  33.703  1.00  0.00     0.210 HD
ENDBRANCH  27  37
ENDBRANCH  23  24
ENDBRANCH   5  23
TORSDOF 13
ENDMDL
MODEL 3
REMARK VINA RESULT: -7.256858212      1.739      3.003
REMARK  13 active torsions:
REMARK  status: ('A' for Active; 'I' for Inactive)
REMARK    1  A    between atoms: C4_4  and  O1_5 
REMARK    2  A    between atoms: O1_5  and  C5_6 
REMARK    3  A    between atoms: C5_6  and  C6_7 
REMARK    4  A    between atoms: C7_9  and  C8_10 
REMARK    5  A    between atoms: C8_10  and  O3_11 
REMARK    6  A    between atoms: C9_13  and  O4_14 
REMARK    7  A    between atoms: C10_16  and  O5_17 
REMARK    8  A    between atoms: C11_19  and  O6_20 
REMARK    9  A    between atoms: C12_22  and  O7_23 
REMARK   10  A    between atoms: O7_23  and  C13_24 
REMARK   11  A    between atoms: C14_26  and  C15_27 
REMARK   12  A    between atoms: C15_27  and  O9_28 
REMARK   13  A    between atoms: C16_30  and  O10_31 
ROOT
HETATM    1  C1  UNL     1       0.985  86.087  26.562  1.00  0.00     0.012 C 
HETATM    2  C2  UNL     1      -0.282  85.352  26.207  1.00  0.00     0.015 C 
HETATM    3  C3  UNL     1      -1.508  86.024  26.841  1.00  0.00     0.041 C 
HETATM    4  C4  UNL     1      -1.465  86.991  25.645  1.00  0.00     0.151 C 
HETATM    5  C12 UNL     1      -0.812  85.823  24.883  1.00  0.00     0.157 C 
ENDROOT
BRANCH   4   6
HETATM    6  O1  UNL     1      -2.710  87.325  25.202  1.00  0.00    -0.381 OA
BRANCH   6   7
HETATM    7  C5  UNL     1      -2.754  88.648  24.809  1.00  0.00     0.203 C 
BRANCH   7   8
HETATM    8  C6  UNL     1      -4.097  89.107  24.300  1.00  0.00     0.177 C 
HETATM    9  O2  UNL     1      -4.284  90.466  24.482  1.00  0.00    -0.371 OA
HETATM   10  C7  UNL     1      -5.562  90.842  24.792  1.00  0.00     0.177 C 
HETATM   11  C9  UNL     1      -6.605  90.081  23.995  1.00  0.00     0.180 C 
HETATM   12  C10 UNL     1      -6.495  88.593  24.192  1.00  0.00     0.180 C 
HETATM   13  C11 UNL     1      -5.216  88.290  24.911  1.00  0.00     0.180 C 
BRANCH  10  14
HETATM   14  C8  UNL     1      -5.697  92.321  24.403  1.00  0.00     0.198 C 
BRANCH  14  15
HETATM   15  O3  UNL     1      -4.568  93.033  24.802  1.00  0.00    -0.398 OA
ATOM     16  H3  UNL     1      -4.819  93.791  25.317  1.00  0.00     0.209 HD
ENDBRANCH  14  15
ENDBRANCH  10  14
BRANCH  11  17
HETATM   17  O4  UNL     1      -7.897  90.474  24.375  1.00  0.00    -0.390 OA
ATOM     18  H4  UNL     1      -8.374  89.739  24.743  1.00  0.00     0.210 HD
ENDBRANCH  11  17
BRANCH  12  19
HETATM   19  O5  UNL     1      -6.478  87.941  22.961  1.00  0.00    -0.390 OA
ATOM     20  H5  UNL     1      -7.360  87.704  22.700  1.00  0.00     0.210 HD
ENDBRANCH  12  19
BRANCH  13  21
HETATM   21  O6  UNL     1      -5.311  88.435  26.282  1.00  0.00    -0.390 OA
ATOM     22  H6  UNL     1      -6.130  88.826  26.562  1.00  0.00     0.210 HD
ENDBRANCH  13  21
ENDBRANCH   7   8
ENDBRANCH   6   7
ENDBRANCH   4   6
BRANCH   5  23
HETATM   23  O7  UNL     1      -1.739  85.018  24.272  1.00  0.00    -0.353 OA
BRANCH  23  24
HETATM   24  C13 UNL     1      -1.320  84.485  23.058  1.00  0.00     0.268 C 
HETATM   25  O8  UNL     1      -1.757  83.188  23.001  1.00  0.00    -0.350 OA
HETATM   26  C14 UNL     1      -2.862  82.883  22.291  1.00  0.00     0.185 C 
HETATM   27  C16 UNL     1      -3.279  83.843  21.229  1.00  0.00     0.119 C 
HETATM   28  C17 UNL     1      -2.170  83.778  20.156  1.00  0.00     0.044 C 
HETATM   29  C20 UNL     1      -3.156  85.248  21.676  1.00  0.00     0.124 A 
HETATM   30  C18 UNL     1      -1.150  84.787  20.581  1.00  0.00     0.016 C 
HETATM   31  C19 UNL     1      -1.655  85.345  21.891  1.00  0.00     0.081 C 
HETATM   32  C21 UNL     1      -3.922  86.308  21.086  1.00  0.00     0.210 A 
HETATM   33  O11 UNL     1      -4.049  85.926  22.439  1.00  0.00    -0.371 OA
BRANCH  26  34
HETATM   34  C15 UNL     1      -3.994  82.565  23.277  1.00  0.00     0.199 C 
BRANCH  34  35
HETATM   35  O9  UNL     1      -4.080  83.516  24.276  1.00  0.00    -0.398 OA
ATOM     36  H9  UNL     1      -3.636  84.320  24.032  1.00  0.00     0.209 HD
ENDBRANCH  34  35
ENDBRANCH  26  34
BRANCH  27  37
HETATM   37  O10 UNL     1      -4.506  83.535  20.662  1.00  0.00    -0.384 OA
ATOM     38  H10 UNL     1      -4.709  82.607  20.687  1.00  0.00     0.210 HD
ENDBRANCH  27  37
ENDBRANCH  23  24
ENDBRANCH   5  23
TORSDOF 13
ENDMDL
MODEL 4
REMARK VINA RESULT: -7.246775273      4.050      7.290
REMARK  13 active torsions:
REMARK  status: ('A' for Active; 'I' for Inactive)
REMARK    1  A    between atoms: C4_4  and  O1_5 
REMARK    2  A    between atoms: O1_5  and  C5_6 
REMARK    3  A    between atoms: C5_6  and  C6_7 
REMARK    4  A    between atoms: C7_9  and  C8_10 
REMARK    5  A    between atoms: C8_10  and  O3_11 
REMARK    6  A    between atoms: C9_13  and  O4_14 
REMARK    7  A    between atoms: C10_16  and  O5_17 
REMARK    8  A    between atoms: C11_19  and  O6_20 
REMARK    9  A    between atoms: C12_22  and  O7_23 
REMARK   10  A    between atoms: O7_23  and  C13_24 
REMARK   11  A    between atoms: C14_26  and  C15_27 
REMARK   12  A    between atoms: C15_27  and  O9_28 
REMARK   13  A    between atoms: C16_30  and  O10_31 
ROOT
HETATM    1  C1  UNL     1       2.285  84.212  25.468  1.00  0.00     0.012 C 
HETATM    2  C2  UNL     1       1.802  85.207  26.492  1.00  0.00     0.015 C 
HETATM    3  C3  UNL     1       0.712  86.117  25.909  1.00  0.00     0.041 C 
HETATM    4  C4  UNL     1      -0.265  84.973  26.227  1.00  0.00     0.151 C 
HETATM    5  C12 UNL     1       0.725  84.603  27.346  1.00  0.00     0.157 C 
ENDROOT
BRANCH   4   6
HETATM    6  O1  UNL     1      -1.471  85.427  26.670  1.00  0.00    -0.381 OA
BRANCH   6   7
HETATM    7  C5  UNL     1      -2.508  84.770  26.039  1.00  0.00     0.203 C 
BRANCH   7   8
HETATM    8  C6  UNL     1      -3.684  85.645  25.685  1.00  0.00     0.177 C 
HETATM    9  O2  UNL     1      -3.301  86.759  24.959  1.00  0.00    -0.371 OA
HETATM   10  C7  UNL     1      -4.005  87.901  25.229  1.00  0.00     0.177 C 
HETATM   11  C9  UNL     1      -5.490  87.644  25.408  1.00  0.00     0.180 C 
HETATM   12  C10 UNL     1      -5.765  86.654  26.507  1.00  0.00     0.180 C 
HETATM   13  C11 UNL     1      -4.476  86.014  26.922  1.00  0.00     0.180 C 
BRANCH  10  14
HETATM   14  C8  UNL     1      -3.856  88.814  24.004  1.00  0.00     0.198 C 
BRANCH  14  15
HETATM   15  O3  UNL     1      -2.873  89.775  24.231  1.00  0.00    -0.398 OA
ATOM     16  H3  UNL     1      -3.211  90.474  24.779  1.00  0.00     0.209 HD
ENDBRANCH  14  15
ENDBRANCH  10  14
BRANCH  11  17
HETATM   17  O4  UNL     1      -6.160  88.836  25.720  1.00  0.00    -0.390 OA
ATOM     18  H4  UNL     1      -6.714  88.716  26.482  1.00  0.00     0.210 HD
ENDBRANCH  11  17
BRANCH  12  19
HETATM   19  O5  UNL     1      -6.631  85.658  26.057  1.00  0.00    -0.390 OA
ATOM     20  H5  UNL     1      -7.461  85.711  26.515  1.00  0.00     0.210 HD
ENDBRANCH  12  19
BRANCH  13  21
HETATM   21  O6  UNL     1      -3.754  86.771  27.825  1.00  0.00    -0.390 OA
ATOM     22  H6  UNL     1      -3.615  87.665  27.537  1.00  0.00     0.210 HD
ENDBRANCH  13  21
ENDBRANCH   7   8
ENDBRANCH   6   7
ENDBRANCH   4   6
BRANCH   5  23
HETATM   23  O7  UNL     1       0.442  85.248  28.524  1.00  0.00    -0.353 OA
BRANCH  23  24
HETATM   24  C13 UNL     1       0.381  84.411  29.632  1.00  0.00     0.268 C 
HETATM   25  O8  UNL     1       1.338  84.826  30.520  1.00  0.00    -0.350 OA
HETATM   26  C14 UNL     1       0.987  85.584  31.579  1.00  0.00     0.185 C 
HETATM   27  C16 UNL     1      -0.439  85.538  32.010  1.00  0.00     0.119 C 
HETATM   28  C17 UNL     1      -0.663  84.105  32.540  1.00  0.00     0.044 C 
HETATM   29  C20 UNL     1      -1.365  85.559  30.856  1.00  0.00     0.124 A 
HETATM   30  C18 UNL     1      -1.063  83.299  31.345  1.00  0.00     0.016 C 
HETATM   31  C19 UNL     1      -0.996  84.252  30.174  1.00  0.00     0.081 C 
HETATM   32  C21 UNL     1      -2.721  86.013  30.971  1.00  0.00     0.210 A 
HETATM   33  O11 UNL     1      -1.758  86.657  30.165  1.00  0.00    -0.371 OA
BRANCH  26  34
HETATM   34  C15 UNL     1       1.484  87.015  31.333  1.00  0.00     0.199 C 
BRANCH  34  35
HETATM   35  O9  UNL     1       1.207  87.434  30.044  1.00  0.00    -0.398 OA
ATOM     36  H9  UNL     1       1.991  87.449  29.507  1.00  0.00     0.209 HD
ENDBRANCH  34  35
ENDBRANCH  26  34
BRANCH  27  37
HETATM   37  O10 UNL     1      -0.744  86.463  32.996  1.00  0.00    -0.384 OA
ATOM     38  H10 UNL     1       0.006  86.973  33.278  1.00  0.00     0.210 HD
ENDBRANCH  27  37
ENDBRANCH  23  24
ENDBRANCH   5  23
TORSDOF 13
ENDMDL
MODEL 5
REMARK VINA RESULT: -7.215277252      5.119      7.835
REMARK  13 active torsions:
REMARK  status: ('A' for Active; 'I' for Inactive)
REMARK    1  A    between atoms: C4_4  and  O1_5 
REMARK    2  A    between atoms: O1_5  and  C5_6 
REMARK    3  A    between atoms: C5_6  and  C6_7 
REMARK    4  A    between atoms: C7_9  and  C8_10 
REMARK    5  A    between atoms: C8_10  and  O3_11 
REMARK    6  A    between atoms: C9_13  and  O4_14 
REMARK    7  A    between atoms: C10_16  and  O5_17 
REMARK    8  A    between atoms: C11_19  and  O6_20 
REMARK    9  A    between atoms: C12_22  and  O7_23 
REMARK   10  A    between atoms: O7_23  and  C13_24 
REMARK   11  A    between atoms: C14_26  and  C15_27 
REMARK   12  A    between atoms: C15_27  and  O9_28 
REMARK   13  A    between atoms: C16_30  and  O10_31 
ROOT
HETATM    1  C1  UNL     1       0.032  79.311  25.957  1.00  0.00     0.012 C 
HETATM    2  C2  UNL     1       1.020  80.338  25.466  1.00  0.00     0.015 C 
HETATM    3  C3  UNL     1       1.872  79.782  24.317  1.00  0.00     0.041 C 
HETATM    4  C4  UNL     1       0.691  80.151  23.404  1.00  0.00     0.151 C 
HETATM    5  C12 UNL     1       0.383  81.239  24.448  1.00  0.00     0.157 C 
ENDROOT
BRANCH   4   6
HETATM    6  O1  UNL     1       1.098  80.631  22.195  1.00  0.00    -0.381 OA
BRANCH   6   7
HETATM    7  C5  UNL     1       0.366  80.069  21.169  1.00  0.00     0.203 C 
BRANCH   7   8
HETATM    8  C6  UNL     1      -0.640  80.995  20.534  1.00  0.00     0.177 C 
HETATM    9  O2  UNL     1      -0.421  82.316  20.883  1.00  0.00    -0.371 OA
HETATM   10  C7  UNL     1      -1.551  83.070  21.047  1.00  0.00     0.177 C 
HETATM   11  C9  UNL     1      -2.607  82.777  19.998  1.00  0.00     0.180 C 
HETATM   12  C10 UNL     1      -3.011  81.327  19.989  1.00  0.00     0.180 C 
HETATM   13  C11 UNL     1      -2.055  80.550  20.842  1.00  0.00     0.180 C 
BRANCH  10  14
HETATM   14  C8  UNL     1      -1.136  84.537  20.862  1.00  0.00     0.198 C 
BRANCH  14  15
HETATM   15  O3  UNL     1      -1.083  84.861  19.509  1.00  0.00    -0.398 OA
ATOM     16  H3  UNL     1      -1.372  85.755  19.369  1.00  0.00     0.209 HD
ENDBRANCH  14  15
ENDBRANCH  10  14
BRANCH  11  17
HETATM   17  O4  UNL     1      -3.758  83.546  20.231  1.00  0.00    -0.390 OA
ATOM     18  H4  UNL     1      -4.534  83.077  19.949  1.00  0.00     0.210 HD
ENDBRANCH  11  17
BRANCH  12  19
HETATM   19  O5  UNL     1      -2.965  80.819  18.693  1.00  0.00    -0.390 OA
ATOM     20  H5  UNL     1      -2.762  79.891  18.709  1.00  0.00     0.210 HD
ENDBRANCH  12  19
BRANCH  13  21
HETATM   21  O6  UNL     1      -2.361  80.596  22.189  1.00  0.00    -0.390 OA
ATOM     22  H6  UNL     1      -3.290  80.692  22.360  1.00  0.00     0.210 HD
ENDBRANCH  13  21
ENDBRANCH   7   8
ENDBRANCH   6   7
ENDBRANCH   4   6
BRANCH   5  23
HETATM   23  O7  UNL     1       1.033  82.417  24.179  1.00  0.00    -0.353 OA
BRANCH  23  24
HETATM   24  C13 UNL     1       0.217  83.542  24.224  1.00  0.00     0.268 C 
HETATM   25  O8  UNL     1      -0.521  83.473  25.376  1.00  0.00    -0.350 OA
HETATM   26  C14 UNL     1      -0.153  84.194  26.454  1.00  0.00     0.185 C 
HETATM   27  C16 UNL     1       0.724  85.377  26.218  1.00  0.00     0.119 C 
HETATM   28  C17 UNL     1      -0.143  86.382  25.428  1.00  0.00     0.044 C 
HETATM   29  C20 UNL     1       1.787  85.086  25.232  1.00  0.00     0.124 A 
HETATM   30  C18 UNL     1       0.054  86.026  23.988  1.00  0.00     0.016 C 
HETATM   31  C19 UNL     1       0.954  84.813  23.990  1.00  0.00     0.081 C 
HETATM   32  C21 UNL     1       3.015  85.828  25.190  1.00  0.00     0.210 A 
HETATM   33  O11 UNL     1       2.957  84.448  25.481  1.00  0.00    -0.371 OA
BRANCH  26  34
HETATM   34  C15 UNL     1       0.421  83.234  27.504  1.00  0.00     0.199 C 
BRANCH  34  35
HETATM   35  O9  UNL     1       0.358  83.774  28.775  1.00  0.00    -0.398 OA
ATOM     36  H9  UNL     1      -0.492  84.161  28.947  1.00  0.00     0.209 HD
ENDBRANCH  34  35
ENDBRANCH  26  34
BRANCH  27  37
HETATM   37  O10 UNL     1       1.183  85.962  27.388  1.00  0.00    -0.384 OA
ATOM     38  H10 UNL     1       1.499  86.849  27.265  1.00  0.00     0.210 HD
ENDBRANCH  27  37
ENDBRANCH  23  24
ENDBRANCH   5  23
TORSDOF 13
ENDMDL
