MODEL 1
REMARK VINA RESULT: -6.582650672      0.000      0.000
REMARK  13 active torsions:
REMARK  status: ('A' for Active; 'I' for Inactive)
REMARK       I    between atoms: C2_2  and  N1_4 
REMARK    1  A    between atoms: N1_4  and  C3_6 
REMARK    2  A    between atoms: C4_7  and  O2_8 
REMARK    3  A    between atoms: O2_8  and  C5_9 
REMARK    4  A    between atoms: C5_9  and  C6_10 
REMARK    5  A    between atoms: C6_10  and  O3_11 
REMARK    6  A    between atoms: C10_16  and  N2_17 
REMARK    7  A    between atoms: C11_21  and  O4_22 
REMARK    8  A    between atoms: O4_22  and  C12_23 
REMARK    9  A    between atoms: C13_25  and  C14_26 
REMARK   10  A    between atoms: N3_27  and  C15_29 
REMARK   11  A    between atoms: C19_33  and  O6_34 
REMARK   12  A    between atoms: C20_36  and  N4_37 
REMARK   13  A    between atoms: C21_41  and  O7_42 
ROOT
HETATM    1  O4  UNL     1      -0.822  82.984  26.946  1.00  0.00    -0.349 OA
ENDROOT
BRANCH   1   2
HETATM    2  C11 UNL     1       0.222  82.122  26.568  1.00  0.00     0.180 C 
HETATM    3  C3  UNL     1       0.801  82.693  25.327  1.00  0.00     0.144 C 
HETATM    4  C4  UNL     1       1.260  81.823  24.234  1.00  0.00     0.150 C 
HETATM    5  C7  UNL     1       0.554  80.460  24.161  1.00  0.00     0.015 C 
HETATM    6  C8  UNL     1      -0.791  80.572  23.532  1.00  0.00     0.012 C 
HETATM    7  C9  UNL     1       0.583  79.886  25.533  1.00  0.00     0.042 C 
HETATM    8  C10 UNL     1      -0.195  80.707  26.519  1.00  0.00     0.215 C 
BRANCH   3   9
HETATM    9  N1  UNL     1       1.867  83.625  25.636  1.00  0.00    -0.352 N 
HETATM   10  C2  UNL     1       2.117  84.858  25.026  1.00  0.00     0.214 C 
HETATM   11  C1  UNL     1       3.271  85.721  25.451  1.00  0.00     0.117 C 
HETATM   12  O1  UNL     1       1.388  85.286  24.104  1.00  0.00    -0.274 OA
ATOM     13  H1  UNL     1       2.506  83.352  26.382  1.00  0.00     0.163 HD
ENDBRANCH   3   9
BRANCH   4  14
HETATM   14  O2  UNL     1       2.589  81.586  24.157  1.00  0.00    -0.381 OA
BRANCH  14  15
HETATM   15  C5  UNL     1       3.001  80.525  23.436  1.00  0.00     0.194 C 
BRANCH  15  16
HETATM   16  C6  UNL     1       4.337  80.489  22.804  1.00  0.00     0.190 C 
BRANCH  16  17
HETATM   17  O3  UNL     1       5.327  79.749  23.408  1.00  0.00    -0.399 OA
ATOM     18  H3  UNL     1       5.599  79.990  24.286  1.00  0.00     0.209 HD
ENDBRANCH  16  17
ENDBRANCH  15  16
ENDBRANCH  14  15
ENDBRANCH   4  14
BRANCH   8  19
HETATM   19  N2  UNL     1      -1.606  80.570  26.141  1.00  0.00    -0.072 N 
ATOM     20  H23 UNL     1      -1.753  79.964  25.335  1.00  0.00     0.274 HD
ATOM     21  H22 UNL     1      -2.153  80.026  26.808  1.00  0.00     0.274 HD
ATOM     22  H21 UNL     1      -1.957  81.519  26.006  1.00  0.00     0.274 HD
ENDBRANCH   8  19
ENDBRANCH   1   2
BRANCH   1  23
HETATM   23  C12 UNL     1      -1.321  83.758  25.915  1.00  0.00     0.292 C 
HETATM   24  O5  UNL     1      -2.406  83.227  25.297  1.00  0.00    -0.345 OA
HETATM   25  C13 UNL     1      -3.153  83.998  24.471  1.00  0.00     0.193 C 
HETATM   26  C19 UNL     1      -3.393  85.411  24.950  1.00  0.00     0.185 C 
HETATM   27  C20 UNL     1      -2.143  86.082  25.432  1.00  0.00     0.248 C 
HETATM   28  C21 UNL     1      -1.506  85.159  26.445  1.00  0.00     0.206 C 
BRANCH  25  29
HETATM   29  C14 UNL     1      -2.456  84.098  23.164  1.00  0.00     0.090 C 
HETATM   30  N3  UNL     1      -3.037  84.385  22.091  1.00  0.00    -0.392 N 
ATOM     31  H3  UNL     1      -4.041  84.556  22.139  1.00  0.00     0.159 HD
BRANCH  30  32
HETATM   32  C15 UNL     1      -2.430  84.494  20.826  1.00  0.00     0.018 C 
HETATM   33  C16 UNL     1      -2.508  85.843  20.196  1.00  0.00     0.037 C 
HETATM   34  C17 UNL     1      -0.938  84.163  20.990  1.00  0.00     0.037 C 
HETATM   35  C18 UNL     1      -2.959  83.450  19.836  1.00  0.00     0.037 C 
ENDBRANCH  30  32
ENDBRANCH  25  29
BRANCH  26  36
HETATM   36  O6  UNL     1      -3.988  86.207  24.005  1.00  0.00    -0.390 OA
ATOM     37  H6  UNL     1      -4.104  87.104  24.292  1.00  0.00     0.210 HD
ENDBRANCH  26  36
BRANCH  27  38
HETATM   38  N4  UNL     1      -1.265  86.486  24.384  1.00  0.00    -0.070 N 
ATOM     39  H43 UNL     1      -1.047  85.699  23.775  1.00  0.00     0.274 HD
ATOM     40  H42 UNL     1      -1.753  87.088  23.719  1.00  0.00     0.274 HD
ATOM     41  H41 UNL     1      -0.410  86.933  24.713  1.00  0.00     0.274 HD
ENDBRANCH  27  38
BRANCH  28  42
HETATM   42  O7  UNL     1      -0.311  85.748  26.821  1.00  0.00    -0.388 OA
ATOM     43  H7  UNL     1       0.059  85.358  27.604  1.00  0.00     0.210 HD
ENDBRANCH  28  42
ENDBRANCH   1  23
TORSDOF 13
ENDMDL
MODEL 2
REMARK VINA RESULT: -6.365846006      3.260      5.701
REMARK  13 active torsions:
REMARK  status: ('A' for Active; 'I' for Inactive)
REMARK       I    between atoms: C2_2  and  N1_4 
REMARK    1  A    between atoms: N1_4  and  C3_6 
REMARK    2  A    between atoms: C4_7  and  O2_8 
REMARK    3  A    between atoms: O2_8  and  C5_9 
REMARK    4  A    between atoms: C5_9  and  C6_10 
REMARK    5  A    between atoms: C6_10  and  O3_11 
REMARK    6  A    between atoms: C10_16  and  N2_17 
REMARK    7  A    between atoms: C11_21  and  O4_22 
REMARK    8  A    between atoms: O4_22  and  C12_23 
REMARK    9  A    between atoms: C13_25  and  C14_26 
REMARK   10  A    between atoms: N3_27  and  C15_29 
REMARK   11  A    between atoms: C19_33  and  O6_34 
REMARK   12  A    between atoms: C20_36  and  N4_37 
REMARK   13  A    between atoms: C21_41  and  O7_42 
ROOT
HETATM    1  O4  UNL     1      -4.436  83.330  24.328  1.00  0.00    -0.349 OA
ENDROOT
BRANCH   1   2
HETATM    2  C11 UNL     1      -4.061  82.020  23.982  1.00  0.00     0.180 C 
HETATM    3  C3  UNL     1      -4.156  81.939  22.504  1.00  0.00     0.144 C 
HETATM    4  C4  UNL     1      -4.645  80.720  21.841  1.00  0.00     0.150 C 
HETATM    5  C7  UNL     1      -5.600  79.867  22.691  1.00  0.00     0.015 C 
HETATM    6  C8  UNL     1      -6.977  80.434  22.705  1.00  0.00     0.012 C 
HETATM    7  C9  UNL     1      -4.956  79.696  24.021  1.00  0.00     0.042 C 
HETATM    8  C10 UNL     1      -4.790  80.994  24.754  1.00  0.00     0.215 C 
BRANCH   3   9
HETATM    9  N1  UNL     1      -2.901  82.315  21.884  1.00  0.00    -0.352 N 
HETATM   10  C2  UNL     1      -2.721  83.157  20.783  1.00  0.00     0.214 C 
HETATM   11  C1  UNL     1      -1.350  83.455  20.243  1.00  0.00     0.117 C 
HETATM   12  O1  UNL     1      -3.693  83.694  20.208  1.00  0.00    -0.274 OA
ATOM     13  H1  UNL     1      -2.056  81.922  22.297  1.00  0.00     0.163 HD
ENDBRANCH   3   9
BRANCH   4  14
HETATM   14  O2  UNL     1      -3.712  79.884  21.332  1.00  0.00    -0.381 OA
BRANCH  14  15
HETATM   15  C5  UNL     1      -3.856  79.477  20.057  1.00  0.00     0.194 C 
BRANCH  15  16
HETATM   16  C6  UNL     1      -2.900  79.875  19.002  1.00  0.00     0.190 C 
BRANCH  16  17
HETATM   17  O3  UNL     1      -3.399  80.320  17.800  1.00  0.00    -0.399 OA
ATOM     18  H3  UNL     1      -3.913  81.118  17.793  1.00  0.00     0.209 HD
ENDBRANCH  16  17
ENDBRANCH  15  16
ENDBRANCH  14  15
ENDBRANCH   4  14
BRANCH   8  19
HETATM   19  N2  UNL     1      -6.143  81.440  25.106  1.00  0.00    -0.072 N 
ATOM     20  H23 UNL     1      -6.522  80.975  25.930  1.00  0.00     0.274 HD
ATOM     21  H22 UNL     1      -6.173  82.391  25.475  1.00  0.00     0.274 HD
ATOM     22  H21 UNL     1      -6.711  81.311  24.269  1.00  0.00     0.274 HD
ENDBRANCH   8  19
ENDBRANCH   1   2
BRANCH   1  23
HETATM   23  C12 UNL     1      -3.397  84.114  24.794  1.00  0.00     0.292 C 
HETATM   24  O5  UNL     1      -2.535  84.524  23.830  1.00  0.00    -0.345 OA
HETATM   25  C13 UNL     1      -1.647  85.512  24.099  1.00  0.00     0.193 C 
HETATM   26  C19 UNL     1      -2.190  86.660  24.918  1.00  0.00     0.185 C 
HETATM   27  C20 UNL     1      -2.963  86.204  26.118  1.00  0.00     0.248 C 
HETATM   28  C21 UNL     1      -3.998  85.218  25.630  1.00  0.00     0.206 C 
BRANCH  25  29
HETATM   29  C14 UNL     1      -0.517  84.931  24.864  1.00  0.00     0.090 C 
HETATM   30  N3  UNL     1       0.644  85.405  24.850  1.00  0.00    -0.392 N 
ATOM     31  H3  UNL     1       0.798  86.234  24.276  1.00  0.00     0.159 HD
BRANCH  30  32
HETATM   32  C15 UNL     1       1.753  84.898  25.552  1.00  0.00     0.018 C 
HETATM   33  C16 UNL     1       1.560  84.749  27.023  1.00  0.00     0.037 C 
HETATM   34  C17 UNL     1       2.061  83.499  24.998  1.00  0.00     0.037 C 
HETATM   35  C18 UNL     1       3.026  85.713  25.297  1.00  0.00     0.037 C 
ENDBRANCH  30  32
ENDBRANCH  25  29
BRANCH  26  36
HETATM   36  O6  UNL     1      -1.217  87.538  25.324  1.00  0.00    -0.390 OA
ATOM     37  H6  UNL     1      -1.227  87.698  26.260  1.00  0.00     0.210 HD
ENDBRANCH  26  36
BRANCH  27  38
HETATM   38  N4  UNL     1      -2.145  85.710  27.177  1.00  0.00    -0.070 N 
ATOM     39  H43 UNL     1      -2.696  85.144  27.821  1.00  0.00     0.274 HD
ATOM     40  H42 UNL     1      -1.500  84.999  26.831  1.00  0.00     0.274 HD
ATOM     41  H41 UNL     1      -1.640  86.439  27.681  1.00  0.00     0.274 HD
ENDBRANCH  27  38
BRANCH  28  42
HETATM   42  O7  UNL     1      -4.650  84.739  26.754  1.00  0.00    -0.388 OA
ATOM     43  H7  UNL     1      -5.590  84.875  26.718  1.00  0.00     0.210 HD
ENDBRANCH  28  42
ENDBRANCH   1  23
TORSDOF 13
ENDMDL
MODEL 3
REMARK VINA RESULT: -6.344204735      3.459      6.064
REMARK  13 active torsions:
REMARK  status: ('A' for Active; 'I' for Inactive)
REMARK       I    between atoms: C2_2  and  N1_4 
REMARK    1  A    between atoms: N1_4  and  C3_6 
REMARK    2  A    between atoms: C4_7  and  O2_8 
REMARK    3  A    between atoms: O2_8  and  C5_9 
REMARK    4  A    between atoms: C5_9  and  C6_10 
REMARK    5  A    between atoms: C6_10  and  O3_11 
REMARK    6  A    between atoms: C10_16  and  N2_17 
REMARK    7  A    between atoms: C11_21  and  O4_22 
REMARK    8  A    between atoms: O4_22  and  C12_23 
REMARK    9  A    between atoms: C13_25  and  C14_26 
REMARK   10  A    between atoms: N3_27  and  C15_29 
REMARK   11  A    between atoms: C19_33  and  O6_34 
REMARK   12  A    between atoms: C20_36  and  N4_37 
REMARK   13  A    between atoms: C21_41  and  O7_42 
ROOT
HETATM    1  O4  UNL     1      -0.178  82.481  22.029  1.00  0.00    -0.349 OA
ENDROOT
BRANCH   1   2
HETATM    2  C11 UNL     1      -0.476  82.825  23.358  1.00  0.00     0.180 C 
HETATM    3  C3  UNL     1      -0.290  84.294  23.457  1.00  0.00     0.144 C 
HETATM    4  C4  UNL     1       0.288  84.906  24.663  1.00  0.00     0.150 C 
HETATM    5  C7  UNL     1       1.226  83.987  25.461  1.00  0.00     0.015 C 
HETATM    6  C8  UNL     1       2.575  83.904  24.835  1.00  0.00     0.012 C 
HETATM    7  C9  UNL     1       0.513  82.694  25.640  1.00  0.00     0.042 C 
HETATM    8  C10 UNL     1       0.250  81.994  24.340  1.00  0.00     0.215 C 
BRANCH   3   9
HETATM    9  N1  UNL     1      -1.522  84.991  23.145  1.00  0.00    -0.352 N 
HETATM   10  C2  UNL     1      -1.931  85.468  21.896  1.00  0.00     0.214 C 
HETATM   11  C1  UNL     1      -3.242  86.183  21.723  1.00  0.00     0.117 C 
HETATM   12  O1  UNL     1      -1.221  85.316  20.878  1.00  0.00    -0.274 OA
ATOM     13  H1  UNL     1      -2.161  85.153  23.923  1.00  0.00     0.163 HD
ENDBRANCH   3   9
BRANCH   4  14
HETATM   14  O2  UNL     1      -0.578  85.453  25.546  1.00  0.00    -0.381 OA
BRANCH  14  15
HETATM   15  C5  UNL     1      -0.084  86.290  26.479  1.00  0.00     0.194 C 
BRANCH  15  16
HETATM   16  C6  UNL     1      -0.146  85.968  27.920  1.00  0.00     0.190 C 
BRANCH  16  17
HETATM   17  O3  UNL     1       0.975  86.182  28.688  1.00  0.00    -0.399 OA
ATOM     18  H3  UNL     1       1.417  87.019  28.617  1.00  0.00     0.209 HD
ENDBRANCH  16  17
ENDBRANCH  15  16
ENDBRANCH  14  15
ENDBRANCH   4  14
BRANCH   8  19
HETATM   19  N2  UNL     1       1.559  81.573  23.830  1.00  0.00    -0.072 N 
ATOM     20  H23 UNL     1       2.297  82.259  23.990  1.00  0.00     0.274 HD
ATOM     21  H22 UNL     1       1.978  80.813  24.368  1.00  0.00     0.274 HD
ATOM     22  H21 UNL     1       1.421  81.346  22.846  1.00  0.00     0.274 HD
ENDBRANCH   8  19
ENDBRANCH   1   2
BRANCH   1  23
HETATM   23  C12 UNL     1      -1.029  81.538  21.481  1.00  0.00     0.292 C 
HETATM   24  O5  UNL     1      -2.143  82.060  20.911  1.00  0.00    -0.345 OA
HETATM   25  C13 UNL     1      -2.910  81.288  20.105  1.00  0.00     0.193 C 
HETATM   26  C19 UNL     1      -2.148  80.383  19.165  1.00  0.00     0.185 C 
HETATM   27  C20 UNL     1      -1.046  79.631  19.846  1.00  0.00     0.248 C 
HETATM   28  C21 UNL     1      -0.205  80.647  20.583  1.00  0.00     0.206 C 
BRANCH  25  29
HETATM   29  C14 UNL     1      -3.754  80.413  20.957  1.00  0.00     0.090 C 
HETATM   30  N3  UNL     1      -4.709  80.837  21.650  1.00  0.00    -0.392 N 
ATOM     31  H3  UNL     1      -4.900  81.838  21.611  1.00  0.00     0.159 HD
BRANCH  30  32
HETATM   32  C15 UNL     1      -5.542  80.058  22.475  1.00  0.00     0.018 C 
HETATM   33  C16 UNL     1      -5.219  80.106  23.930  1.00  0.00     0.037 C 
HETATM   34  C17 UNL     1      -6.979  80.578  22.318  1.00  0.00     0.037 C 
HETATM   35  C18 UNL     1      -5.600  78.594  22.026  1.00  0.00     0.037 C 
ENDBRANCH  30  32
ENDBRANCH  25  29
BRANCH  26  36
HETATM   36  O6  UNL     1      -2.954  79.489  18.506  1.00  0.00    -0.390 OA
ATOM     37  H6  UNL     1      -3.327  78.831  19.080  1.00  0.00     0.210 HD
ENDBRANCH  26  36
BRANCH  27  38
HETATM   38  N4  UNL     1      -1.502  78.555  20.663  1.00  0.00    -0.070 N 
ATOM     39  H43 UNL     1      -1.824  78.902  21.567  1.00  0.00     0.274 HD
ATOM     40  H42 UNL     1      -2.379  78.177  20.303  1.00  0.00     0.274 HD
ATOM     41  H41 UNL     1      -0.815  77.812  20.788  1.00  0.00     0.274 HD
ENDBRANCH  27  38
BRANCH  28  42
HETATM   42  O7  UNL     1       0.759  79.936  21.277  1.00  0.00    -0.388 OA
ATOM     43  H7  UNL     1       0.869  79.052  20.947  1.00  0.00     0.210 HD
ENDBRANCH  28  42
ENDBRANCH   1  23
TORSDOF 13
ENDMDL
MODEL 4
REMARK VINA RESULT: -6.331792911      3.007      6.318
REMARK  13 active torsions:
REMARK  status: ('A' for Active; 'I' for Inactive)
REMARK       I    between atoms: C2_2  and  N1_4 
REMARK    1  A    between atoms: N1_4  and  C3_6 
REMARK    2  A    between atoms: C4_7  and  O2_8 
REMARK    3  A    between atoms: O2_8  and  C5_9 
REMARK    4  A    between atoms: C5_9  and  C6_10 
REMARK    5  A    between atoms: C6_10  and  O3_11 
REMARK    6  A    between atoms: C10_16  and  N2_17 
REMARK    7  A    between atoms: C11_21  and  O4_22 
REMARK    8  A    between atoms: O4_22  and  C12_23 
REMARK    9  A    between atoms: C13_25  and  C14_26 
REMARK   10  A    between atoms: N3_27  and  C15_29 
REMARK   11  A    between atoms: C19_33  and  O6_34 
REMARK   12  A    between atoms: C20_36  and  N4_37 
REMARK   13  A    between atoms: C21_41  and  O7_42 
ROOT
HETATM    1  O4  UNL     1      -0.100  84.011  23.254  1.00  0.00    -0.349 OA
ENDROOT
BRANCH   1   2
HETATM    2  C11 UNL     1      -1.283  83.377  22.839  1.00  0.00     0.180 C 
HETATM    3  C3  UNL     1      -0.882  82.379  21.818  1.00  0.00     0.144 C 
HETATM    4  C4  UNL     1      -1.718  82.125  20.635  1.00  0.00     0.150 C 
HETATM    5  C7  UNL     1      -2.595  83.312  20.204  1.00  0.00     0.015 C 
HETATM    6  C8  UNL     1      -1.809  84.330  19.453  1.00  0.00     0.012 C 
HETATM    7  C9  UNL     1      -3.290  83.800  21.425  1.00  0.00     0.042 C 
HETATM    8  C10 UNL     1      -2.340  84.335  22.455  1.00  0.00     0.215 C 
BRANCH   3   9
HETATM    9  N1  UNL     1      -0.578  81.103  22.435  1.00  0.00    -0.352 N 
HETATM   10  C2  UNL     1       0.462  80.230  22.105  1.00  0.00     0.214 C 
HETATM   11  C1  UNL     1       0.652  78.929  22.834  1.00  0.00     0.117 C 
HETATM   12  O1  UNL     1       1.273  80.500  21.192  1.00  0.00    -0.274 OA
ATOM     13  H1  UNL     1      -1.192  80.809  23.195  1.00  0.00     0.163 HD
ENDBRANCH   3   9
BRANCH   4  14
HETATM   14  O2  UNL     1      -2.517  81.035  20.673  1.00  0.00    -0.381 OA
BRANCH  14  15
HETATM   15  C5  UNL     1      -2.321  80.075  19.748  1.00  0.00     0.194 C 
BRANCH  15  16
HETATM   16  C6  UNL     1      -3.325  79.789  18.702  1.00  0.00     0.190 C 
BRANCH  16  17
HETATM   17  O3  UNL     1      -3.330  80.568  17.568  1.00  0.00    -0.399 OA
ATOM     18  H3  UNL     1      -3.626  80.179  16.754  1.00  0.00     0.209 HD
ENDBRANCH  16  17
ENDBRANCH  15  16
ENDBRANCH  14  15
ENDBRANCH   4  14
BRANCH   8  19
HETATM   19  N2  UNL     1      -1.776  85.566  21.890  1.00  0.00    -0.072 N 
ATOM     20  H23 UNL     1      -1.924  85.656  20.886  1.00  0.00     0.274 HD
ATOM     21  H22 UNL     1      -2.282  86.408  22.167  1.00  0.00     0.274 HD
ATOM     22  H21 UNL     1      -0.792  85.577  22.159  1.00  0.00     0.274 HD
ENDBRANCH   8  19
ENDBRANCH   1   2
BRANCH   1  23
HETATM   23  C12 UNL     1      -0.017  84.223  24.618  1.00  0.00     0.292 C 
HETATM   24  O5  UNL     1       0.736  83.307  25.278  1.00  0.00    -0.345 OA
HETATM   25  C13 UNL     1       1.126  83.551  26.552  1.00  0.00     0.193 C 
HETATM   26  C19 UNL     1       1.562  84.970  26.832  1.00  0.00     0.185 C 
HETATM   27  C20 UNL     1       0.609  85.990  26.290  1.00  0.00     0.248 C 
HETATM   28  C21 UNL     1       0.388  85.661  24.832  1.00  0.00     0.206 C 
BRANCH  25  29
HETATM   29  C14 UNL     1      -0.017  83.264  27.455  1.00  0.00     0.090 C 
HETATM   30  N3  UNL     1       0.115  82.992  28.672  1.00  0.00    -0.392 N 
ATOM     31  H3  UNL     1       1.065  82.971  29.041  1.00  0.00     0.159 HD
BRANCH  30  32
HETATM   32  C15 UNL     1      -0.928  82.711  29.574  1.00  0.00     0.018 C 
HETATM   33  C16 UNL     1      -0.820  83.384  30.900  1.00  0.00     0.037 C 
HETATM   34  C17 UNL     1      -2.242  83.189  28.937  1.00  0.00     0.037 C 
HETATM   35  C18 UNL     1      -1.119  81.206  29.793  1.00  0.00     0.037 C 
ENDBRANCH  30  32
ENDBRANCH  25  29
BRANCH  26  36
HETATM   36  O6  UNL     1       1.766  85.217  28.166  1.00  0.00    -0.390 OA
ATOM     37  H6  UNL     1       2.685  85.234  28.405  1.00  0.00     0.210 HD
ENDBRANCH  26  36
BRANCH  27  38
HETATM   38  N4  UNL     1      -0.595  86.111  27.045  1.00  0.00    -0.070 N 
ATOM     39  H43 UNL     1      -0.544  85.550  27.895  1.00  0.00     0.274 HD
ATOM     40  H42 UNL     1      -0.668  87.042  27.458  1.00  0.00     0.274 HD
ATOM     41  H41 UNL     1      -1.437  85.885  26.517  1.00  0.00     0.274 HD
ENDBRANCH  27  38
BRANCH  28  42
HETATM   42  O7  UNL     1      -0.558  86.557  24.363  1.00  0.00    -0.388 OA
ATOM     43  H7  UNL     1      -0.461  87.423  24.741  1.00  0.00     0.210 HD
ENDBRANCH  28  42
ENDBRANCH   1  23
TORSDOF 13
ENDMDL
MODEL 5
REMARK VINA RESULT: -6.268227373      3.095      4.725
REMARK  13 active torsions:
REMARK  status: ('A' for Active; 'I' for Inactive)
REMARK       I    between atoms: C2_2  and  N1_4 
REMARK    1  A    between atoms: N1_4  and  C3_6 
REMARK    2  A    between atoms: C4_7  and  O2_8 
REMARK    3  A    between atoms: O2_8  and  C5_9 
REMARK    4  A    between atoms: C5_9  and  C6_10 
REMARK    5  A    between atoms: C6_10  and  O3_11 
REMARK    6  A    between atoms: C10_16  and  N2_17 
REMARK    7  A    between atoms: C11_21  and  O4_22 
REMARK    8  A    between atoms: O4_22  and  C12_23 
REMARK    9  A    between atoms: C13_25  and  C14_26 
REMARK   10  A    between atoms: N3_27  and  C15_29 
REMARK   11  A    between atoms: C19_33  and  O6_34 
REMARK   12  A    between atoms: C20_36  and  N4_37 
REMARK   13  A    between atoms: C21_41  and  O7_42 
ROOT
HETATM    1  O4  UNL     1      -2.091  80.779  25.140  1.00  0.00    -0.349 OA
ENDROOT
BRANCH   1   2
HETATM    2  C11 UNL     1      -2.654  79.815  24.286  1.00  0.00     0.180 C 
HETATM    3  C3  UNL     1      -2.263  80.203  22.909  1.00  0.00     0.144 C 
HETATM    4  C4  UNL     1      -3.194  80.042  21.782  1.00  0.00     0.150 C 
HETATM    5  C7  UNL     1      -4.681  80.085  22.168  1.00  0.00     0.015 C 
HETATM    6  C8  UNL     1      -5.152  81.482  22.381  1.00  0.00     0.012 C 
HETATM    7  C9  UNL     1      -4.854  79.160  23.320  1.00  0.00     0.042 C 
HETATM    8  C10 UNL     1      -4.094  79.602  24.535  1.00  0.00     0.215 C 
BRANCH   3   9
HETATM    9  N1  UNL     1      -1.001  79.594  22.539  1.00  0.00    -0.352 N 
HETATM   10  C2  UNL     1       0.073  80.204  21.884  1.00  0.00     0.214 C 
HETATM   11  C1  UNL     1       1.326  79.439  21.559  1.00  0.00     0.117 C 
HETATM   12  O1  UNL     1       0.029  81.406  21.544  1.00  0.00    -0.274 OA
ATOM     13  H1  UNL     1      -0.882  78.611  22.785  1.00  0.00     0.163 HD
ENDBRANCH   3   9
BRANCH   4  14
HETATM   14  O2  UNL     1      -3.020  78.956  20.995  1.00  0.00    -0.381 OA
BRANCH  14  15
HETATM   15  C5  UNL     1      -3.282  79.079  19.680  1.00  0.00     0.194 C 
BRANCH  15  16
HETATM   16  C6  UNL     1      -2.794  80.235  18.898  1.00  0.00     0.190 C 
BRANCH  16  17
HETATM   17  O3  UNL     1      -3.355  80.474  17.665  1.00  0.00    -0.399 OA
ATOM     18  H3  UNL     1      -4.157  80.019  17.437  1.00  0.00     0.209 HD
ENDBRANCH  16  17
ENDBRANCH  15  16
ENDBRANCH  14  15
ENDBRANCH   4  14
BRANCH   8  19
HETATM   19  N2  UNL     1      -4.750  80.828  25.004  1.00  0.00    -0.072 N 
ATOM     20  H23 UNL     1      -5.281  81.307  24.278  1.00  0.00     0.274 HD
ATOM     21  H22 UNL     1      -5.531  80.653  25.636  1.00  0.00     0.274 HD
ATOM     22  H21 UNL     1      -4.015  81.403  25.416  1.00  0.00     0.274 HD
ENDBRANCH   8  19
ENDBRANCH   1   2
BRANCH   1  23
HETATM   23  C12 UNL     1      -1.770  81.972  24.517  1.00  0.00     0.292 C 
HETATM   24  O5  UNL     1      -2.755  82.903  24.558  1.00  0.00    -0.345 OA
HETATM   25  C13 UNL     1      -2.477  84.190  24.239  1.00  0.00     0.193 C 
HETATM   26  C19 UNL     1      -1.161  84.714  24.767  1.00  0.00     0.185 C 
HETATM   27  C20 UNL     1      -0.021  83.774  24.524  1.00  0.00     0.248 C 
HETATM   28  C21 UNL     1      -0.436  82.424  25.060  1.00  0.00     0.206 C 
BRANCH  25  29
HETATM   29  C14 UNL     1      -2.426  84.306  22.761  1.00  0.00     0.090 C 
HETATM   30  N3  UNL     1      -2.874  85.293  22.129  1.00  0.00    -0.392 N 
ATOM     31  H3  UNL     1      -3.290  86.044  22.679  1.00  0.00     0.159 HD
BRANCH  30  32
HETATM   32  C15 UNL     1      -2.854  85.458  20.732  1.00  0.00     0.018 C 
HETATM   33  C16 UNL     1      -2.898  86.871  20.258  1.00  0.00     0.037 C 
HETATM   34  C17 UNL     1      -1.545  84.850  20.205  1.00  0.00     0.037 C 
HETATM   35  C18 UNL     1      -3.966  84.665  20.037  1.00  0.00     0.037 C 
ENDBRANCH  30  32
ENDBRANCH  25  29
BRANCH  26  36
HETATM   36  O6  UNL     1      -0.834  85.949  24.267  1.00  0.00    -0.390 OA
ATOM     37  H6  UNL     1      -1.491  86.298  23.677  1.00  0.00     0.210 HD
ENDBRANCH  26  36
BRANCH  27  38
HETATM   38  N4  UNL     1       0.425  83.748  23.170  1.00  0.00    -0.070 N 
ATOM     39  H43 UNL     1       1.165  83.057  23.049  1.00  0.00     0.274 HD
ATOM     40  H42 UNL     1      -0.289  83.343  22.564  1.00  0.00     0.274 HD
ATOM     41  H41 UNL     1       0.723  84.657  22.816  1.00  0.00     0.274 HD
ENDBRANCH  27  38
BRANCH  28  42
HETATM   42  O7  UNL     1       0.589  81.544  24.755  1.00  0.00    -0.388 OA
ATOM     43  H7  UNL     1       0.379  80.646  24.979  1.00  0.00     0.210 HD
ENDBRANCH  28  42
ENDBRANCH   1  23
TORSDOF 13
ENDMDL
