MODEL 1
REMARK VINA RESULT: -7.178273470      0.000      0.000
REMARK  16 active torsions:
REMARK  status: ('A' for Active; 'I' for Inactive)
REMARK    1  A    between atoms: C2_2  and  C3_3 
REMARK    2  A    between atoms: C3_3  and  O1_4 
REMARK    3  A    between atoms: O1_4  and  C4_5 
REMARK    4  A    between atoms: C4_5  and  C6_7 
REMARK    5  A    between atoms: C6_7  and  C7_8 
REMARK    6  A    between atoms: C7_8  and  C8_9 
REMARK    7  A    between atoms: C17_19  and  C18_20 
REMARK    8  A    between atoms: C18_20  and  O2_21 
REMARK    9  A    between atoms: C18_20  and  C19_23 
REMARK   10  A    between atoms: C19_23  and  C21_25 
REMARK   11  A    between atoms: C21_25  and  C22_26 
REMARK   12  A    between atoms: C22_26  and  C23_27 
REMARK   13  A    between atoms: C23_27  and  O3_28 
REMARK   14  A    between atoms: C23_27  and  C24_30 
REMARK   15  A    between atoms: C31_37  and  O4_38 
REMARK   16  A    between atoms: C33_41  and  O5_42 
ROOT
HETATM    1  C8  UNL     1      34.237  -6.247 -13.698  1.00  0.00     0.092 C 
HETATM    2 CL1  UNL     1      33.825  -6.852 -15.393  1.00  0.00    -0.111 Cl
HETATM    3  C9  UNL     1      33.192  -6.658 -12.787  1.00  0.00    -0.058 C 
HETATM    4  C10 UNL     1      33.283  -7.838 -12.164  1.00  0.00     0.017 C 
HETATM    5  C11 UNL     1      31.961  -5.910 -12.489  1.00  0.00     0.031 C 
HETATM    6  C12 UNL     1      30.862  -6.728 -13.100  1.00  0.00     0.043 C 
HETATM    7  C13 UNL     1      29.558  -6.070 -13.069  1.00  0.00    -0.088 C 
HETATM    8  C14 UNL     1      28.457  -6.681 -12.672  1.00  0.00     0.014 C 
HETATM    9  C15 UNL     1      29.531  -4.668 -13.514  1.00  0.00     0.034 C 
HETATM   10  C16 UNL     1      30.647  -3.820 -13.039  1.00  0.00     0.018 C 
HETATM   11  C17 UNL     1      31.972  -4.442 -12.698  1.00  0.00     0.004 C 
HETATM   12  C27 UNL     1      32.953  -4.057 -13.820  1.00  0.00     0.000 C 
HETATM   13  C28 UNL     1      32.272  -4.293 -15.157  1.00  0.00     0.019 C 
HETATM   14  C29 UNL     1      33.269  -2.577 -13.834  1.00  0.00     0.016 C 
HETATM   15  C30 UNL     1      33.898  -2.236 -15.202  1.00  0.00     0.032 C 
HETATM   16  C31 UNL     1      35.157  -2.991 -15.433  1.00  0.00     0.121 C 
HETATM   17  C32 UNL     1      35.067  -4.447 -15.081  1.00  0.00     0.072 C 
HETATM   18  C33 UNL     1      34.274  -4.741 -13.801  1.00  0.00     0.093 C 
ENDROOT
BRANCH  11  19
HETATM   19  C18 UNL     1      32.390  -3.746 -11.407  1.00  0.00     0.132 C 
BRANCH  19  20
HETATM   20  O2  UNL     1      31.656  -2.609 -11.102  1.00  0.00    -0.394 OA
ATOM     21  H2  UNL     1      32.100  -1.790 -11.288  1.00  0.00     0.210 HD
ENDBRANCH  19  20
BRANCH  19  22
HETATM   22  C19 UNL     1      32.607  -4.494 -10.174  1.00  0.00     0.011 C 
HETATM   23  C20 UNL     1      33.149  -3.388  -9.205  1.00  0.00     0.012 C 
BRANCH  22  24
HETATM   24  C21 UNL     1      31.484  -5.052  -9.399  1.00  0.00     0.009 C 
BRANCH  24  25
HETATM   25  C22 UNL     1      31.856  -6.404  -8.801  1.00  0.00     0.032 C 
BRANCH  25  26
HETATM   26  C23 UNL     1      30.966  -6.547  -7.556  1.00  0.00     0.121 C 
BRANCH  26  27
HETATM   27  O3  UNL     1      30.648  -7.880  -7.324  1.00  0.00    -0.395 OA
ATOM     28  H3  UNL     1      29.767  -7.963  -6.978  1.00  0.00     0.210 HD
ENDBRANCH  26  27
BRANCH  26  29
HETATM   29  C24 UNL     1      31.701  -6.045  -6.333  1.00  0.00     0.006 C 
HETATM   30  C25 UNL     1      31.349  -4.578  -6.089  1.00  0.00     0.012 C 
HETATM   31  C26 UNL     1      31.252  -6.835  -5.146  1.00  0.00     0.012 C 
ENDBRANCH  26  29
ENDBRANCH  25  26
ENDBRANCH  24  25
ENDBRANCH  22  24
ENDBRANCH  19  22
ENDBRANCH  11  19
BRANCH  18  32
HETATM   32  O5  UNL     1      35.129  -4.279 -12.821  1.00  0.00    -0.387 OA
ATOM     33  H5  UNL     1      34.598  -3.884 -12.141  1.00  0.00     0.210 HD
ENDBRANCH  18  32
BRANCH   1  34
HETATM   34  C7  UNL     1      35.518  -6.917 -13.439  1.00  0.00     0.036 C 
BRANCH  34  35
HETATM   35  C6  UNL     1      36.016  -8.023 -14.272  1.00  0.00     0.034 C 
BRANCH  35  36
HETATM   36  C4  UNL     1      37.432  -7.600 -14.749  1.00  0.00     0.117 C 
HETATM   37  C5  UNL     1      37.357  -7.381 -16.237  1.00  0.00     0.039 C 
BRANCH  36  38
HETATM   38  O1  UNL     1      38.337  -8.609 -14.522  1.00  0.00    -0.383 OA
BRANCH  38  39
HETATM   39  C3  UNL     1      39.140  -8.743 -15.652  1.00  0.00     0.194 C 
BRANCH  39  40
HETATM   40  C2  UNL     1      39.826 -10.050 -15.706  1.00  0.00    -0.011 C 
HETATM   41  C1  UNL     1      40.245 -10.592 -16.844  1.00  0.00     0.009 C 
ENDBRANCH  39  40
ENDBRANCH  38  39
ENDBRANCH  36  38
ENDBRANCH  35  36
ENDBRANCH  34  35
ENDBRANCH   1  34
BRANCH  16  42
HETATM   42  O4  UNL     1      36.250  -2.327 -14.931  1.00  0.00    -0.395 OA
ATOM     43  H4  UNL     1      36.786  -2.891 -14.387  1.00  0.00     0.210 HD
ENDBRANCH  16  42
TORSDOF 16
ENDMDL
MODEL 2
REMARK VINA RESULT: -7.055850998      2.046      7.915
REMARK  16 active torsions:
REMARK  status: ('A' for Active; 'I' for Inactive)
REMARK    1  A    between atoms: C2_2  and  C3_3 
REMARK    2  A    between atoms: C3_3  and  O1_4 
REMARK    3  A    between atoms: O1_4  and  C4_5 
REMARK    4  A    between atoms: C4_5  and  C6_7 
REMARK    5  A    between atoms: C6_7  and  C7_8 
REMARK    6  A    between atoms: C7_8  and  C8_9 
REMARK    7  A    between atoms: C17_19  and  C18_20 
REMARK    8  A    between atoms: C18_20  and  O2_21 
REMARK    9  A    between atoms: C18_20  and  C19_23 
REMARK   10  A    between atoms: C19_23  and  C21_25 
REMARK   11  A    between atoms: C21_25  and  C22_26 
REMARK   12  A    between atoms: C22_26  and  C23_27 
REMARK   13  A    between atoms: C23_27  and  O3_28 
REMARK   14  A    between atoms: C23_27  and  C24_30 
REMARK   15  A    between atoms: C31_37  and  O4_38 
REMARK   16  A    between atoms: C33_41  and  O5_42 
ROOT
HETATM    1  C8  UNL     1      32.874  -4.462 -12.350  1.00  0.00     0.092 C 
HETATM    2 CL1  UNL     1      31.762  -3.133 -12.987  1.00  0.00    -0.111 Cl
HETATM    3  C9  UNL     1      34.044  -4.539 -13.196  1.00  0.00    -0.058 C 
HETATM    4  C10 UNL     1      35.116  -3.791 -12.914  1.00  0.00     0.017 C 
HETATM    5  C11 UNL     1      34.178  -5.350 -14.416  1.00  0.00     0.031 C 
HETATM    6  C12 UNL     1      34.227  -4.352 -15.534  1.00  0.00     0.043 C 
HETATM    7  C13 UNL     1      34.184  -4.958 -16.862  1.00  0.00    -0.088 C 
HETATM    8  C14 UNL     1      35.012  -4.618 -17.832  1.00  0.00     0.014 C 
HETATM    9  C15 UNL     1      33.151  -5.985 -17.070  1.00  0.00     0.034 C 
HETATM   10  C16 UNL     1      32.966  -6.947 -15.960  1.00  0.00     0.018 C 
HETATM   11  C17 UNL     1      33.311  -6.546 -14.553  1.00  0.00     0.004 C 
HETATM   12  C27 UNL     1      31.981  -6.347 -13.802  1.00  0.00     0.000 C 
HETATM   13  C28 UNL     1      31.057  -5.515 -14.672  1.00  0.00     0.019 C 
HETATM   14  C29 UNL     1      31.224  -7.642 -13.607  1.00  0.00     0.016 C 
HETATM   15  C30 UNL     1      29.766  -7.292 -13.240  1.00  0.00     0.032 C 
HETATM   16  C31 UNL     1      29.690  -6.506 -11.982  1.00  0.00     0.121 C 
HETATM   17  C32 UNL     1      30.689  -5.389 -11.900  1.00  0.00     0.072 C 
HETATM   18  C33 UNL     1      32.078  -5.741 -12.446  1.00  0.00     0.093 C 
ENDROOT
BRANCH  11  19
HETATM   19  C18 UNL     1      34.030  -7.765 -13.984  1.00  0.00     0.132 C 
BRANCH  19  20
HETATM   20  O2  UNL     1      33.872  -8.926 -14.727  1.00  0.00    -0.394 OA
ATOM     21  H2  UNL     1      33.335  -9.591 -14.311  1.00  0.00     0.210 HD
ENDBRANCH  19  20
BRANCH  19  22
HETATM   22  C19 UNL     1      35.417  -7.692 -13.539  1.00  0.00     0.011 C 
HETATM   23  C20 UNL     1      35.373  -8.480 -12.185  1.00  0.00     0.012 C 
BRANCH  22  24
HETATM   24  C21 UNL     1      36.498  -8.388 -14.260  1.00  0.00     0.009 C 
BRANCH  24  25
HETATM   25  C22 UNL     1      37.306  -7.409 -15.104  1.00  0.00     0.032 C 
BRANCH  25  26
HETATM   26  C23 UNL     1      38.700  -8.044 -15.226  1.00  0.00     0.121 C 
BRANCH  26  27
HETATM   27  O3  UNL     1      39.281  -8.210 -13.975  1.00  0.00    -0.395 OA
ATOM     28  H3  UNL     1      39.534  -9.115 -13.835  1.00  0.00     0.210 HD
ENDBRANCH  26  27
BRANCH  26  29
HETATM   29  C24 UNL     1      38.592  -9.417 -15.853  1.00  0.00     0.006 C 
HETATM   30  C25 UNL     1      38.269  -9.277 -17.341  1.00  0.00     0.012 C 
HETATM   31  C26 UNL     1      39.911 -10.107 -15.726  1.00  0.00     0.012 C 
ENDBRANCH  26  29
ENDBRANCH  25  26
ENDBRANCH  24  25
ENDBRANCH  22  24
ENDBRANCH  19  22
ENDBRANCH  11  19
BRANCH  18  32
HETATM   32  O5  UNL     1      32.557  -6.602 -11.480  1.00  0.00    -0.387 OA
ATOM     33  H5  UNL     1      32.822  -7.402 -11.918  1.00  0.00     0.210 HD
ENDBRANCH  18  32
BRANCH   1  34
HETATM   34  C7  UNL     1      33.178  -3.981 -10.996  1.00  0.00     0.036 C 
BRANCH  34  35
HETATM   35  C6  UNL     1      32.222  -3.195 -10.201  1.00  0.00     0.034 C 
BRANCH  35  36
HETATM   36  C4  UNL     1      32.202  -3.840  -8.789  1.00  0.00     0.117 C 
HETATM   37  C5  UNL     1      33.476  -3.438  -8.094  1.00  0.00     0.039 C 
BRANCH  36  38
HETATM   38  O1  UNL     1      32.196  -5.211  -8.887  1.00  0.00    -0.383 OA
BRANCH  38  39
HETATM   39  C3  UNL     1      31.145  -5.704  -8.116  1.00  0.00     0.194 C 
BRANCH  39  40
HETATM   40  C2  UNL     1      31.615  -6.471  -6.945  1.00  0.00    -0.011 C 
HETATM   41  C1  UNL     1      31.311  -6.131  -5.698  1.00  0.00     0.009 C 
ENDBRANCH  39  40
ENDBRANCH  38  39
ENDBRANCH  36  38
ENDBRANCH  35  36
ENDBRANCH  34  35
ENDBRANCH   1  34
BRANCH  16  42
HETATM   42  O4  UNL     1      29.617  -7.317 -10.876  1.00  0.00    -0.395 OA
ATOM     43  H4  UNL     1      28.786  -7.226 -10.425  1.00  0.00     0.210 HD
ENDBRANCH  16  42
TORSDOF 16
ENDMDL
MODEL 3
REMARK VINA RESULT: -7.053282167      3.058      6.988
REMARK  16 active torsions:
REMARK  status: ('A' for Active; 'I' for Inactive)
REMARK    1  A    between atoms: C2_2  and  C3_3 
REMARK    2  A    between atoms: C3_3  and  O1_4 
REMARK    3  A    between atoms: O1_4  and  C4_5 
REMARK    4  A    between atoms: C4_5  and  C6_7 
REMARK    5  A    between atoms: C6_7  and  C7_8 
REMARK    6  A    between atoms: C7_8  and  C8_9 
REMARK    7  A    between atoms: C17_19  and  C18_20 
REMARK    8  A    between atoms: C18_20  and  O2_21 
REMARK    9  A    between atoms: C18_20  and  C19_23 
REMARK   10  A    between atoms: C19_23  and  C21_25 
REMARK   11  A    between atoms: C21_25  and  C22_26 
REMARK   12  A    between atoms: C22_26  and  C23_27 
REMARK   13  A    between atoms: C23_27  and  O3_28 
REMARK   14  A    between atoms: C23_27  and  C24_30 
REMARK   15  A    between atoms: C31_37  and  O4_38 
REMARK   16  A    between atoms: C33_41  and  O5_42 
ROOT
HETATM    1  C8  UNL     1      32.471  -4.869 -11.436  1.00  0.00     0.092 C 
HETATM    2 CL1  UNL     1      34.106  -4.021 -11.567  1.00  0.00    -0.111 Cl
HETATM    3  C9  UNL     1      32.598  -6.213 -11.954  1.00  0.00    -0.058 C 
HETATM    4  C10 UNL     1      32.949  -7.209 -11.134  1.00  0.00     0.017 C 
HETATM    5  C11 UNL     1      32.420  -6.619 -13.357  1.00  0.00     0.031 C 
HETATM    6  C12 UNL     1      33.795  -7.001 -13.820  1.00  0.00     0.043 C 
HETATM    7  C13 UNL     1      33.875  -7.274 -15.252  1.00  0.00    -0.088 C 
HETATM    8  C14 UNL     1      34.479  -8.339 -15.746  1.00  0.00     0.014 C 
HETATM    9  C15 UNL     1      33.239  -6.283 -16.134  1.00  0.00     0.034 C 
HETATM   10  C16 UNL     1      31.922  -5.774 -15.689  1.00  0.00     0.018 C 
HETATM   11  C17 UNL     1      31.577  -5.763 -14.226  1.00  0.00     0.004 C 
HETATM   12  C27 UNL     1      31.627  -4.295 -13.763  1.00  0.00     0.000 C 
HETATM   13  C28 UNL     1      32.902  -3.666 -14.294  1.00  0.00     0.019 C 
HETATM   14  C29 UNL     1      30.528  -3.454 -14.375  1.00  0.00     0.016 C 
HETATM   15  C30 UNL     1      30.906  -1.969 -14.192  1.00  0.00     0.032 C 
HETATM   16  C31 UNL     1      31.034  -1.607 -12.757  1.00  0.00     0.121 C 
HETATM   17  C32 UNL     1      31.812  -2.601 -11.945  1.00  0.00     0.072 C 
HETATM   18  C33 UNL     1      31.525  -4.066 -12.296  1.00  0.00     0.093 C 
ENDROOT
BRANCH  11  19
HETATM   19  C18 UNL     1      30.134  -6.253 -14.180  1.00  0.00     0.132 C 
BRANCH  19  20
HETATM   20  O2  UNL     1      29.489  -6.265 -15.409  1.00  0.00    -0.394 OA
ATOM     21  H2  UNL     1      29.736  -6.986 -15.977  1.00  0.00     0.210 HD
ENDBRANCH  19  20
BRANCH  19  22
HETATM   22  C19 UNL     1      29.765  -7.467 -13.459  1.00  0.00     0.011 C 
HETATM   23  C20 UNL     1      28.493  -7.008 -12.667  1.00  0.00     0.012 C 
BRANCH  22  24
HETATM   24  C21 UNL     1      29.268  -8.664 -14.162  1.00  0.00     0.009 C 
BRANCH  24  25
HETATM   25  C22 UNL     1      27.842  -8.991 -13.735  1.00  0.00     0.032 C 
BRANCH  25  26
HETATM   26  C23 UNL     1      27.537 -10.354 -14.378  1.00  0.00     0.121 C 
BRANCH  26  27
HETATM   27  O3  UNL     1      28.709 -11.004 -14.742  1.00  0.00    -0.395 OA
ATOM     28  H3  UNL     1      28.524 -11.868 -15.090  1.00  0.00     0.210 HD
ENDBRANCH  26  27
BRANCH  26  29
HETATM   29  C24 UNL     1      26.822 -11.246 -13.387  1.00  0.00     0.006 C 
HETATM   30  C25 UNL     1      25.882 -10.404 -12.524  1.00  0.00     0.012 C 
HETATM   31  C26 UNL     1      25.996 -12.236 -14.143  1.00  0.00     0.012 C 
ENDBRANCH  26  29
ENDBRANCH  25  26
ENDBRANCH  24  25
ENDBRANCH  22  24
ENDBRANCH  19  22
ENDBRANCH  11  19
BRANCH  18  32
HETATM   32  O5  UNL     1      30.254  -4.240 -11.789  1.00  0.00    -0.387 OA
ATOM     33  H5  UNL     1      30.201  -5.126 -11.450  1.00  0.00     0.210 HD
ENDBRANCH  18  32
BRANCH   1  34
HETATM   34  C7  UNL     1      32.227  -4.835  -9.987  1.00  0.00     0.036 C 
BRANCH  34  35
HETATM   35  C6  UNL     1      33.072  -4.068  -9.059  1.00  0.00     0.034 C 
BRANCH  35  36
HETATM   36  C4  UNL     1      32.219  -3.848  -7.780  1.00  0.00     0.117 C 
HETATM   37  C5  UNL     1      33.143  -3.979  -6.597  1.00  0.00     0.039 C 
BRANCH  36  38
HETATM   38  O1  UNL     1      31.260  -4.826  -7.669  1.00  0.00    -0.383 OA
BRANCH  38  39
HETATM   39  C3  UNL     1      31.611  -5.671  -6.619  1.00  0.00     0.194 C 
BRANCH  39  40
HETATM   40  C2  UNL     1      31.310  -7.088  -6.909  1.00  0.00    -0.011 C 
HETATM   41  C1  UNL     1      30.769  -7.484  -8.054  1.00  0.00     0.009 C 
ENDBRANCH  39  40
ENDBRANCH  38  39
ENDBRANCH  36  38
ENDBRANCH  35  36
ENDBRANCH  34  35
ENDBRANCH   1  34
BRANCH  16  42
HETATM   42  O4  UNL     1      29.833  -1.214 -12.220  1.00  0.00    -0.395 OA
ATOM     43  H4  UNL     1      29.792  -1.382 -11.286  1.00  0.00     0.210 HD
ENDBRANCH  16  42
TORSDOF 16
ENDMDL
MODEL 4
REMARK VINA RESULT: -6.981332597      3.230      7.685
REMARK  16 active torsions:
REMARK  status: ('A' for Active; 'I' for Inactive)
REMARK    1  A    between atoms: C2_2  and  C3_3 
REMARK    2  A    between atoms: C3_3  and  O1_4 
REMARK    3  A    between atoms: O1_4  and  C4_5 
REMARK    4  A    between atoms: C4_5  and  C6_7 
REMARK    5  A    between atoms: C6_7  and  C7_8 
REMARK    6  A    between atoms: C7_8  and  C8_9 
REMARK    7  A    between atoms: C17_19  and  C18_20 
REMARK    8  A    between atoms: C18_20  and  O2_21 
REMARK    9  A    between atoms: C18_20  and  C19_23 
REMARK   10  A    between atoms: C19_23  and  C21_25 
REMARK   11  A    between atoms: C21_25  and  C22_26 
REMARK   12  A    between atoms: C22_26  and  C23_27 
REMARK   13  A    between atoms: C23_27  and  O3_28 
REMARK   14  A    between atoms: C23_27  and  C24_30 
REMARK   15  A    between atoms: C31_37  and  O4_38 
REMARK   16  A    between atoms: C33_41  and  O5_42 
ROOT
HETATM    1  C8  UNL     1      31.723  -4.847 -11.820  1.00  0.00     0.092 C 
HETATM    2 CL1  UNL     1      29.903  -5.155 -11.816  1.00  0.00    -0.111 Cl
HETATM    3  C9  UNL     1      31.962  -3.455 -12.129  1.00  0.00    -0.058 C 
HETATM    4  C10 UNL     1      32.020  -2.557 -11.139  1.00  0.00     0.017 C 
HETATM    5  C11 UNL     1      32.110  -2.880 -13.475  1.00  0.00     0.031 C 
HETATM    6  C12 UNL     1      30.879  -2.046 -13.670  1.00  0.00     0.043 C 
HETATM    7  C13 UNL     1      30.739  -1.519 -15.025  1.00  0.00    -0.088 C 
HETATM    8  C14 UNL     1      30.443  -0.256 -15.275  1.00  0.00     0.014 C 
HETATM    9  C15 UNL     1      30.946  -2.482 -16.118  1.00  0.00     0.034 C 
HETATM   10  C16 UNL     1      32.082  -3.416 -15.947  1.00  0.00     0.018 C 
HETATM   11  C17 UNL     1      32.556  -3.779 -14.567  1.00  0.00     0.004 C 
HETATM   12  C27 UNL     1      32.107  -5.228 -14.303  1.00  0.00     0.000 C 
HETATM   13  C28 UNL     1      30.652  -5.363 -14.716  1.00  0.00     0.019 C 
HETATM   14  C29 UNL     1      32.825  -6.229 -15.180  1.00  0.00     0.016 C 
HETATM   15  C30 UNL     1      32.031  -7.552 -15.143  1.00  0.00     0.032 C 
HETATM   16  C31 UNL     1      31.946  -8.104 -13.767  1.00  0.00     0.121 C 
HETATM   17  C32 UNL     1      31.599  -7.085 -12.722  1.00  0.00     0.072 C 
HETATM   18  C33 UNL     1      32.283  -5.726 -12.912  1.00  0.00     0.093 C 
ENDROOT
BRANCH  11  19
HETATM   19  C18 UNL     1      34.077  -3.738 -14.673  1.00  0.00     0.132 C 
BRANCH  19  20
HETATM   20  O2  UNL     1      34.570  -3.907 -15.960  1.00  0.00    -0.394 OA
ATOM     21  H2  UNL     1      35.487  -3.681 -16.064  1.00  0.00     0.210 HD
ENDBRANCH  19  20
BRANCH  19  22
HETATM   22  C19 UNL     1      34.858  -2.695 -14.018  1.00  0.00     0.011 C 
HETATM   23  C20 UNL     1      35.953  -3.525 -13.264  1.00  0.00     0.012 C 
BRANCH  22  24
HETATM   24  C21 UNL     1      35.677  -1.742 -14.789  1.00  0.00     0.009 C 
BRANCH  24  25
HETATM   25  C22 UNL     1      34.855  -0.523 -15.193  1.00  0.00     0.032 C 
BRANCH  25  26
HETATM   26  C23 UNL     1      35.535   0.665 -14.493  1.00  0.00     0.121 C 
BRANCH  26  27
HETATM   27  O3  UNL     1      36.881   0.405 -14.269  1.00  0.00    -0.395 OA
ATOM     28  H3  UNL     1      37.329   1.181 -13.955  1.00  0.00     0.210 HD
ENDBRANCH  26  27
BRANCH  26  29
HETATM   29  C24 UNL     1      35.458   1.896 -15.369  1.00  0.00     0.006 C 
HETATM   30  C25 UNL     1      34.080   1.973 -16.026  1.00  0.00     0.012 C 
HETATM   31  C26 UNL     1      35.632   3.107 -14.510  1.00  0.00     0.012 C 
ENDBRANCH  26  29
ENDBRANCH  25  26
ENDBRANCH  24  25
ENDBRANCH  22  24
ENDBRANCH  19  22
ENDBRANCH  11  19
BRANCH  18  32
HETATM   32  O5  UNL     1      33.592  -6.014 -12.583  1.00  0.00    -0.387 OA
ATOM     33  H5  UNL     1      34.150  -5.485 -13.140  1.00  0.00     0.210 HD
ENDBRANCH  18  32
BRANCH   1  34
HETATM   34  C7  UNL     1      32.094  -5.199 -10.442  1.00  0.00     0.036 C 
BRANCH  34  35
HETATM   35  C6  UNL     1      31.094  -5.497  -9.405  1.00  0.00     0.034 C 
BRANCH  35  36
HETATM   36  C4  UNL     1      31.641  -6.717  -8.617  1.00  0.00     0.117 C 
HETATM   37  C5  UNL     1      30.499  -7.685  -8.440  1.00  0.00     0.039 C 
BRANCH  36  38
HETATM   38  O1  UNL     1      32.058  -6.334  -7.365  1.00  0.00    -0.383 OA
BRANCH  38  39
HETATM   39  C3  UNL     1      31.396  -5.158  -7.020  1.00  0.00     0.194 C 
BRANCH  39  40
HETATM   40  C2  UNL     1      32.310  -4.132  -6.480  1.00  0.00    -0.011 C 
HETATM   41  C1  UNL     1      33.311  -3.621  -7.187  1.00  0.00     0.009 C 
ENDBRANCH  39  40
ENDBRANCH  38  39
ENDBRANCH  36  38
ENDBRANCH  35  36
ENDBRANCH  34  35
ENDBRANCH   1  34
BRANCH  16  42
HETATM   42  O4  UNL     1      33.018  -8.912 -13.473  1.00  0.00    -0.395 OA
ATOM     43  H4  UNL     1      33.304  -8.806 -12.574  1.00  0.00     0.210 HD
ENDBRANCH  16  42
TORSDOF 16
ENDMDL
MODEL 5
REMARK VINA RESULT: -6.925995415      2.123      3.162
REMARK  16 active torsions:
REMARK  status: ('A' for Active; 'I' for Inactive)
REMARK    1  A    between atoms: C2_2  and  C3_3 
REMARK    2  A    between atoms: C3_3  and  O1_4 
REMARK    3  A    between atoms: O1_4  and  C4_5 
REMARK    4  A    between atoms: C4_5  and  C6_7 
REMARK    5  A    between atoms: C6_7  and  C7_8 
REMARK    6  A    between atoms: C7_8  and  C8_9 
REMARK    7  A    between atoms: C17_19  and  C18_20 
REMARK    8  A    between atoms: C18_20  and  O2_21 
REMARK    9  A    between atoms: C18_20  and  C19_23 
REMARK   10  A    between atoms: C19_23  and  C21_25 
REMARK   11  A    between atoms: C21_25  and  C22_26 
REMARK   12  A    between atoms: C22_26  and  C23_27 
REMARK   13  A    between atoms: C23_27  and  O3_28 
REMARK   14  A    between atoms: C23_27  and  C24_30 
REMARK   15  A    between atoms: C31_37  and  O4_38 
REMARK   16  A    between atoms: C33_41  and  O5_42 
ROOT
HETATM    1  C8  UNL     1      32.371  -6.726 -14.216  1.00  0.00     0.092 C 
HETATM    2 CL1  UNL     1      31.677  -6.514 -15.914  1.00  0.00    -0.111 Cl
HETATM    3  C9  UNL     1      31.568  -7.690 -13.498  1.00  0.00    -0.058 C 
HETATM    4  C10 UNL     1      31.876  -8.989 -13.564  1.00  0.00     0.017 C 
HETATM    5  C11 UNL     1      30.366  -7.394 -12.704  1.00  0.00     0.031 C 
HETATM    6  C12 UNL     1      29.235  -7.995 -13.485  1.00  0.00     0.043 C 
HETATM    7  C13 UNL     1      27.915  -7.662 -12.954  1.00  0.00    -0.088 C 
HETATM    8  C14 UNL     1      26.970  -8.564 -12.768  1.00  0.00     0.014 C 
HETATM    9  C15 UNL     1      27.688  -6.244 -12.634  1.00  0.00     0.034 C 
HETATM   10  C16 UNL     1      28.805  -5.549 -11.957  1.00  0.00     0.018 C 
HETATM   11  C17 UNL     1      30.217  -6.024 -12.154  1.00  0.00     0.004 C 
HETATM   12  C27 UNL     1      30.918  -4.993 -13.057  1.00  0.00     0.000 C 
HETATM   13  C28 UNL     1      30.003  -4.678 -14.228  1.00  0.00     0.019 C 
HETATM   14  C29 UNL     1      31.105  -3.655 -12.377  1.00  0.00     0.016 C 
HETATM   15  C30 UNL     1      31.416  -2.605 -13.464  1.00  0.00     0.032 C 
HETATM   16  C31 UNL     1      32.659  -2.935 -14.208  1.00  0.00     0.121 C 
HETATM   17  C32 UNL     1      32.759  -4.375 -14.618  1.00  0.00     0.072 C 
HETATM   18  C33 UNL     1      32.266  -5.370 -13.560  1.00  0.00     0.093 C 
ENDROOT
BRANCH  11  19
HETATM   19  C18 UNL     1      30.829  -5.965 -10.759  1.00  0.00     0.132 C 
BRANCH  19  20
HETATM   20  O2  UNL     1      30.168  -5.123  -9.875  1.00  0.00    -0.394 OA
ATOM     21  H2  UNL     1      29.977  -4.259 -10.221  1.00  0.00     0.210 HD
ENDBRANCH  19  20
BRANCH  19  22
HETATM   22  C19 UNL     1      31.204  -7.177 -10.040  1.00  0.00     0.011 C 
HETATM   23  C20 UNL     1      32.767  -7.070 -10.002  1.00  0.00     0.012 C 
BRANCH  22  24
HETATM   24  C21 UNL     1      30.879  -7.364  -8.614  1.00  0.00     0.009 C 
BRANCH  24  25
HETATM   25  C22 UNL     1      32.036  -6.914  -7.730  1.00  0.00     0.032 C 
BRANCH  25  26
HETATM   26  C23 UNL     1      31.469  -5.760  -6.888  1.00  0.00     0.121 C 
BRANCH  26  27
HETATM   27  O3  UNL     1      31.104  -6.203  -5.622  1.00  0.00    -0.395 OA
ATOM     28  H3  UNL     1      30.179  -6.057  -5.465  1.00  0.00     0.210 HD
ENDBRANCH  26  27
BRANCH  26  29
HETATM   29  C24 UNL     1      32.520  -4.689  -6.699  1.00  0.00     0.006 C 
HETATM   30  C25 UNL     1      32.861  -4.062  -8.051  1.00  0.00     0.012 C 
HETATM   31  C26 UNL     1      31.962  -3.620  -5.817  1.00  0.00     0.012 C 
ENDBRANCH  26  29
ENDBRANCH  25  26
ENDBRANCH  24  25
ENDBRANCH  22  24
ENDBRANCH  19  22
ENDBRANCH  11  19
BRANCH  18  32
HETATM   32  O5  UNL     1      33.261  -5.292 -12.607  1.00  0.00    -0.387 OA
ATOM     33  H5  UNL     1      33.966  -4.770 -12.972  1.00  0.00     0.210 HD
ENDBRANCH  18  32
BRANCH   1  34
HETATM   34  C7  UNL     1      33.728  -7.211 -14.502  1.00  0.00     0.036 C 
BRANCH  34  35
HETATM   35  C6  UNL     1      34.789  -7.244 -13.483  1.00  0.00     0.034 C 
BRANCH  35  36
HETATM   36  C4  UNL     1      35.699  -8.448 -13.846  1.00  0.00     0.117 C 
HETATM   37  C5  UNL     1      35.578  -8.669 -15.332  1.00  0.00     0.039 C 
BRANCH  36  38
HETATM   38  O1  UNL     1      35.260  -9.589 -13.219  1.00  0.00    -0.383 OA
BRANCH  38  39
HETATM   39  C3  UNL     1      35.089  -9.310 -11.865  1.00  0.00     0.194 C 
BRANCH  39  40
HETATM   40  C2  UNL     1      34.567 -10.467 -11.110  1.00  0.00    -0.011 C 
HETATM   41  C1  UNL     1      33.303 -10.552 -10.713  1.00  0.00     0.009 C 
ENDBRANCH  39  40
ENDBRANCH  38  39
ENDBRANCH  36  38
ENDBRANCH  35  36
ENDBRANCH  34  35
ENDBRANCH   1  34
BRANCH  16  42
HETATM   42  O4  UNL     1      33.774  -2.415 -13.596  1.00  0.00    -0.395 OA
ATOM     43  H4  UNL     1      34.541  -2.955 -13.743  1.00  0.00     0.210 HD
ENDBRANCH  16  42
TORSDOF 16
ENDMDL
