MODEL 1
REMARK VINA RESULT: -7.116267826      0.000      0.000
REMARK  16 active torsions:
REMARK  status: ('A' for Active; 'I' for Inactive)
REMARK    1  A    between atoms: C9_9  and  C10_10 
REMARK    2  A    between atoms: C10_10  and  C11_11 
REMARK    3  A    between atoms: C11_11  and  N1_14 
REMARK       I    between atoms: N1_14  and  C14_16 
REMARK    4  A    between atoms: C14_16  and  C15_18 
REMARK    5  A    between atoms: C15_18  and  C16_19 
REMARK    6  A    between atoms: C16_19  and  C17_20 
REMARK    7  A    between atoms: C17_20  and  C18_21 
REMARK    8  A    between atoms: C18_21  and  C19_22 
REMARK    9  A    between atoms: C19_22  and  C20_23 
REMARK   10  A    between atoms: C20_23  and  C21_24 
REMARK   11  A    between atoms: C21_24  and  C22_25 
REMARK   12  A    between atoms: C22_25  and  O3_27 
REMARK   13  A    between atoms: O3_27  and  C23_28 
REMARK   14  A    between atoms: C27_32  and  O4_33 
REMARK   15  A    between atoms: C29_36  and  O5_37 
REMARK   16  A    between atoms: C30_41  and  O6_42 
ROOT
HETATM    1  C20 UNL     1      31.687  -5.037  -8.151  1.00  0.00     0.010 C 
ENDROOT
BRANCH   1   2
HETATM    2  C19 UNL     1      32.771  -4.014  -8.289  1.00  0.00     0.000 C 
BRANCH   2   3
HETATM    3  C18 UNL     1      33.120  -3.749  -9.746  1.00  0.00     0.000 C 
BRANCH   3   4
HETATM    4  C17 UNL     1      32.092  -2.843 -10.392  1.00  0.00     0.000 C 
BRANCH   4   5
HETATM    5  C16 UNL     1      31.470  -3.470 -11.599  1.00  0.00     0.009 C 
BRANCH   5   6
HETATM    6  C15 UNL     1      31.322  -2.604 -12.791  1.00  0.00     0.103 C 
BRANCH   6   7
HETATM    7  C14 UNL     1      32.438  -2.594 -13.741  1.00  0.00     0.218 C 
HETATM    8  N1  UNL     1      33.588  -3.422 -13.578  1.00  0.00    -0.353 N 
ATOM      9  H1  UNL     1      33.596  -4.031 -12.760  1.00  0.00     0.163 HD
HETATM   10  O1  UNL     1      32.440  -1.853 -14.753  1.00  0.00    -0.274 OA
BRANCH   8  11
HETATM   11  C11 UNL     1      34.719  -3.491 -14.427  1.00  0.00     0.026 C 
HETATM   12  C12 UNL     1      35.395  -4.844 -13.965  1.00  0.00     0.038 C 
HETATM   13  C13 UNL     1      35.713  -2.427 -13.990  1.00  0.00     0.038 C 
BRANCH  11  14
HETATM   14  C10 UNL     1      34.596  -3.636 -15.873  1.00  0.00     0.040 C 
BRANCH  14  15
HETATM   15  C9  UNL     1      34.531  -4.901 -16.592  1.00  0.00     0.024 C 
HETATM   16  C2  UNL     1      33.217  -4.823 -17.401  1.00  0.00    -0.084 C 
HETATM   17  C1  UNL     1      32.078  -4.789 -16.725  1.00  0.00     0.014 C 
HETATM   18  C3  UNL     1      33.155  -4.784 -18.855  1.00  0.00     0.034 C 
HETATM   19  C4  UNL     1      34.384  -4.392 -19.584  1.00  0.00     0.005 C 
HETATM   20  C5  UNL     1      35.636  -4.385 -18.738  1.00  0.00     0.010 C 
HETATM   21  C6  UNL     1      35.528  -5.353 -17.568  1.00  0.00    -0.040 C 
HETATM   22  C7  UNL     1      34.973  -6.691 -18.135  1.00  0.00     0.015 C 
HETATM   23  C8  UNL     1      36.902  -5.669 -17.099  1.00  0.00     0.015 C 
ENDBRANCH  14  15
ENDBRANCH  11  14
ENDBRANCH   8  11
ENDBRANCH   6   7
ENDBRANCH   5   6
ENDBRANCH   4   5
ENDBRANCH   3   4
ENDBRANCH   2   3
ENDBRANCH   1   2
BRANCH   1  24
HETATM   24  C21 UNL     1      32.076  -6.276  -7.432  1.00  0.00     0.111 C 
BRANCH  24  25
HETATM   25  C22 UNL     1      31.830  -7.537  -8.121  1.00  0.00     0.259 C 
HETATM   26  O2  UNL     1      30.740  -8.113  -8.055  1.00  0.00    -0.265 OA
BRANCH  25  27
HETATM   27  O3  UNL     1      32.830  -8.119  -8.876  1.00  0.00    -0.312 OA
BRANCH  27  28
HETATM   28  C23 UNL     1      32.663  -8.457 -10.245  1.00  0.00     0.174 C 
HETATM   29  C24 UNL     1      33.565  -9.613 -10.529  1.00  0.00     0.017 C 
HETATM   30  C25 UNL     1      33.058 -10.524 -11.613  1.00  0.00     0.012 C 
HETATM   31  C26 UNL     1      34.967  -9.133 -10.758  1.00  0.00     0.043 C 
HETATM   32  C27 UNL     1      35.303  -8.943 -12.216  1.00  0.00     0.156 C 
HETATM   33  C28 UNL     1      34.255  -8.281 -12.972  1.00  0.00     0.035 A 
HETATM   34  C29 UNL     1      34.162  -8.281 -14.336  1.00  0.00     0.151 A 
HETATM   35  C31 UNL     1      33.186  -7.554 -12.515  1.00  0.00     0.042 A 
HETATM   36  N2  UNL     1      33.058  -7.568 -14.712  1.00  0.00    -0.317 N 
HETATM   37  C30 UNL     1      32.449  -7.115 -13.606  1.00  0.00     0.152 A 
ATOM     38  H2  UNL     1      32.749  -7.408 -15.671  1.00  0.00     0.170 HD
HETATM   39  C32 UNL     1      32.840  -7.260 -11.128  1.00  0.00     0.238 C 
HETATM   40  F1  UNL     1      31.670  -6.509 -11.057  1.00  0.00    -0.241 F 
BRANCH  32  41
HETATM   41  O4  UNL     1      36.444  -8.108 -12.256  1.00  0.00    -0.391 OA
ATOM     42  H4  UNL     1      36.453  -7.710 -13.119  1.00  0.00     0.210 HD
ENDBRANCH  32  41
BRANCH  34  43
HETATM   43  O5  UNL     1      34.993  -8.874 -15.276  1.00  0.00    -0.346 OA
ATOM     44  H5  UNL     1      35.024  -9.778 -15.568  1.00  0.00     0.219 HD
ENDBRANCH  34  43
BRANCH  37  45
HETATM   45  O6  UNL     1      31.299  -6.352 -13.566  1.00  0.00    -0.346 OA
ATOM     46  H6  UNL     1      30.613  -6.340 -14.222  1.00  0.00     0.219 HD
ENDBRANCH  37  45
ENDBRANCH  27  28
ENDBRANCH  25  27
ENDBRANCH  24  25
ENDBRANCH   1  24
TORSDOF 16
ENDMDL
MODEL 2
REMARK VINA RESULT: -7.115949734      0.938      2.171
REMARK  16 active torsions:
REMARK  status: ('A' for Active; 'I' for Inactive)
REMARK    1  A    between atoms: C9_9  and  C10_10 
REMARK    2  A    between atoms: C10_10  and  C11_11 
REMARK    3  A    between atoms: C11_11  and  N1_14 
REMARK       I    between atoms: N1_14  and  C14_16 
REMARK    4  A    between atoms: C14_16  and  C15_18 
REMARK    5  A    between atoms: C15_18  and  C16_19 
REMARK    6  A    between atoms: C16_19  and  C17_20 
REMARK    7  A    between atoms: C17_20  and  C18_21 
REMARK    8  A    between atoms: C18_21  and  C19_22 
REMARK    9  A    between atoms: C19_22  and  C20_23 
REMARK   10  A    between atoms: C20_23  and  C21_24 
REMARK   11  A    between atoms: C21_24  and  C22_25 
REMARK   12  A    between atoms: C22_25  and  O3_27 
REMARK   13  A    between atoms: O3_27  and  C23_28 
REMARK   14  A    between atoms: C27_32  and  O4_33 
REMARK   15  A    between atoms: C29_36  and  O5_37 
REMARK   16  A    between atoms: C30_41  and  O6_42 
ROOT
HETATM    1  C20 UNL     1      31.685  -5.013  -8.108  1.00  0.00     0.010 C 
ENDROOT
BRANCH   1   2
HETATM    2  C19 UNL     1      32.763  -3.991  -8.295  1.00  0.00     0.000 C 
BRANCH   2   3
HETATM    3  C18 UNL     1      33.109  -3.793  -9.763  1.00  0.00     0.000 C 
BRANCH   3   4
HETATM    4  C17 UNL     1      32.149  -2.820 -10.418  1.00  0.00     0.000 C 
BRANCH   4   5
HETATM    5  C16 UNL     1      31.387  -3.451 -11.539  1.00  0.00     0.009 C 
BRANCH   5   6
HETATM    6  C15 UNL     1      30.858  -2.534 -12.575  1.00  0.00     0.103 C 
BRANCH   6   7
HETATM    7  C14 UNL     1      31.375  -2.708 -13.936  1.00  0.00     0.218 C 
HETATM    8  N1  UNL     1      31.023  -3.824 -14.750  1.00  0.00    -0.353 N 
ATOM      9  H1  UNL     1      30.384  -4.503 -14.338  1.00  0.00     0.163 HD
HETATM   10  O1  UNL     1      32.160  -1.879 -14.456  1.00  0.00    -0.274 OA
BRANCH   8  11
HETATM   11  C11 UNL     1      31.464  -4.092 -16.069  1.00  0.00     0.026 C 
HETATM   12  C12 UNL     1      30.727  -2.965 -16.898  1.00  0.00     0.038 C 
HETATM   13  C13 UNL     1      30.802  -5.376 -16.545  1.00  0.00     0.038 C 
BRANCH  11  14
HETATM   14  C10 UNL     1      32.861  -3.960 -16.462  1.00  0.00     0.040 C 
BRANCH  14  15
HETATM   15  C9  UNL     1      33.942  -4.846 -16.050  1.00  0.00     0.024 C 
HETATM   16  C2  UNL     1      34.825  -4.996 -17.309  1.00  0.00    -0.084 C 
HETATM   17  C1  UNL     1      34.302  -5.610 -18.360  1.00  0.00     0.014 C 
HETATM   18  C3  UNL     1      36.192  -4.505 -17.411  1.00  0.00     0.034 C 
HETATM   19  C4  UNL     1      36.624  -3.471 -16.441  1.00  0.00     0.005 C 
HETATM   20  C5  UNL     1      35.686  -3.282 -15.272  1.00  0.00     0.010 C 
HETATM   21  C6  UNL     1      34.895  -4.549 -14.975  1.00  0.00    -0.040 C 
HETATM   22  C7  UNL     1      35.907  -5.730 -14.985  1.00  0.00     0.015 C 
HETATM   23  C8  UNL     1      34.400  -4.472 -13.577  1.00  0.00     0.015 C 
ENDBRANCH  14  15
ENDBRANCH  11  14
ENDBRANCH   8  11
ENDBRANCH   6   7
ENDBRANCH   5   6
ENDBRANCH   4   5
ENDBRANCH   3   4
ENDBRANCH   2   3
ENDBRANCH   1   2
BRANCH   1  24
HETATM   24  C21 UNL     1      32.067  -6.190  -7.286  1.00  0.00     0.111 C 
BRANCH  24  25
HETATM   25  C22 UNL     1      31.873  -7.501  -7.891  1.00  0.00     0.259 C 
HETATM   26  O2  UNL     1      30.843  -8.157  -7.706  1.00  0.00    -0.265 OA
BRANCH  25  27
HETATM   27  O3  UNL     1      32.854  -8.043  -8.699  1.00  0.00    -0.312 OA
BRANCH  27  28
HETATM   28  C23 UNL     1      32.613  -8.444 -10.040  1.00  0.00     0.174 C 
HETATM   29  C24 UNL     1      33.531  -9.583 -10.333  1.00  0.00     0.017 C 
HETATM   30  C25 UNL     1      32.987 -10.555 -11.345  1.00  0.00     0.012 C 
HETATM   31  C26 UNL     1      34.900  -9.073 -10.670  1.00  0.00     0.043 C 
HETATM   32  C27 UNL     1      35.138  -8.936 -12.152  1.00  0.00     0.156 C 
HETATM   33  C28 UNL     1      34.025  -8.338 -12.867  1.00  0.00     0.035 A 
HETATM   34  C29 UNL     1      33.847  -8.399 -14.222  1.00  0.00     0.151 A 
HETATM   35  C31 UNL     1      32.965  -7.623 -12.373  1.00  0.00     0.042 A 
HETATM   36  N2  UNL     1      32.700  -7.735 -14.555  1.00  0.00    -0.317 N 
HETATM   37  C30 UNL     1      32.147  -7.253 -13.432  1.00  0.00     0.152 A 
ATOM     38  H2  UNL     1      32.327  -7.625 -15.499  1.00  0.00     0.170 HD
HETATM   39  C32 UNL     1      32.696  -7.281 -10.980  1.00  0.00     0.238 C 
HETATM   40  F1  UNL     1      31.510  -6.561 -10.865  1.00  0.00    -0.241 F 
BRANCH  32  41
HETATM   41  O4  UNL     1      36.247  -8.071 -12.299  1.00  0.00    -0.391 OA
ATOM     42  H4  UNL     1      35.902  -7.243 -12.611  1.00  0.00     0.210 HD
ENDBRANCH  32  41
BRANCH  34  43
HETATM   43  O5  UNL     1      34.636  -9.007 -15.187  1.00  0.00    -0.346 OA
ATOM     44  H5  UNL     1      34.942  -8.665 -16.018  1.00  0.00     0.219 HD
ENDBRANCH  34  43
BRANCH  37  45
HETATM   45  O6  UNL     1      30.978  -6.523 -13.350  1.00  0.00    -0.346 OA
ATOM     46  H6  UNL     1      30.698  -5.997 -12.610  1.00  0.00     0.219 HD
ENDBRANCH  37  45
ENDBRANCH  27  28
ENDBRANCH  25  27
ENDBRANCH  24  25
ENDBRANCH   1  24
TORSDOF 16
ENDMDL
MODEL 3
REMARK VINA RESULT: -7.108698859      2.567      6.472
REMARK  16 active torsions:
REMARK  status: ('A' for Active; 'I' for Inactive)
REMARK    1  A    between atoms: C9_9  and  C10_10 
REMARK    2  A    between atoms: C10_10  and  C11_11 
REMARK    3  A    between atoms: C11_11  and  N1_14 
REMARK       I    between atoms: N1_14  and  C14_16 
REMARK    4  A    between atoms: C14_16  and  C15_18 
REMARK    5  A    between atoms: C15_18  and  C16_19 
REMARK    6  A    between atoms: C16_19  and  C17_20 
REMARK    7  A    between atoms: C17_20  and  C18_21 
REMARK    8  A    between atoms: C18_21  and  C19_22 
REMARK    9  A    between atoms: C19_22  and  C20_23 
REMARK   10  A    between atoms: C20_23  and  C21_24 
REMARK   11  A    between atoms: C21_24  and  C22_25 
REMARK   12  A    between atoms: C22_25  and  O3_27 
REMARK   13  A    between atoms: O3_27  and  C23_28 
REMARK   14  A    between atoms: C27_32  and  O4_33 
REMARK   15  A    between atoms: C29_36  and  O5_37 
REMARK   16  A    between atoms: C30_41  and  O6_42 
ROOT
HETATM    1  C20 UNL     1      32.352  -2.939  -9.704  1.00  0.00     0.010 C 
ENDROOT
BRANCH   1   2
HETATM    2  C19 UNL     1      32.633  -4.376  -9.392  1.00  0.00     0.000 C 
BRANCH   2   3
HETATM    3  C18 UNL     1      32.404  -4.693  -7.922  1.00  0.00     0.000 C 
BRANCH   3   4
HETATM    4  C17 UNL     1      31.182  -5.572  -7.742  1.00  0.00     0.000 C 
BRANCH   4   5
HETATM    5  C16 UNL     1      30.838  -6.319  -8.992  1.00  0.00     0.009 C 
BRANCH   5   6
HETATM    6  C15 UNL     1      31.118  -7.773  -8.989  1.00  0.00     0.103 C 
BRANCH   6   7
HETATM    7  C14 UNL     1      32.303  -8.218  -9.729  1.00  0.00     0.218 C 
HETATM    8  N1  UNL     1      32.211  -8.971 -10.936  1.00  0.00    -0.353 N 
ATOM      9  H1  UNL     1      31.271  -9.186 -11.268  1.00  0.00     0.163 HD
HETATM   10  O1  UNL     1      33.464  -7.959  -9.335  1.00  0.00    -0.274 OA
BRANCH   8  11
HETATM   11  C11 UNL     1      33.283  -9.453 -11.726  1.00  0.00     0.026 C 
HETATM   12  C12 UNL     1      32.621 -10.685 -12.464  1.00  0.00     0.038 C 
HETATM   13  C13 UNL     1      34.307 -10.096 -10.804  1.00  0.00     0.038 C 
BRANCH  11  14
HETATM   14  C10 UNL     1      33.865  -8.667 -12.808  1.00  0.00     0.040 C 
BRANCH  14  15
HETATM   15  C9  UNL     1      34.185  -7.247 -12.742  1.00  0.00     0.024 C 
HETATM   16  C2  UNL     1      35.474  -7.099 -13.582  1.00  0.00    -0.084 C 
HETATM   17  C1  UNL     1      36.573  -7.688 -13.135  1.00  0.00     0.014 C 
HETATM   18  C3  UNL     1      35.553  -6.355 -14.831  1.00  0.00     0.034 C 
HETATM   19  C4  UNL     1      34.284  -6.071 -15.542  1.00  0.00     0.005 C 
HETATM   20  C5  UNL     1      33.040  -6.321 -14.723  1.00  0.00     0.010 C 
HETATM   21  C6  UNL     1      33.311  -6.176 -13.231  1.00  0.00    -0.040 C 
HETATM   22  C7  UNL     1      34.124  -4.863 -13.043  1.00  0.00     0.015 C 
HETATM   23  C8  UNL     1      32.016  -5.934 -12.544  1.00  0.00     0.015 C 
ENDBRANCH  14  15
ENDBRANCH  11  14
ENDBRANCH   8  11
ENDBRANCH   6   7
ENDBRANCH   5   6
ENDBRANCH   4   5
ENDBRANCH   3   4
ENDBRANCH   2   3
ENDBRANCH   1   2
BRANCH   1  24
HETATM   24  C21 UNL     1      32.256  -2.615 -11.150  1.00  0.00     0.111 C 
BRANCH  24  25
HETATM   25  C22 UNL     1      31.079  -1.869 -11.576  1.00  0.00     0.259 C 
HETATM   26  O2  UNL     1      30.791  -0.772 -11.087  1.00  0.00    -0.265 OA
BRANCH  25  27
HETATM   27  O3  UNL     1      30.250  -2.383 -12.554  1.00  0.00    -0.312 OA
BRANCH  27  28
HETATM   28  C23 UNL     1      30.742  -3.020 -13.724  1.00  0.00     0.174 C 
HETATM   29  C24 UNL     1      31.506  -1.997 -14.497  1.00  0.00     0.017 C 
HETATM   30  C25 UNL     1      32.630  -2.572 -15.316  1.00  0.00     0.012 C 
HETATM   31  C26 UNL     1      30.567  -1.137 -15.289  1.00  0.00     0.043 C 
HETATM   32  C27 UNL     1      30.394  -1.598 -16.714  1.00  0.00     0.156 C 
HETATM   33  C28 UNL     1      30.230  -3.034 -16.844  1.00  0.00     0.035 A 
HETATM   34  C29 UNL     1      30.381  -3.732 -18.011  1.00  0.00     0.151 A 
HETATM   35  C31 UNL     1      29.908  -3.958 -15.883  1.00  0.00     0.042 A 
HETATM   36  N2  UNL     1      30.158  -5.059 -17.774  1.00  0.00    -0.317 N 
HETATM   37  C30 UNL     1      29.866  -5.214 -16.474  1.00  0.00     0.152 A 
ATOM     38  H2  UNL     1      30.204  -5.806 -18.468  1.00  0.00     0.170 HD
HETATM   39  C32 UNL     1      29.644  -3.714 -14.470  1.00  0.00     0.238 C 
HETATM   40  F1  UNL     1      29.370  -4.905 -13.803  1.00  0.00    -0.241 F 
BRANCH  32  41
HETATM   41  O4  UNL     1      29.206  -0.993 -17.186  1.00  0.00    -0.391 OA
ATOM     42  H4  UNL     1      29.160  -1.183 -18.116  1.00  0.00     0.210 HD
ENDBRANCH  32  41
BRANCH  34  43
HETATM   43  O5  UNL     1      30.707  -3.270 -19.278  1.00  0.00    -0.346 OA
ATOM     44  H5  UNL     1      30.697  -3.730 -20.108  1.00  0.00     0.219 HD
ENDBRANCH  34  43
BRANCH  37  45
HETATM   45  O6  UNL     1      29.577  -6.408 -15.841  1.00  0.00    -0.346 OA
ATOM     46  H6  UNL     1      29.289  -7.209 -16.263  1.00  0.00     0.219 HD
ENDBRANCH  37  45
ENDBRANCH  27  28
ENDBRANCH  25  27
ENDBRANCH  24  25
ENDBRANCH   1  24
TORSDOF 16
ENDMDL
MODEL 4
REMARK VINA RESULT: -7.018419803      2.244      5.772
REMARK  16 active torsions:
REMARK  status: ('A' for Active; 'I' for Inactive)
REMARK    1  A    between atoms: C9_9  and  C10_10 
REMARK    2  A    between atoms: C10_10  and  C11_11 
REMARK    3  A    between atoms: C11_11  and  N1_14 
REMARK       I    between atoms: N1_14  and  C14_16 
REMARK    4  A    between atoms: C14_16  and  C15_18 
REMARK    5  A    between atoms: C15_18  and  C16_19 
REMARK    6  A    between atoms: C16_19  and  C17_20 
REMARK    7  A    between atoms: C17_20  and  C18_21 
REMARK    8  A    between atoms: C18_21  and  C19_22 
REMARK    9  A    between atoms: C19_22  and  C20_23 
REMARK   10  A    between atoms: C20_23  and  C21_24 
REMARK   11  A    between atoms: C21_24  and  C22_25 
REMARK   12  A    between atoms: C22_25  and  O3_27 
REMARK   13  A    between atoms: O3_27  and  C23_28 
REMARK   14  A    between atoms: C27_32  and  O4_33 
REMARK   15  A    between atoms: C29_36  and  O5_37 
REMARK   16  A    between atoms: C30_41  and  O6_42 
ROOT
HETATM    1  C20 UNL     1      30.179  -7.472 -13.807  1.00  0.00     0.010 C 
ENDROOT
BRANCH   1   2
HETATM    2  C19 UNL     1      31.350  -8.401 -13.900  1.00  0.00     0.000 C 
BRANCH   2   3
HETATM    3  C18 UNL     1      31.901  -8.759 -12.528  1.00  0.00     0.000 C 
BRANCH   3   4
HETATM    4  C17 UNL     1      32.515 -10.144 -12.538  1.00  0.00     0.000 C 
BRANCH   4   5
HETATM    5  C16 UNL     1      33.298 -10.421 -11.294  1.00  0.00     0.009 C 
BRANCH   5   6
HETATM    6  C15 UNL     1      34.773 -10.405 -11.424  1.00  0.00     0.103 C 
BRANCH   6   7
HETATM    7  C14 UNL     1      35.356  -9.298 -12.189  1.00  0.00     0.218 C 
HETATM    8  N1  UNL     1      35.059  -9.082 -13.567  1.00  0.00    -0.353 N 
ATOM      9  H1  UNL     1      34.412  -9.740 -14.001  1.00  0.00     0.163 HD
HETATM   10  O1  UNL     1      36.149  -8.480 -11.667  1.00  0.00    -0.274 OA
BRANCH   8  11
HETATM   11  C11 UNL     1      35.564  -8.053 -14.398  1.00  0.00     0.026 C 
HETATM   12  C12 UNL     1      34.639  -8.178 -15.675  1.00  0.00     0.038 C 
HETATM   13  C13 UNL     1      36.934  -8.476 -14.907  1.00  0.00     0.038 C 
BRANCH  11  14
HETATM   14  C10 UNL     1      35.472  -6.645 -14.034  1.00  0.00     0.040 C 
BRANCH  14  15
HETATM   15  C9  UNL     1      34.580  -5.670 -14.649  1.00  0.00     0.024 C 
HETATM   16  C2  UNL     1      34.022  -4.850 -13.463  1.00  0.00    -0.084 C 
HETATM   17  C1  UNL     1      33.247  -5.476 -12.591  1.00  0.00     0.014 C 
HETATM   18  C3  UNL     1      34.297  -3.437 -13.248  1.00  0.00     0.034 C 
HETATM   19  C4  UNL     1      35.470  -2.852 -13.941  1.00  0.00     0.005 C 
HETATM   20  C5  UNL     1      36.050  -3.724 -15.029  1.00  0.00     0.010 C 
HETATM   21  C6  UNL     1      35.002  -4.657 -15.621  1.00  0.00    -0.040 C 
HETATM   22  C7  UNL     1      33.734  -3.799 -15.897  1.00  0.00     0.015 C 
HETATM   23  C8  UNL     1      35.473  -5.097 -16.959  1.00  0.00     0.015 C 
ENDBRANCH  14  15
ENDBRANCH  11  14
ENDBRANCH   8  11
ENDBRANCH   6   7
ENDBRANCH   5   6
ENDBRANCH   4   5
ENDBRANCH   3   4
ENDBRANCH   2   3
ENDBRANCH   1   2
BRANCH   1  24
HETATM   24  C21 UNL     1      29.158  -7.844 -12.795  1.00  0.00     0.111 C 
BRANCH  24  25
HETATM   25  C22 UNL     1      28.931  -6.892 -11.715  1.00  0.00     0.259 C 
HETATM   26  O2  UNL     1      28.206  -5.903 -11.861  1.00  0.00    -0.265 OA
BRANCH  25  27
HETATM   27  O3  UNL     1      29.532  -7.083 -10.486  1.00  0.00    -0.312 OA
BRANCH  27  28
HETATM   28  C23 UNL     1      30.791  -6.520 -10.149  1.00  0.00     0.174 C 
HETATM   29  C24 UNL     1      31.400  -7.392  -9.100  1.00  0.00     0.017 C 
HETATM   30  C25 UNL     1      32.903  -7.408  -9.124  1.00  0.00     0.012 C 
HETATM   31  C26 UNL     1      30.826  -7.062  -7.755  1.00  0.00     0.043 C 
HETATM   32  C27 UNL     1      31.671  -6.094  -6.966  1.00  0.00     0.156 C 
HETATM   33  C28 UNL     1      32.169  -4.981  -7.754  1.00  0.00     0.035 A 
HETATM   34  C29 UNL     1      33.198  -4.162  -7.381  1.00  0.00     0.151 A 
HETATM   35  C31 UNL     1      31.744  -4.530  -8.978  1.00  0.00     0.042 A 
HETATM   36  N2  UNL     1      33.404  -3.225  -8.355  1.00  0.00    -0.317 N 
HETATM   37  C30 UNL     1      32.519  -3.437  -9.341  1.00  0.00     0.152 A 
ATOM     38  H2  UNL     1      34.111  -2.489  -8.336  1.00  0.00     0.170 HD
HETATM   39  C32 UNL     1      30.664  -5.070  -9.797  1.00  0.00     0.238 C 
HETATM   40  F1  UNL     1      30.540  -4.358 -10.987  1.00  0.00    -0.241 F 
BRANCH  32  41
HETATM   41  O4  UNL     1      30.832  -5.558  -5.962  1.00  0.00    -0.391 OA
ATOM     42  H4  UNL     1      30.783  -4.624  -6.125  1.00  0.00     0.210 HD
ENDBRANCH  32  41
BRANCH  34  43
HETATM   43  O5  UNL     1      33.973  -4.189  -6.230  1.00  0.00    -0.346 OA
ATOM     44  H5  UNL     1      34.560  -3.528  -5.883  1.00  0.00     0.219 HD
ENDBRANCH  34  43
BRANCH  37  45
HETATM   45  O6  UNL     1      32.405  -2.701 -10.503  1.00  0.00    -0.346 OA
ATOM     46  H6  UNL     1      32.266  -3.050 -11.376  1.00  0.00     0.219 HD
ENDBRANCH  37  45
ENDBRANCH  27  28
ENDBRANCH  25  27
ENDBRANCH  24  25
ENDBRANCH   1  24
TORSDOF 16
ENDMDL
MODEL 5
REMARK VINA RESULT: -6.985519702      2.443      5.888
REMARK  16 active torsions:
REMARK  status: ('A' for Active; 'I' for Inactive)
REMARK    1  A    between atoms: C9_9  and  C10_10 
REMARK    2  A    between atoms: C10_10  and  C11_11 
REMARK    3  A    between atoms: C11_11  and  N1_14 
REMARK       I    between atoms: N1_14  and  C14_16 
REMARK    4  A    between atoms: C14_16  and  C15_18 
REMARK    5  A    between atoms: C15_18  and  C16_19 
REMARK    6  A    between atoms: C16_19  and  C17_20 
REMARK    7  A    between atoms: C17_20  and  C18_21 
REMARK    8  A    between atoms: C18_21  and  C19_22 
REMARK    9  A    between atoms: C19_22  and  C20_23 
REMARK   10  A    between atoms: C20_23  and  C21_24 
REMARK   11  A    between atoms: C21_24  and  C22_25 
REMARK   12  A    between atoms: C22_25  and  O3_27 
REMARK   13  A    between atoms: O3_27  and  C23_28 
REMARK   14  A    between atoms: C27_32  and  O4_33 
REMARK   15  A    between atoms: C29_36  and  O5_37 
REMARK   16  A    between atoms: C30_41  and  O6_42 
ROOT
HETATM    1  C20 UNL     1      35.655  -7.851 -12.929  1.00  0.00     0.010 C 
ENDROOT
BRANCH   1   2
HETATM    2  C19 UNL     1      35.948  -8.490 -14.251  1.00  0.00     0.000 C 
BRANCH   2   3
HETATM    3  C18 UNL     1      37.162  -7.870 -14.925  1.00  0.00     0.000 C 
BRANCH   3   4
HETATM    4  C17 UNL     1      36.865  -7.536 -16.373  1.00  0.00     0.000 C 
BRANCH   4   5
HETATM    5  C16 UNL     1      37.333  -6.164 -16.741  1.00  0.00     0.009 C 
BRANCH   5   6
HETATM    6  C15 UNL     1      36.370  -5.314 -17.478  1.00  0.00     0.103 C 
BRANCH   6   7
HETATM    7  C14 UNL     1      35.418  -4.545 -16.671  1.00  0.00     0.218 C 
HETATM    8  N1  UNL     1      35.683  -4.179 -15.319  1.00  0.00    -0.353 N 
ATOM      9  H1  UNL     1      36.579  -4.479 -14.934  1.00  0.00     0.163 HD
HETATM   10  O1  UNL     1      34.314  -4.167 -17.132  1.00  0.00    -0.274 OA
BRANCH   8  11
HETATM   11  C11 UNL     1      34.838  -3.445 -14.451  1.00  0.00     0.026 C 
HETATM   12  C12 UNL     1      35.341  -1.963 -14.680  1.00  0.00     0.038 C 
HETATM   13  C13 UNL     1      35.248  -3.744 -13.017  1.00  0.00     0.038 C 
BRANCH  11  14
HETATM   14  C10 UNL     1      33.398  -3.363 -14.655  1.00  0.00     0.040 C 
BRANCH  14  15
HETATM   15  C9  UNL     1      32.409  -4.255 -14.064  1.00  0.00     0.024 C 
HETATM   16  C2  UNL     1      31.172  -3.361 -13.823  1.00  0.00    -0.084 C 
HETATM   17  C1  UNL     1      31.281  -2.383 -12.936  1.00  0.00     0.014 C 
HETATM   18  C3  UNL     1      29.899  -3.527 -14.510  1.00  0.00     0.034 C 
HETATM   19  C4  UNL     1      29.896  -4.305 -15.772  1.00  0.00     0.005 C 
HETATM   20  C5  UNL     1      31.162  -5.090 -16.024  1.00  0.00     0.010 C 
HETATM   21  C6  UNL     1      31.868  -5.449 -14.723  1.00  0.00    -0.040 C 
HETATM   22  C7  UNL     1      30.784  -5.999 -13.753  1.00  0.00     0.015 C 
HETATM   23  C8  UNL     1      32.773  -6.597 -14.987  1.00  0.00     0.015 C 
ENDBRANCH  14  15
ENDBRANCH  11  14
ENDBRANCH   8  11
ENDBRANCH   6   7
ENDBRANCH   5   6
ENDBRANCH   4   5
ENDBRANCH   3   4
ENDBRANCH   2   3
ENDBRANCH   1   2
BRANCH   1  24
HETATM   24  C21 UNL     1      34.765  -8.632 -12.034  1.00  0.00     0.111 C 
BRANCH  24  25
HETATM   25  C22 UNL     1      33.449  -8.067 -11.765  1.00  0.00     0.259 C 
HETATM   26  O2  UNL     1      32.411  -8.694 -12.000  1.00  0.00    -0.265 OA
BRANCH  25  27
HETATM   27  O3  UNL     1      33.336  -6.798 -11.232  1.00  0.00    -0.312 OA
BRANCH  27  28
HETATM   28  C23 UNL     1      32.354  -6.452 -10.267  1.00  0.00     0.174 C 
HETATM   29  C24 UNL     1      32.062  -4.997 -10.433  1.00  0.00     0.017 C 
HETATM   30  C25 UNL     1      30.657  -4.614 -10.056  1.00  0.00     0.012 C 
HETATM   31  C26 UNL     1      33.111  -4.176  -9.744  1.00  0.00     0.043 C 
HETATM   32  C27 UNL     1      32.720  -3.754  -8.351  1.00  0.00     0.156 C 
HETATM   33  C28 UNL     1      32.107  -4.815  -7.573  1.00  0.00     0.035 A 
HETATM   34  C29 UNL     1      31.379  -4.622  -6.431  1.00  0.00     0.151 A 
HETATM   35  C31 UNL     1      32.118  -6.168  -7.796  1.00  0.00     0.042 A 
HETATM   36  N2  UNL     1      30.950  -5.831  -5.960  1.00  0.00    -0.317 N 
HETATM   37  C30 UNL     1      31.395  -6.789  -6.787  1.00  0.00     0.152 A 
ATOM     38  H2  UNL     1      30.387  -5.980  -5.123  1.00  0.00     0.170 HD
HETATM   39  C32 UNL     1      32.764  -6.881  -8.892  1.00  0.00     0.238 C 
HETATM   40  F1  UNL     1      32.538  -8.252  -8.794  1.00  0.00    -0.241 F 
BRANCH  32  41
HETATM   41  O4  UNL     1      33.918  -3.387  -7.695  1.00  0.00    -0.391 OA
ATOM     42  H4  UNL     1      34.182  -4.140  -7.180  1.00  0.00     0.210 HD
ENDBRANCH  32  41
BRANCH  34  43
HETATM   43  O5  UNL     1      31.068  -3.439  -5.775  1.00  0.00    -0.346 OA
ATOM     44  H5  UNL     1      30.586  -3.308  -4.967  1.00  0.00     0.219 HD
ENDBRANCH  34  43
BRANCH  37  45
HETATM   45  O6  UNL     1      31.172  -8.146  -6.654  1.00  0.00    -0.346 OA
ATOM     46  H6  UNL     1      31.567  -8.832  -7.179  1.00  0.00     0.219 HD
ENDBRANCH  37  45
ENDBRANCH  27  28
ENDBRANCH  25  27
ENDBRANCH  24  25
ENDBRANCH   1  24
TORSDOF 16
ENDMDL
