MODEL 1
REMARK VINA RESULT: -8.042932563      0.000      0.000
REMARK  14 active torsions:
REMARK  status: ('A' for Active; 'I' for Inactive)
REMARK    1  A    between atoms: N1_2  and  C2_5 
REMARK    2  A    between atoms: C2_5  and  C3_6 
REMARK    3  A    between atoms: C3_6  and  C4_7 
REMARK    4  A    between atoms: C4_7  and  N2_8 
REMARK    5  A    between atoms: N2_8  and  C5_10 
REMARK    6  A    between atoms: C5_10  and  C6_11 
REMARK    7  A    between atoms: C6_11  and  C7_12 
REMARK    8  A    between atoms: C10_15  and  C12_17 
REMARK    9  A    between atoms: C12_17  and  N3_18 
REMARK   10  A    between atoms: C23_33  and  O1_34 
REMARK   11  A    between atoms: O1_34  and  C24_35 
REMARK   12  A    between atoms: C24_35  and  C25_36 
REMARK   13  A    between atoms: C29_40  and  C30_41 
REMARK   14  A    between atoms: C30_41  and  O2_42 
ROOT
HETATM    1  C5  UNL     1      29.895  -8.983 -15.154  1.00  0.00     0.198 C 
HETATM    2  C15 UNL     1      31.153  -8.234 -14.633  1.00  0.00     0.105 C 
HETATM    3  C16 UNL     1      30.720  -7.094 -15.445  1.00  0.00     0.160 C 
HETATM    4  C17 UNL     1      31.450  -6.868 -16.758  1.00  0.00     0.044 C 
HETATM    5  C18 UNL     1      30.829  -5.843 -17.648  1.00  0.00     0.007 C 
HETATM    6  C19 UNL     1      29.866  -4.944 -16.941  1.00  0.00     0.042 C 
HETATM    7  C20 UNL     1      30.308  -4.705 -15.553  1.00  0.00    -0.011 A 
HETATM    8  C21 UNL     1      30.292  -3.399 -15.044  1.00  0.00     0.126 A 
HETATM    9  F1  UNL     1      29.878  -2.371 -15.843  1.00  0.00    -0.205 F 
HETATM   10  C22 UNL     1      30.701  -3.230 -13.747  1.00  0.00     0.079 A 
HETATM   11  C23 UNL     1      31.121  -4.250 -12.921  1.00  0.00     0.072 A 
HETATM   12  C34 UNL     1      31.118  -5.537 -13.479  1.00  0.00     0.047 A 
HETATM   13  C35 UNL     1      30.720  -5.760 -14.769  1.00  0.00    -0.010 A 
HETATM   14  N4  UNL     1      29.413  -7.622 -15.561  1.00  0.00    -0.036 N 
ATOM     15  H41 UNL     1      28.647  -7.185 -15.047  1.00  0.00     0.281 HD
ATOM     16  H42 UNL     1      28.902  -7.511 -16.437  1.00  0.00     0.281 HD
ENDROOT
BRANCH   1  17
HETATM   17  N2  UNL     1      30.141  -9.689 -16.326  1.00  0.00    -0.391 N 
ATOM     18  H2  UNL     1      31.057 -10.126 -16.421  1.00  0.00     0.155 HD
BRANCH  17  19
HETATM   19  C4  UNL     1      29.254  -9.853 -17.377  1.00  0.00     0.118 C 
BRANCH  19  20
HETATM   20  C3  UNL     1      28.562 -11.231 -17.149  1.00  0.00     0.047 C 
BRANCH  20  21
HETATM   21  C2  UNL     1      27.088 -11.099 -17.437  1.00  0.00     0.233 C 
BRANCH  21  22
HETATM   22  N1  UNL     1      26.448 -12.340 -17.049  1.00  0.00    -0.079 N 
HETATM   23  C1  UNL     1      25.000 -12.227 -17.120  1.00  0.00     0.266 C 
ATOM     24  H12 UNL     1      26.755 -12.647 -16.126  1.00  0.00     0.276 HD
ATOM     25  H11 UNL     1      26.791 -13.127 -17.599  1.00  0.00     0.276 HD
ENDBRANCH  21  22
ENDBRANCH  20  21
ENDBRANCH  19  20
ENDBRANCH  17  19
ENDBRANCH   1  17
BRANCH   1  26
HETATM   26  C6  UNL     1      29.000  -9.384 -14.046  1.00  0.00     0.066 C 
BRANCH  26  27
HETATM   27  C7  UNL     1      27.537  -9.382 -14.105  1.00  0.00    -0.010 C 
HETATM   28  C8  UNL     1      27.141 -10.841 -13.662  1.00  0.00     0.005 C 
HETATM   29  C9  UNL     1      25.655 -10.946 -13.604  1.00  0.00     0.011 C 
HETATM   30  C10 UNL     1      25.100 -10.127 -12.456  1.00  0.00    -0.020 C 
HETATM   31  C11 UNL     1      23.960  -9.253 -12.900  1.00  0.00     0.017 C 
HETATM   32  C13 UNL     1      26.229  -9.332 -11.906  1.00  0.00     0.011 C 
HETATM   33  C14 UNL     1      27.002  -8.569 -12.907  1.00  0.00     0.005 C 
BRANCH  30  34
HETATM   34  C12 UNL     1      24.574 -11.053 -11.354  1.00  0.00     0.238 C 
BRANCH  34  35
HETATM   35  N3  UNL     1      25.525 -12.058 -11.001  1.00  0.00    -0.079 N 
ATOM     36  H33 UNL     1      25.619 -12.754 -11.740  1.00  0.00     0.274 HD
ATOM     37  H32 UNL     1      26.475 -11.687 -11.008  1.00  0.00     0.274 HD
ATOM     38  H31 UNL     1      25.304 -12.495 -10.106  1.00  0.00     0.274 HD
ENDBRANCH  34  35
ENDBRANCH  30  34
ENDBRANCH  26  27
ENDBRANCH   1  26
BRANCH  11  39
HETATM   39  O1  UNL     1      31.533  -4.068 -11.610  1.00  0.00    -0.347 OA
BRANCH  39  40
HETATM   40  C24 UNL     1      32.404  -4.988 -11.027  1.00  0.00     0.215 C 
BRANCH  40  41
HETATM   41  C25 UNL     1      32.147  -5.374  -9.653  1.00  0.00    -0.022 A 
HETATM   42  C26 UNL     1      31.480  -6.562  -9.424  1.00  0.00    -0.052 A 
HETATM   43  C27 UNL     1      31.055  -7.432 -10.569  1.00  0.00     0.049 C 
HETATM   44  C28 UNL     1      31.199  -6.963  -8.121  1.00  0.00     0.016 A 
HETATM   45  C29 UNL     1      31.570  -6.202  -7.042  1.00  0.00    -0.034 A 
HETATM   46  C31 UNL     1      32.233  -5.020  -7.283  1.00  0.00     0.016 A 
HETATM   47  C32 UNL     1      32.522  -4.607  -8.590  1.00  0.00    -0.052 A 
HETATM   48  C33 UNL     1      33.249  -3.317  -8.716  1.00  0.00     0.049 C 
BRANCH  45  49
HETATM   49  C30 UNL     1      31.268  -6.632  -5.630  1.00  0.00     0.202 C 
BRANCH  49  50
HETATM   50  O2  UNL     1      31.314  -5.575  -4.759  1.00  0.00    -0.396 OA
ATOM     51  H2  UNL     1      32.077  -5.621  -4.195  1.00  0.00     0.209 HD
ENDBRANCH  49  50
ENDBRANCH  45  49
ENDBRANCH  40  41
ENDBRANCH  39  40
ENDBRANCH  11  39
TORSDOF 14
ENDMDL
MODEL 2
REMARK VINA RESULT: -8.018968653      1.138      1.783
REMARK  14 active torsions:
REMARK  status: ('A' for Active; 'I' for Inactive)
REMARK    1  A    between atoms: N1_2  and  C2_5 
REMARK    2  A    between atoms: C2_5  and  C3_6 
REMARK    3  A    between atoms: C3_6  and  C4_7 
REMARK    4  A    between atoms: C4_7  and  N2_8 
REMARK    5  A    between atoms: N2_8  and  C5_10 
REMARK    6  A    between atoms: C5_10  and  C6_11 
REMARK    7  A    between atoms: C6_11  and  C7_12 
REMARK    8  A    between atoms: C10_15  and  C12_17 
REMARK    9  A    between atoms: C12_17  and  N3_18 
REMARK   10  A    between atoms: C23_33  and  O1_34 
REMARK   11  A    between atoms: O1_34  and  C24_35 
REMARK   12  A    between atoms: C24_35  and  C25_36 
REMARK   13  A    between atoms: C29_40  and  C30_41 
REMARK   14  A    between atoms: C30_41  and  O2_42 
ROOT
HETATM    1  C5  UNL     1      29.074  -9.260 -14.793  1.00  0.00     0.198 C 
HETATM    2  C15 UNL     1      30.523  -9.014 -14.288  1.00  0.00     0.105 C 
HETATM    3  C16 UNL     1      30.609  -7.942 -15.282  1.00  0.00     0.160 C 
HETATM    4  C17 UNL     1      31.383  -8.245 -16.555  1.00  0.00     0.044 C 
HETATM    5  C18 UNL     1      31.252  -7.212 -17.624  1.00  0.00     0.007 C 
HETATM    6  C19 UNL     1      30.738  -5.899 -17.127  1.00  0.00     0.042 C 
HETATM    7  C20 UNL     1      31.222  -5.643 -15.756  1.00  0.00    -0.011 A 
HETATM    8  C21 UNL     1      31.740  -4.380 -15.439  1.00  0.00     0.126 A 
HETATM    9  F1  UNL     1      31.798  -3.414 -16.403  1.00  0.00    -0.205 F 
HETATM   10  C22 UNL     1      32.166  -4.186 -14.150  1.00  0.00     0.079 A 
HETATM   11  C23 UNL     1      32.117  -5.143 -13.159  1.00  0.00     0.072 A 
HETATM   12  C34 UNL     1      31.591  -6.388 -13.530  1.00  0.00     0.047 A 
HETATM   13  C35 UNL     1      31.152  -6.634 -14.803  1.00  0.00    -0.010 A 
HETATM   14  N4  UNL     1      29.202  -7.905 -15.423  1.00  0.00    -0.036 N 
ATOM     15  H41 UNL     1      28.679  -7.119 -15.036  1.00  0.00     0.281 HD
ATOM     16  H42 UNL     1      28.794  -7.738 -16.343  1.00  0.00     0.281 HD
ENDROOT
BRANCH   1  17
HETATM   17  N2  UNL     1      29.021 -10.182 -15.832  1.00  0.00    -0.391 N 
ATOM     18  H2  UNL     1      29.639 -10.991 -15.767  1.00  0.00     0.155 HD
BRANCH  17  19
HETATM   19  C4  UNL     1      28.204 -10.103 -16.948  1.00  0.00     0.118 C 
BRANCH  19  20
HETATM   20  C3  UNL     1      27.645 -11.540 -17.179  1.00  0.00     0.047 C 
BRANCH  20  21
HETATM   21  C2  UNL     1      26.139 -11.489 -17.192  1.00  0.00     0.233 C 
BRANCH  21  22
HETATM   22  N1  UNL     1      25.647 -12.836 -16.986  1.00  0.00    -0.079 N 
HETATM   23  C1  UNL     1      24.553 -13.141 -17.895  1.00  0.00     0.266 C 
ATOM     24  H12 UNL     1      25.382 -12.994 -16.014  1.00  0.00     0.276 HD
ATOM     25  H11 UNL     1      26.397 -13.524 -17.058  1.00  0.00     0.276 HD
ENDBRANCH  21  22
ENDBRANCH  20  21
ENDBRANCH  19  20
ENDBRANCH  17  19
ENDBRANCH   1  17
BRANCH   1  26
HETATM   26  C6  UNL     1      28.080  -9.082 -13.712  1.00  0.00     0.066 C 
BRANCH  26  27
HETATM   27  C7  UNL     1      26.756  -9.708 -13.676  1.00  0.00    -0.010 C 
HETATM   28  C8  UNL     1      27.073 -11.244 -13.528  1.00  0.00     0.005 C 
HETATM   29  C9  UNL     1      25.791 -11.995 -13.399  1.00  0.00     0.011 C 
HETATM   30  C10 UNL     1      25.124 -11.701 -12.070  1.00  0.00    -0.020 C 
HETATM   31  C11 UNL     1      23.672 -11.351 -12.247  1.00  0.00     0.017 C 
HETATM   32  C13 UNL     1      25.889 -10.594 -11.437  1.00  0.00     0.011 C 
HETATM   33  C14 UNL     1      26.117  -9.418 -12.302  1.00  0.00     0.005 C 
BRANCH  30  34
HETATM   34  C12 UNL     1      25.200 -12.930 -11.158  1.00  0.00     0.238 C 
BRANCH  34  35
HETATM   35  N3  UNL     1      24.833 -14.127 -11.844  1.00  0.00    -0.079 N 
ATOM     36  H33 UNL     1      23.860 -14.374 -11.663  1.00  0.00     0.274 HD
ATOM     37  H32 UNL     1      24.776 -13.974 -12.851  1.00  0.00     0.274 HD
ATOM     38  H31 UNL     1      25.459 -14.901 -11.621  1.00  0.00     0.274 HD
ENDBRANCH  34  35
ENDBRANCH  30  34
ENDBRANCH  26  27
ENDBRANCH   1  26
BRANCH  11  39
HETATM   39  O1  UNL     1      32.552  -4.937 -11.860  1.00  0.00    -0.347 OA
BRANCH  39  40
HETATM   40  C24 UNL     1      31.698  -4.338 -10.933  1.00  0.00     0.215 C 
BRANCH  40  41
HETATM   41  C25 UNL     1      31.568  -4.973  -9.636  1.00  0.00    -0.022 A 
HETATM   42  C26 UNL     1      32.357  -4.509  -8.601  1.00  0.00    -0.052 A 
HETATM   43  C27 UNL     1      33.304  -3.366  -8.817  1.00  0.00     0.049 C 
HETATM   44  C28 UNL     1      32.275  -5.100  -7.344  1.00  0.00     0.016 A 
HETATM   45  C29 UNL     1      31.422  -6.146  -7.098  1.00  0.00    -0.034 A 
HETATM   46  C31 UNL     1      30.642  -6.600  -8.138  1.00  0.00     0.016 A 
HETATM   47  C32 UNL     1      30.715  -6.012  -9.407  1.00  0.00    -0.052 A 
HETATM   48  C33 UNL     1      29.816  -6.589 -10.440  1.00  0.00     0.049 C 
BRANCH  45  49
HETATM   49  C30 UNL     1      31.331  -6.788  -5.739  1.00  0.00     0.202 C 
BRANCH  49  50
HETATM   50  O2  UNL     1      31.376  -5.855  -4.736  1.00  0.00    -0.396 OA
ATOM     51  H2  UNL     1      30.653  -5.960  -4.128  1.00  0.00     0.209 HD
ENDBRANCH  49  50
ENDBRANCH  45  49
ENDBRANCH  40  41
ENDBRANCH  39  40
ENDBRANCH  11  39
TORSDOF 14
ENDMDL
MODEL 3
REMARK VINA RESULT: -8.008946242      4.187      6.017
REMARK  14 active torsions:
REMARK  status: ('A' for Active; 'I' for Inactive)
REMARK    1  A    between atoms: N1_2  and  C2_5 
REMARK    2  A    between atoms: C2_5  and  C3_6 
REMARK    3  A    between atoms: C3_6  and  C4_7 
REMARK    4  A    between atoms: C4_7  and  N2_8 
REMARK    5  A    between atoms: N2_8  and  C5_10 
REMARK    6  A    between atoms: C5_10  and  C6_11 
REMARK    7  A    between atoms: C6_11  and  C7_12 
REMARK    8  A    between atoms: C10_15  and  C12_17 
REMARK    9  A    between atoms: C12_17  and  N3_18 
REMARK   10  A    between atoms: C23_33  and  O1_34 
REMARK   11  A    between atoms: O1_34  and  C24_35 
REMARK   12  A    between atoms: C24_35  and  C25_36 
REMARK   13  A    between atoms: C29_40  and  C30_41 
REMARK   14  A    between atoms: C30_41  and  O2_42 
ROOT
HETATM    1  C5  UNL     1      33.960  -6.749 -16.296  1.00  0.00     0.198 C 
HETATM    2  C15 UNL     1      34.013  -5.414 -15.502  1.00  0.00     0.105 C 
HETATM    3  C16 UNL     1      32.664  -5.147 -16.006  1.00  0.00     0.160 C 
HETATM    4  C17 UNL     1      32.542  -4.157 -17.153  1.00  0.00     0.044 C 
HETATM    5  C18 UNL     1      31.188  -4.089 -17.777  1.00  0.00     0.007 C 
HETATM    6  C19 UNL     1      30.109  -4.680 -16.927  1.00  0.00     0.042 C 
HETATM    7  C20 UNL     1      30.396  -4.450 -15.497  1.00  0.00    -0.011 A 
HETATM    8  C21 UNL     1      29.371  -3.993 -14.658  1.00  0.00     0.126 A 
HETATM    9  F1  UNL     1      28.129  -3.759 -15.178  1.00  0.00    -0.205 F 
HETATM   10  C22 UNL     1      29.683  -3.805 -13.337  1.00  0.00     0.079 A 
HETATM   11  C23 UNL     1      30.926  -4.036 -12.787  1.00  0.00     0.072 A 
HETATM   12  C34 UNL     1      31.915  -4.492 -13.670  1.00  0.00     0.047 A 
HETATM   13  C35 UNL     1      31.656  -4.695 -14.998  1.00  0.00    -0.010 A 
HETATM   14  N4  UNL     1      32.481  -6.505 -16.356  1.00  0.00    -0.036 N 
ATOM     15  H41 UNL     1      31.853  -7.087 -15.802  1.00  0.00     0.281 HD
ATOM     16  H42 UNL     1      31.967  -6.741 -17.205  1.00  0.00     0.281 HD
ENDROOT
BRANCH   1  17
HETATM   17  N2  UNL     1      34.441  -6.618 -17.594  1.00  0.00    -0.391 N 
ATOM     18  H2  UNL     1      33.837  -6.944 -18.348  1.00  0.00     0.155 HD
BRANCH  17  19
HETATM   19  C4  UNL     1      35.667  -6.085 -17.956  1.00  0.00     0.118 C 
BRANCH  19  20
HETATM   20  C3  UNL     1      36.692  -7.256 -17.870  1.00  0.00     0.047 C 
BRANCH  20  21
HETATM   21  C2  UNL     1      37.599  -7.034 -16.687  1.00  0.00     0.233 C 
BRANCH  21  22
HETATM   22  N1  UNL     1      37.828  -8.318 -16.056  1.00  0.00    -0.079 N 
HETATM   23  C1  UNL     1      38.763  -8.200 -14.949  1.00  0.00     0.266 C 
ATOM     24  H12 UNL     1      38.133  -9.018 -16.731  1.00  0.00     0.276 HD
ATOM     25  H11 UNL     1      36.953  -8.754 -15.764  1.00  0.00     0.276 HD
ENDBRANCH  21  22
ENDBRANCH  20  21
ENDBRANCH  19  20
ENDBRANCH  17  19
ENDBRANCH   1  17
BRANCH   1  26
HETATM   26  C6  UNL     1      34.113  -7.921 -15.407  1.00  0.00     0.066 C 
BRANCH  26  27
HETATM   27  C7  UNL     1      34.655  -7.879 -14.046  1.00  0.00    -0.010 C 
HETATM   28  C8  UNL     1      33.372  -7.861 -13.133  1.00  0.00     0.005 C 
HETATM   29  C9  UNL     1      33.791  -7.897 -11.703  1.00  0.00     0.011 C 
HETATM   30  C10 UNL     1      34.388  -9.245 -11.349  1.00  0.00    -0.020 C 
HETATM   31  C11 UNL     1      35.700  -9.097 -10.629  1.00  0.00     0.017 C 
HETATM   32  C13 UNL     1      34.535 -10.001 -12.621  1.00  0.00     0.011 C 
HETATM   33  C14 UNL     1      35.224  -9.272 -13.705  1.00  0.00     0.005 C 
BRANCH  30  34
HETATM   34  C12 UNL     1      33.437 -10.018 -10.429  1.00  0.00     0.238 C 
BRANCH  34  35
HETATM   35  N3  UNL     1      32.624 -10.939 -11.156  1.00  0.00    -0.079 N 
ATOM     36  H33 UNL     1      32.471 -10.624 -12.114  1.00  0.00     0.274 HD
ATOM     37  H32 UNL     1      33.127 -11.805 -11.350  1.00  0.00     0.274 HD
ATOM     38  H31 UNL     1      31.739 -11.124 -10.682  1.00  0.00     0.274 HD
ENDBRANCH  34  35
ENDBRANCH  30  34
ENDBRANCH  26  27
ENDBRANCH   1  26
BRANCH  11  39
HETATM   39  O1  UNL     1      31.231  -3.842 -11.450  1.00  0.00    -0.347 OA
BRANCH  39  40
HETATM   40  C24 UNL     1      32.245  -4.594 -10.857  1.00  0.00     0.215 C 
BRANCH  40  41
HETATM   41  C25 UNL     1      31.970  -5.185  -9.562  1.00  0.00    -0.022 A 
HETATM   42  C26 UNL     1      32.542  -4.605  -8.446  1.00  0.00    -0.052 A 
HETATM   43  C27 UNL     1      33.405  -3.386  -8.578  1.00  0.00     0.049 C 
HETATM   44  C28 UNL     1      32.318  -5.149  -7.185  1.00  0.00     0.016 A 
HETATM   45  C29 UNL     1      31.534  -6.263  -7.015  1.00  0.00    -0.034 A 
HETATM   46  C31 UNL     1      30.970  -6.832  -8.134  1.00  0.00     0.016 A 
HETATM   47  C32 UNL     1      31.188  -6.292  -9.409  1.00  0.00    -0.052 A 
HETATM   48  C33 UNL     1      30.519  -6.995 -10.533  1.00  0.00     0.049 C 
BRANCH  45  49
HETATM   49  C30 UNL     1      31.288  -6.855  -5.652  1.00  0.00     0.202 C 
BRANCH  49  50
HETATM   50  O2  UNL     1      31.317  -5.896  -4.673  1.00  0.00    -0.396 OA
ATOM     51  H2  UNL     1      31.520  -6.270  -3.824  1.00  0.00     0.209 HD
ENDBRANCH  49  50
ENDBRANCH  45  49
ENDBRANCH  40  41
ENDBRANCH  39  40
ENDBRANCH  11  39
TORSDOF 14
ENDMDL
MODEL 4
REMARK VINA RESULT: -7.859394861      4.741      8.448
REMARK  14 active torsions:
REMARK  status: ('A' for Active; 'I' for Inactive)
REMARK    1  A    between atoms: N1_2  and  C2_5 
REMARK    2  A    between atoms: C2_5  and  C3_6 
REMARK    3  A    between atoms: C3_6  and  C4_7 
REMARK    4  A    between atoms: C4_7  and  N2_8 
REMARK    5  A    between atoms: N2_8  and  C5_10 
REMARK    6  A    between atoms: C5_10  and  C6_11 
REMARK    7  A    between atoms: C6_11  and  C7_12 
REMARK    8  A    between atoms: C10_15  and  C12_17 
REMARK    9  A    between atoms: C12_17  and  N3_18 
REMARK   10  A    between atoms: C23_33  and  O1_34 
REMARK   11  A    between atoms: O1_34  and  C24_35 
REMARK   12  A    between atoms: C24_35  and  C25_36 
REMARK   13  A    between atoms: C29_40  and  C30_41 
REMARK   14  A    between atoms: C30_41  and  O2_42 
ROOT
HETATM    1  C5  UNL     1      34.647  -2.850 -14.397  1.00  0.00     0.198 C 
HETATM    2  C15 UNL     1      33.688  -2.464 -13.236  1.00  0.00     0.105 C 
HETATM    3  C16 UNL     1      32.591  -2.595 -14.197  1.00  0.00     0.160 C 
HETATM    4  C17 UNL     1      32.009  -1.308 -14.757  1.00  0.00     0.044 C 
HETATM    5  C18 UNL     1      31.056  -1.497 -15.891  1.00  0.00     0.007 C 
HETATM    6  C19 UNL     1      30.533  -2.893 -16.005  1.00  0.00     0.042 C 
HETATM    7  C20 UNL     1      30.389  -3.499 -14.666  1.00  0.00    -0.011 A 
HETATM    8  C21 UNL     1      29.212  -4.193 -14.353  1.00  0.00     0.126 A 
HETATM    9  F1  UNL     1      28.217  -4.288 -15.285  1.00  0.00    -0.205 F 
HETATM   10  C22 UNL     1      29.129  -4.748 -13.103  1.00  0.00     0.079 A 
HETATM   11  C23 UNL     1      30.118  -4.669 -12.146  1.00  0.00     0.072 A 
HETATM   12  C34 UNL     1      31.274  -3.963 -12.510  1.00  0.00     0.047 A 
HETATM   13  C35 UNL     1      31.406  -3.390 -13.746  1.00  0.00    -0.010 A 
HETATM   14  N4  UNL     1      33.405  -3.331 -15.088  1.00  0.00    -0.036 N 
ATOM     15  H41 UNL     1      33.249  -4.333 -15.202  1.00  0.00     0.281 HD
ATOM     16  H42 UNL     1      33.304  -3.191 -16.093  1.00  0.00     0.281 HD
ENDROOT
BRANCH   1  17
HETATM   17  N2  UNL     1      35.099  -1.744 -15.107  1.00  0.00    -0.391 N 
ATOM     18  H2  UNL     1      34.891  -1.717 -16.106  1.00  0.00     0.155 HD
BRANCH  17  19
HETATM   19  C4  UNL     1      35.805  -0.675 -14.583  1.00  0.00     0.118 C 
BRANCH  19  20
HETATM   20  C3  UNL     1      35.163   0.609 -15.189  1.00  0.00     0.047 C 
BRANCH  20  21
HETATM   21  C2  UNL     1      35.776   1.824 -14.540  1.00  0.00     0.233 C 
BRANCH  21  22
HETATM   22  N1  UNL     1      35.338   2.991 -15.280  1.00  0.00    -0.079 N 
HETATM   23  C1  UNL     1      34.510   2.614 -16.413  1.00  0.00     0.266 C 
ATOM     24  H12 UNL     1      36.128   3.569 -15.568  1.00  0.00     0.276 HD
ATOM     25  H11 UNL     1      34.865   3.662 -14.675  1.00  0.00     0.276 HD
ENDBRANCH  21  22
ENDBRANCH  20  21
ENDBRANCH  19  20
ENDBRANCH  17  19
ENDBRANCH   1  17
BRANCH   1  26
HETATM   26  C6  UNL     1      35.409  -4.081 -14.091  1.00  0.00     0.066 C 
BRANCH  26  27
HETATM   27  C7  UNL     1      35.026  -5.432 -14.506  1.00  0.00    -0.010 C 
HETATM   28  C8  UNL     1      36.090  -5.802 -15.606  1.00  0.00     0.005 C 
HETATM   29  C9  UNL     1      35.855  -7.203 -16.060  1.00  0.00     0.011 C 
HETATM   30  C10 UNL     1      36.205  -8.191 -14.966  1.00  0.00    -0.020 C 
HETATM   31  C11 UNL     1      35.107  -9.199 -14.759  1.00  0.00     0.017 C 
HETATM   32  C13 UNL     1      36.470  -7.399 -13.735  1.00  0.00     0.011 C 
HETATM   33  C14 UNL     1      35.423  -6.417 -13.387  1.00  0.00     0.005 C 
BRANCH  30  34
HETATM   34  C12 UNL     1      37.478  -8.959 -15.335  1.00  0.00     0.238 C 
BRANCH  34  35
HETATM   35  N3  UNL     1      38.606  -8.516 -14.580  1.00  0.00    -0.079 N 
ATOM     36  H33 UNL     1      38.504  -7.542 -14.298  1.00  0.00     0.274 HD
ATOM     37  H32 UNL     1      38.627  -8.949 -13.657  1.00  0.00     0.274 HD
ATOM     38  H31 UNL     1      39.483  -8.668 -15.080  1.00  0.00     0.274 HD
ENDBRANCH  34  35
ENDBRANCH  30  34
ENDBRANCH  26  27
ENDBRANCH   1  26
BRANCH  11  39
HETATM   39  O1  UNL     1      30.024  -5.233 -10.884  1.00  0.00    -0.347 OA
BRANCH  39  40
HETATM   40  C24 UNL     1      30.025  -6.621 -10.747  1.00  0.00     0.215 C 
BRANCH  40  41
HETATM   41  C25 UNL     1      31.310  -7.293 -10.748  1.00  0.00    -0.022 A 
HETATM   42  C26 UNL     1      31.702  -7.949 -11.900  1.00  0.00    -0.052 A 
HETATM   43  C27 UNL     1      30.826  -7.944 -13.116  1.00  0.00     0.049 C 
HETATM   44  C28 UNL     1      32.920  -8.620 -11.939  1.00  0.00     0.016 A 
HETATM   45  C29 UNL     1      33.756  -8.650 -10.851  1.00  0.00    -0.034 A 
HETATM   46  C31 UNL     1      33.354  -7.994  -9.710  1.00  0.00     0.016 A 
HETATM   47  C32 UNL     1      32.130  -7.314  -9.659  1.00  0.00    -0.052 A 
HETATM   48  C33 UNL     1      31.816  -6.640  -8.373  1.00  0.00     0.049 C 
BRANCH  45  49
HETATM   49  C30 UNL     1      35.076  -9.375 -10.889  1.00  0.00     0.202 C 
BRANCH  49  50
HETATM   50  O2  UNL     1      34.910 -10.713 -11.136  1.00  0.00    -0.396 OA
ATOM     51  H2  UNL     1      35.204 -10.947 -12.008  1.00  0.00     0.209 HD
ENDBRANCH  49  50
ENDBRANCH  45  49
ENDBRANCH  40  41
ENDBRANCH  39  40
ENDBRANCH  11  39
TORSDOF 14
ENDMDL
MODEL 5
REMARK VINA RESULT: -7.858987575      0.974      1.165
REMARK  14 active torsions:
REMARK  status: ('A' for Active; 'I' for Inactive)
REMARK    1  A    between atoms: N1_2  and  C2_5 
REMARK    2  A    between atoms: C2_5  and  C3_6 
REMARK    3  A    between atoms: C3_6  and  C4_7 
REMARK    4  A    between atoms: C4_7  and  N2_8 
REMARK    5  A    between atoms: N2_8  and  C5_10 
REMARK    6  A    between atoms: C5_10  and  C6_11 
REMARK    7  A    between atoms: C6_11  and  C7_12 
REMARK    8  A    between atoms: C10_15  and  C12_17 
REMARK    9  A    between atoms: C12_17  and  N3_18 
REMARK   10  A    between atoms: C23_33  and  O1_34 
REMARK   11  A    between atoms: O1_34  and  C24_35 
REMARK   12  A    between atoms: C24_35  and  C25_36 
REMARK   13  A    between atoms: C29_40  and  C30_41 
REMARK   14  A    between atoms: C30_41  and  O2_42 
ROOT
HETATM    1  C5  UNL     1      29.857  -8.888 -15.169  1.00  0.00     0.198 C 
HETATM    2  C15 UNL     1      31.110  -8.154 -14.616  1.00  0.00     0.105 C 
HETATM    3  C16 UNL     1      30.711  -7.009 -15.437  1.00  0.00     0.160 C 
HETATM    4  C17 UNL     1      31.476  -6.790 -16.732  1.00  0.00     0.044 C 
HETATM    5  C18 UNL     1      30.890  -5.757 -17.635  1.00  0.00     0.007 C 
HETATM    6  C19 UNL     1      29.920  -4.848 -16.952  1.00  0.00     0.042 C 
HETATM    7  C20 UNL     1      30.330  -4.616 -15.553  1.00  0.00    -0.011 A 
HETATM    8  C21 UNL     1      30.315  -3.310 -15.044  1.00  0.00     0.126 A 
HETATM    9  F1  UNL     1      29.934  -2.276 -15.851  1.00  0.00    -0.205 F 
HETATM   10  C22 UNL     1      30.693  -3.147 -13.736  1.00  0.00     0.079 A 
HETATM   11  C23 UNL     1      31.080  -4.172 -12.901  1.00  0.00     0.072 A 
HETATM   12  C34 UNL     1      31.077  -5.458 -13.460  1.00  0.00     0.047 A 
HETATM   13  C35 UNL     1      30.709  -5.676 -14.760  1.00  0.00    -0.010 A 
HETATM   14  N4  UNL     1      29.401  -7.522 -15.587  1.00  0.00    -0.036 N 
ATOM     15  H41 UNL     1      28.628  -7.077 -15.092  1.00  0.00     0.281 HD
ATOM     16  H42 UNL     1      28.914  -7.404 -16.475  1.00  0.00     0.281 HD
ENDROOT
BRANCH   1  17
HETATM   17  N2  UNL     1      30.124  -9.596 -16.335  1.00  0.00    -0.391 N 
ATOM     18  H2  UNL     1      30.987 -10.139 -16.361  1.00  0.00     0.155 HD
BRANCH  17  19
HETATM   19  C4  UNL     1      29.325  -9.632 -17.466  1.00  0.00     0.118 C 
BRANCH  19  20
HETATM   20  C3  UNL     1      28.867 -11.113 -17.627  1.00  0.00     0.047 C 
BRANCH  20  21
HETATM   21  C2  UNL     1      29.738 -11.791 -18.653  1.00  0.00     0.233 C 
BRANCH  21  22
HETATM   22  N1  UNL     1      28.929 -12.778 -19.339  1.00  0.00    -0.079 N 
HETATM   23  C1  UNL     1      28.408 -12.252 -20.591  1.00  0.00     0.266 C 
ATOM     24  H12 UNL     1      28.182 -13.132 -18.741  1.00  0.00     0.276 HD
ATOM     25  H11 UNL     1      29.441 -13.649 -19.482  1.00  0.00     0.276 HD
ENDBRANCH  21  22
ENDBRANCH  20  21
ENDBRANCH  19  20
ENDBRANCH  17  19
ENDBRANCH   1  17
BRANCH   1  26
HETATM   26  C6  UNL     1      28.930  -9.280 -14.085  1.00  0.00     0.066 C 
BRANCH  26  27
HETATM   27  C7  UNL     1      27.521  -9.637 -14.271  1.00  0.00    -0.010 C 
HETATM   28  C8  UNL     1      27.522 -11.211 -14.215  1.00  0.00     0.005 C 
HETATM   29  C9  UNL     1      26.118 -11.703 -14.315  1.00  0.00     0.011 C 
HETATM   30  C10 UNL     1      25.336 -11.362 -13.063  1.00  0.00    -0.020 C 
HETATM   31  C11 UNL     1      24.014 -10.725 -13.392  1.00  0.00     0.017 C 
HETATM   32  C13 UNL     1      26.195 -10.465 -12.245  1.00  0.00     0.011 C 
HETATM   33  C14 UNL     1      26.759  -9.308 -12.970  1.00  0.00     0.005 C 
BRANCH  30  34
HETATM   34  C12 UNL     1      25.051 -12.633 -12.256  1.00  0.00     0.238 C 
BRANCH  34  35
HETATM   35  N3  UNL     1      25.622 -12.575 -10.949  1.00  0.00    -0.079 N 
ATOM     36  H33 UNL     1      26.565 -12.963 -10.939  1.00  0.00     0.274 HD
ATOM     37  H32 UNL     1      25.840 -11.615 -10.682  1.00  0.00     0.274 HD
ATOM     38  H31 UNL     1      25.029 -13.027 -10.253  1.00  0.00     0.274 HD
ENDBRANCH  34  35
ENDBRANCH  30  34
ENDBRANCH  26  27
ENDBRANCH   1  26
BRANCH  11  39
HETATM   39  O1  UNL     1      31.461  -3.995 -11.580  1.00  0.00    -0.347 OA
BRANCH  39  40
HETATM   40  C24 UNL     1      32.385  -4.868 -11.006  1.00  0.00     0.215 C 
BRANCH  40  41
HETATM   41  C25 UNL     1      32.143  -5.295  -9.641  1.00  0.00    -0.022 A 
HETATM   42  C26 UNL     1      31.459  -6.479  -9.440  1.00  0.00    -0.052 A 
HETATM   43  C27 UNL     1      31.001  -7.303 -10.605  1.00  0.00     0.049 C 
HETATM   44  C28 UNL     1      31.192  -6.917  -8.146  1.00  0.00     0.016 A 
HETATM   45  C29 UNL     1      31.593  -6.198  -7.049  1.00  0.00    -0.034 A 
HETATM   46  C31 UNL     1      32.273  -5.020  -7.263  1.00  0.00     0.016 A 
HETATM   47  C32 UNL     1      32.549  -4.569  -8.561  1.00  0.00    -0.052 A 
HETATM   48  C33 UNL     1      33.295  -3.288  -8.656  1.00  0.00     0.049 C 
BRANCH  45  49
HETATM   49  C30 UNL     1      31.306  -6.669  -5.647  1.00  0.00     0.202 C 
BRANCH  49  50
HETATM   50  O2  UNL     1      31.318  -5.630  -4.754  1.00  0.00    -0.396 OA
ATOM     51  H2  UNL     1      31.750  -5.872  -3.943  1.00  0.00     0.209 HD
ENDBRANCH  49  50
ENDBRANCH  45  49
ENDBRANCH  40  41
ENDBRANCH  39  40
ENDBRANCH  11  39
TORSDOF 14
ENDMDL
