MODEL 1
REMARK VINA RESULT: -7.421180384      0.000      0.000
REMARK  18 active torsions:
REMARK  status: ('A' for Active; 'I' for Inactive)
REMARK    1  A    between atoms: C2_2  and  C3_3 
REMARK    2  A    between atoms: C3_3  and  C4_4 
REMARK    3  A    between atoms: C3_3  and  C6_12 
REMARK    4  A    between atoms: C4_4  and  C5_5 
REMARK    5  A    between atoms: C5_5  and  O1_6 
REMARK    6  A    between atoms: N1_8  and  O2_10 
REMARK    7  A    between atoms: C6_12  and  O3_14 
REMARK    8  A    between atoms: C6_12  and  C8_16 
REMARK    9  A    between atoms: C8_16  and  C9_17 
REMARK   10  A    between atoms: C9_17  and  C11_19 
REMARK   11  A    between atoms: C11_19  and  O4_20 
REMARK   12  A    between atoms: C11_19  and  C12_22 
REMARK   13  A    between atoms: C12_22  and  C13_23 
REMARK   14  A    between atoms: C13_23  and  C14_24 
REMARK   15  A    between atoms: C14_24  and  O5_25 
REMARK   16  A    between atoms: C14_24  and  C15_27 
REMARK   17  A    between atoms: C16_28  and  C17_29 
REMARK   18  A    between atoms: C24_36  and  O6_37 
ROOT
HETATM    1  C14 UNL     1      31.062  -2.497 -16.055  1.00  0.00     0.140 C 
ENDROOT
BRANCH   1   2
HETATM    2  C13 UNL     1      30.746  -2.008 -14.629  1.00  0.00     0.038 C 
BRANCH   2   3
HETATM    3  C12 UNL     1      31.903  -2.313 -13.716  1.00  0.00     0.035 C 
BRANCH   3   4
HETATM    4  C11 UNL     1      31.363  -2.781 -12.359  1.00  0.00     0.122 C 
BRANCH   4   5
HETATM    5  C9  UNL     1      32.421  -3.413 -11.543  1.00  0.00     0.013 C 
HETATM    6  C10 UNL     1      33.616  -3.581 -12.555  1.00  0.00     0.012 C 
BRANCH   5   7
HETATM    7  C8  UNL     1      32.185  -4.699 -10.873  1.00  0.00     0.044 C 
BRANCH   7   8
HETATM    8  C6  UNL     1      31.963  -4.718  -9.414  1.00  0.00     0.059 C 
HETATM    9  C7  UNL     1      32.879  -3.819  -8.676  1.00  0.00     0.046 C 
BRANCH   8  10
HETATM   10  C3  UNL     1      32.022  -6.183  -8.968  1.00  0.00     0.027 C 
BRANCH  10  11
HETATM   11  C2  UNL     1      32.962  -7.016  -9.787  1.00  0.00     0.003 C 
HETATM   12  C1  UNL     1      32.696  -8.467  -9.876  1.00  0.00     0.005 C 
ENDBRANCH  10  11
BRANCH  10  13
HETATM   13  C4  UNL     1      32.356  -6.370  -7.531  1.00  0.00     0.093 C 
BRANCH  13  14
HETATM   14  C5  UNL     1      31.279  -6.835  -6.649  1.00  0.00     0.135 C 
HETATM   15  N1  UNL     1      30.918  -6.291  -5.540  1.00  0.00    -0.251 N 
ATOM     16  H1  UNL     1      30.155  -6.687  -4.992  1.00  0.00     0.196 HD
BRANCH  14  17
HETATM   17  O1  UNL     1      30.582  -7.993  -7.063  1.00  0.00    -0.348 OA
ATOM     18  H1  UNL     1      31.112  -8.730  -7.343  1.00  0.00     0.219 HD
ENDBRANCH  14  17
BRANCH  15  19
HETATM   19  O2  UNL     1      31.577  -5.172  -5.110  1.00  0.00    -0.288 OA
ATOM     20  H2  UNL     1      31.147  -4.601  -4.484  1.00  0.00     0.244 HD
ENDBRANCH  15  19
ENDBRANCH  13  14
ENDBRANCH  10  13
ENDBRANCH   8  10
BRANCH   8  21
HETATM   21  O3  UNL     1      30.630  -4.353  -9.148  1.00  0.00    -0.390 OA
ATOM     22  H3  UNL     1      30.719  -3.649  -8.516  1.00  0.00     0.210 HD
ENDBRANCH   8  21
ENDBRANCH   7   8
ENDBRANCH   5   7
ENDBRANCH   4   5
BRANCH   4  23
HETATM   23  O4  UNL     1      30.656  -1.733 -11.846  1.00  0.00    -0.395 OA
ATOM     24  H4  UNL     1      29.713  -1.703 -11.961  1.00  0.00     0.210 HD
ENDBRANCH   4  23
ENDBRANCH   3   4
ENDBRANCH   2   3
ENDBRANCH   1   2
BRANCH   1  25
HETATM   25  O5  UNL     1      30.555  -1.475 -16.871  1.00  0.00    -0.392 OA
ATOM     26  H5  UNL     1      30.285  -1.934 -17.658  1.00  0.00     0.210 HD
ENDBRANCH   1  25
BRANCH   1  27
HETATM   27  C15 UNL     1      30.382  -3.758 -16.347  1.00  0.00     0.001 C 
HETATM   28  C16 UNL     1      30.513  -4.919 -15.796  1.00  0.00    -0.023 C 
BRANCH  28  29
HETATM   29  C17 UNL     1      31.291  -5.497 -14.745  1.00  0.00     0.016 C 
HETATM   30  C18 UNL     1      30.624  -6.392 -13.750  1.00  0.00     0.010 C 
HETATM   31  C19 UNL     1      31.735  -7.347 -13.247  1.00  0.00     0.007 C 
HETATM   32  C20 UNL     1      32.912  -6.907 -14.019  1.00  0.00     0.003 C 
HETATM   33  C21 UNL     1      32.345  -6.514 -15.332  1.00  0.00    -0.030 C 
HETATM   34  C32 UNL     1      34.076  -7.849 -14.074  1.00  0.00    -0.033 C 
HETATM   35  C22 UNL     1      31.540  -7.518 -16.063  1.00  0.00     0.016 C 
HETATM   36  C23 UNL     1      33.322  -5.808 -16.211  1.00  0.00     0.042 C 
HETATM   37  C24 UNL     1      34.739  -6.149 -15.761  1.00  0.00     0.124 C 
HETATM   38  C25 UNL     1      34.879  -7.579 -15.301  1.00  0.00     0.030 C 
HETATM   39  C26 UNL     1      36.313  -7.991 -15.234  1.00  0.00    -0.041 C 
HETATM   40  C27 UNL     1      36.541  -9.459 -15.511  1.00  0.00     0.015 C 
HETATM   41  C28 UNL     1      37.093  -7.240 -16.324  1.00  0.00     0.015 C 
HETATM   42  C29 UNL     1      37.005  -7.630 -13.940  1.00  0.00     0.009 C 
HETATM   43  C30 UNL     1      36.210  -8.222 -12.801  1.00  0.00     0.002 C 
HETATM   44  C31 UNL     1      34.835  -7.642 -12.777  1.00  0.00     0.010 C 
HETATM   45  C33 UNL     1      33.606  -9.313 -14.020  1.00  0.00     0.016 C 
BRANCH  37  46
HETATM   46  O6  UNL     1      35.202  -5.222 -14.858  1.00  0.00    -0.395 OA
ATOM     47  H6  UNL     1      36.127  -5.052 -14.993  1.00  0.00     0.210 HD
ENDBRANCH  37  46
ENDBRANCH  28  29
ENDBRANCH   1  27
TORSDOF 18
ENDMDL
MODEL 2
REMARK VINA RESULT: -7.247949986      2.077      5.808
REMARK  18 active torsions:
REMARK  status: ('A' for Active; 'I' for Inactive)
REMARK    1  A    between atoms: C2_2  and  C3_3 
REMARK    2  A    between atoms: C3_3  and  C4_4 
REMARK    3  A    between atoms: C3_3  and  C6_12 
REMARK    4  A    between atoms: C4_4  and  C5_5 
REMARK    5  A    between atoms: C5_5  and  O1_6 
REMARK    6  A    between atoms: N1_8  and  O2_10 
REMARK    7  A    between atoms: C6_12  and  O3_14 
REMARK    8  A    between atoms: C6_12  and  C8_16 
REMARK    9  A    between atoms: C8_16  and  C9_17 
REMARK   10  A    between atoms: C9_17  and  C11_19 
REMARK   11  A    between atoms: C11_19  and  O4_20 
REMARK   12  A    between atoms: C11_19  and  C12_22 
REMARK   13  A    between atoms: C12_22  and  C13_23 
REMARK   14  A    between atoms: C13_23  and  C14_24 
REMARK   15  A    between atoms: C14_24  and  O5_25 
REMARK   16  A    between atoms: C14_24  and  C15_27 
REMARK   17  A    between atoms: C16_28  and  C17_29 
REMARK   18  A    between atoms: C24_36  and  O6_37 
ROOT
HETATM    1  C14 UNL     1      36.168  -7.992 -14.345  1.00  0.00     0.140 C 
ENDROOT
BRANCH   1   2
HETATM    2  C13 UNL     1      35.857  -8.133 -12.843  1.00  0.00     0.038 C 
BRANCH   2   3
HETATM    3  C12 UNL     1      34.530  -8.820 -12.659  1.00  0.00     0.035 C 
BRANCH   3   4
HETATM    4  C11 UNL     1      34.239  -8.957 -11.159  1.00  0.00     0.122 C 
BRANCH   4   5
HETATM    5  C9  UNL     1      32.900  -8.432 -10.817  1.00  0.00     0.013 C 
HETATM    6  C10 UNL     1      32.150  -8.405 -12.202  1.00  0.00     0.012 C 
BRANCH   5   7
HETATM    7  C8  UNL     1      32.749  -7.122 -10.172  1.00  0.00     0.044 C 
BRANCH   7   8
HETATM    8  C6  UNL     1      31.959  -7.021  -8.929  1.00  0.00     0.059 C 
HETATM    9  C7  UNL     1      30.539  -7.396  -9.112  1.00  0.00     0.046 C 
BRANCH   8  10
HETATM   10  C3  UNL     1      32.171  -5.607  -8.374  1.00  0.00     0.027 C 
BRANCH  10  11
HETATM   11  C2  UNL     1      32.517  -4.600  -9.430  1.00  0.00     0.003 C 
HETATM   12  C1  UNL     1      33.289  -3.409  -9.018  1.00  0.00     0.005 C 
ENDBRANCH  10  11
BRANCH  10  13
HETATM   13  C4  UNL     1      31.026  -5.085  -7.583  1.00  0.00     0.093 C 
BRANCH  13  14
HETATM   14  C5  UNL     1      31.276  -4.777  -6.169  1.00  0.00     0.135 C 
HETATM   15  N1  UNL     1      31.220  -5.610  -5.189  1.00  0.00    -0.251 N 
ATOM     16  H1  UNL     1      31.410  -5.303  -4.235  1.00  0.00     0.196 HD
BRANCH  14  17
HETATM   17  O1  UNL     1      31.605  -3.436  -5.866  1.00  0.00    -0.348 OA
ATOM     18  H1  UNL     1      32.246  -3.019  -6.429  1.00  0.00     0.219 HD
ENDBRANCH  14  17
BRANCH  15  19
HETATM   19  O2  UNL     1      30.900  -6.914  -5.450  1.00  0.00    -0.288 OA
ATOM     20  H2  UNL     1      30.136  -7.099  -5.982  1.00  0.00     0.244 HD
ENDBRANCH  15  19
ENDBRANCH  13  14
ENDBRANCH  10  13
ENDBRANCH   8  10
BRANCH   8  21
HETATM   21  O3  UNL     1      32.541  -7.843  -7.947  1.00  0.00    -0.390 OA
ATOM     22  H3  UNL     1      31.890  -8.522  -7.818  1.00  0.00     0.210 HD
ENDBRANCH   8  21
ENDBRANCH   7   8
ENDBRANCH   5   7
ENDBRANCH   4   5
BRANCH   4  23
HETATM   23  O4  UNL     1      34.565 -10.238 -10.822  1.00  0.00    -0.395 OA
ATOM     24  H4  UNL     1      35.236 -10.695 -11.315  1.00  0.00     0.210 HD
ENDBRANCH   4  23
ENDBRANCH   3   4
ENDBRANCH   2   3
ENDBRANCH   1   2
BRANCH   1  25
HETATM   25  O5  UNL     1      37.396  -8.654 -14.488  1.00  0.00    -0.392 OA
ATOM     26  H5  UNL     1      37.970  -7.983 -14.839  1.00  0.00     0.210 HD
ENDBRANCH   1  25
BRANCH   1  27
HETATM   27  C15 UNL     1      36.305  -6.589 -14.730  1.00  0.00     0.001 C 
HETATM   28  C16 UNL     1      35.439  -5.630 -14.699  1.00  0.00    -0.023 C 
BRANCH  28  29
HETATM   29  C17 UNL     1      34.070  -5.469 -14.315  1.00  0.00     0.016 C 
HETATM   30  C18 UNL     1      33.751  -4.939 -12.954  1.00  0.00     0.010 C 
HETATM   31  C19 UNL     1      32.371  -4.250 -13.095  1.00  0.00     0.007 C 
HETATM   32  C20 UNL     1      32.058  -4.445 -14.523  1.00  0.00     0.003 C 
HETATM   33  C21 UNL     1      33.379  -4.352 -15.189  1.00  0.00    -0.030 C 
HETATM   34  C32 UNL     1      30.979  -3.581 -15.104  1.00  0.00    -0.033 C 
HETATM   35  C22 UNL     1      34.185  -3.132 -14.955  1.00  0.00     0.016 C 
HETATM   36  C23 UNL     1      33.347  -4.754 -16.625  1.00  0.00     0.042 C 
HETATM   37  C24 UNL     1      31.919  -4.635 -17.147  1.00  0.00     0.124 C 
HETATM   38  C25 UNL     1      31.183  -3.450 -16.574  1.00  0.00     0.030 C 
HETATM   39  C26 UNL     1      29.957  -3.136 -17.367  1.00  0.00    -0.041 C 
HETATM   40  C27 UNL     1      29.591  -1.669 -17.373  1.00  0.00     0.015 C 
HETATM   41  C28 UNL     1      30.213  -3.502 -18.837  1.00  0.00     0.015 C 
HETATM   42  C29 UNL     1      28.737  -3.937 -16.973  1.00  0.00     0.009 C 
HETATM   43  C30 UNL     1      28.502  -3.735 -15.494  1.00  0.00     0.002 C 
HETATM   44  C31 UNL     1      29.670  -4.240 -14.714  1.00  0.00     0.010 C 
HETATM   45  C33 UNL     1      30.942  -2.206 -14.415  1.00  0.00     0.016 C 
BRANCH  37  46
HETATM   46  O6  UNL     1      31.250  -5.828 -17.017  1.00  0.00    -0.395 OA
ATOM     47  H6  UNL     1      30.337  -5.732 -17.261  1.00  0.00     0.210 HD
ENDBRANCH  37  46
ENDBRANCH  28  29
ENDBRANCH   1  27
TORSDOF 18
ENDMDL
MODEL 3
REMARK VINA RESULT: -7.003452769      2.061      5.600
REMARK  18 active torsions:
REMARK  status: ('A' for Active; 'I' for Inactive)
REMARK    1  A    between atoms: C2_2  and  C3_3 
REMARK    2  A    between atoms: C3_3  and  C4_4 
REMARK    3  A    between atoms: C3_3  and  C6_12 
REMARK    4  A    between atoms: C4_4  and  C5_5 
REMARK    5  A    between atoms: C5_5  and  O1_6 
REMARK    6  A    between atoms: N1_8  and  O2_10 
REMARK    7  A    between atoms: C6_12  and  O3_14 
REMARK    8  A    between atoms: C6_12  and  C8_16 
REMARK    9  A    between atoms: C8_16  and  C9_17 
REMARK   10  A    between atoms: C9_17  and  C11_19 
REMARK   11  A    between atoms: C11_19  and  O4_20 
REMARK   12  A    between atoms: C11_19  and  C12_22 
REMARK   13  A    between atoms: C12_22  and  C13_23 
REMARK   14  A    between atoms: C13_23  and  C14_24 
REMARK   15  A    between atoms: C14_24  and  O5_25 
REMARK   16  A    between atoms: C14_24  and  C15_27 
REMARK   17  A    between atoms: C16_28  and  C17_29 
REMARK   18  A    between atoms: C24_36  and  O6_37 
ROOT
HETATM    1  C14 UNL     1      35.542  -8.074 -13.672  1.00  0.00     0.140 C 
ENDROOT
BRANCH   1   2
HETATM    2  C13 UNL     1      35.539  -8.554 -12.209  1.00  0.00     0.038 C 
BRANCH   2   3
HETATM    3  C12 UNL     1      34.415  -9.533 -11.995  1.00  0.00     0.035 C 
BRANCH   3   4
HETATM    4  C11 UNL     1      33.621  -9.122 -10.749  1.00  0.00     0.122 C 
BRANCH   4   5
HETATM    5  C9  UNL     1      32.377  -8.410 -11.109  1.00  0.00     0.013 C 
HETATM    6  C10 UNL     1      32.097  -8.882 -12.586  1.00  0.00     0.012 C 
BRANCH   5   7
HETATM    7  C8  UNL     1      32.310  -6.944 -11.061  1.00  0.00     0.044 C 
BRANCH   7   8
HETATM    8  C6  UNL     1      31.272  -6.300 -10.231  1.00  0.00     0.059 C 
HETATM    9  C7  UNL     1      30.480  -5.292 -10.971  1.00  0.00     0.046 C 
BRANCH   8  10
HETATM   10  C3  UNL     1      31.968  -5.758  -8.978  1.00  0.00     0.027 C 
BRANCH  10  11
HETATM   11  C2  UNL     1      32.712  -4.478  -9.218  1.00  0.00     0.003 C 
HETATM   12  C1  UNL     1      33.094  -3.674  -8.039  1.00  0.00     0.005 C 
ENDBRANCH  10  11
BRANCH  10  13
HETATM   13  C4  UNL     1      31.065  -5.568  -7.813  1.00  0.00     0.093 C 
BRANCH  13  14
HETATM   14  C5  UNL     1      31.229  -6.489  -6.682  1.00  0.00     0.135 C 
HETATM   15  N1  UNL     1      31.320  -6.159  -5.441  1.00  0.00    -0.251 N 
ATOM     16  H1  UNL     1      31.432  -6.873  -4.721  1.00  0.00     0.196 HD
BRANCH  14  17
HETATM   17  O1  UNL     1      31.298  -7.865  -6.996  1.00  0.00    -0.348 OA
ATOM     18  H1  UNL     1      32.030  -8.348  -6.630  1.00  0.00     0.219 HD
ENDBRANCH  14  17
BRANCH  15  19
HETATM   19  O2  UNL     1      31.262  -4.835  -5.105  1.00  0.00    -0.288 OA
ATOM     20  H2  UNL     1      30.965  -4.596  -4.235  1.00  0.00     0.244 HD
ENDBRANCH  15  19
ENDBRANCH  13  14
ENDBRANCH  10  13
ENDBRANCH   8  10
BRANCH   8  21
HETATM   21  O3  UNL     1      30.413  -7.291  -9.720  1.00  0.00    -0.390 OA
ATOM     22  H3  UNL     1      29.644  -6.797  -9.457  1.00  0.00     0.210 HD
ENDBRANCH   8  21
ENDBRANCH   7   8
ENDBRANCH   5   7
ENDBRANCH   4   5
BRANCH   4  23
HETATM   23  O4  UNL     1      33.555 -10.229  -9.955  1.00  0.00    -0.395 OA
ATOM     24  H4  UNL     1      34.314 -10.483  -9.442  1.00  0.00     0.210 HD
ENDBRANCH   4  23
ENDBRANCH   3   4
ENDBRANCH   2   3
ENDBRANCH   1   2
BRANCH   1  25
HETATM   25  O5  UNL     1      36.389  -8.988 -14.315  1.00  0.00    -0.392 OA
ATOM     26  H5  UNL     1      36.366  -8.711 -15.223  1.00  0.00     0.210 HD
ENDBRANCH   1  25
BRANCH   1  27
HETATM   27  C15 UNL     1      36.083  -6.721 -13.786  1.00  0.00     0.001 C 
HETATM   28  C16 UNL     1      35.482  -5.578 -13.731  1.00  0.00    -0.023 C 
BRANCH  28  29
HETATM   29  C17 UNL     1      34.144  -5.107 -13.550  1.00  0.00     0.016 C 
HETATM   30  C18 UNL     1      33.896  -3.944 -12.643  1.00  0.00     0.010 C 
HETATM   31  C19 UNL     1      32.604  -3.276 -13.178  1.00  0.00     0.007 C 
HETATM   32  C20 UNL     1      32.264  -4.116 -14.341  1.00  0.00     0.003 C 
HETATM   33  C21 UNL     1      33.583  -4.503 -14.896  1.00  0.00    -0.030 C 
HETATM   34  C32 UNL     1      31.290  -3.546 -15.327  1.00  0.00    -0.033 C 
HETATM   35  C22 UNL     1      34.527  -3.418 -15.248  1.00  0.00     0.016 C 
HETATM   36  C23 UNL     1      33.498  -5.556 -15.948  1.00  0.00     0.042 C 
HETATM   37  C24 UNL     1      32.091  -5.564 -16.536  1.00  0.00     0.124 C 
HETATM   38  C25 UNL     1      31.500  -4.181 -16.659  1.00  0.00     0.030 C 
HETATM   39  C26 UNL     1      30.315  -4.174 -17.568  1.00  0.00    -0.041 C 
HETATM   40  C27 UNL     1      30.123  -2.873 -18.313  1.00  0.00     0.015 C 
HETATM   41  C28 UNL     1      30.519  -5.243 -18.653  1.00  0.00     0.015 C 
HETATM   42  C29 UNL     1      29.013  -4.543 -16.897  1.00  0.00     0.009 C 
HETATM   43  C30 UNL     1      28.810  -3.615 -15.723  1.00  0.00     0.002 C 
HETATM   44  C31 UNL     1      29.915  -3.787 -14.734  1.00  0.00     0.010 C 
HETATM   45  C33 UNL     1      31.417  -2.015 -15.406  1.00  0.00     0.016 C 
BRANCH  37  46
HETATM   46  O6  UNL     1      31.287  -6.459 -15.873  1.00  0.00    -0.395 OA
ATOM     47  H6  UNL     1      31.514  -7.352 -16.103  1.00  0.00     0.210 HD
ENDBRANCH  37  46
ENDBRANCH  28  29
ENDBRANCH   1  27
TORSDOF 18
ENDMDL
MODEL 4
REMARK VINA RESULT: -6.877407015      2.323      5.761
REMARK  18 active torsions:
REMARK  status: ('A' for Active; 'I' for Inactive)
REMARK    1  A    between atoms: C2_2  and  C3_3 
REMARK    2  A    between atoms: C3_3  and  C4_4 
REMARK    3  A    between atoms: C3_3  and  C6_12 
REMARK    4  A    between atoms: C4_4  and  C5_5 
REMARK    5  A    between atoms: C5_5  and  O1_6 
REMARK    6  A    between atoms: N1_8  and  O2_10 
REMARK    7  A    between atoms: C6_12  and  O3_14 
REMARK    8  A    between atoms: C6_12  and  C8_16 
REMARK    9  A    between atoms: C8_16  and  C9_17 
REMARK   10  A    between atoms: C9_17  and  C11_19 
REMARK   11  A    between atoms: C11_19  and  O4_20 
REMARK   12  A    between atoms: C11_19  and  C12_22 
REMARK   13  A    between atoms: C12_22  and  C13_23 
REMARK   14  A    between atoms: C13_23  and  C14_24 
REMARK   15  A    between atoms: C14_24  and  O5_25 
REMARK   16  A    between atoms: C14_24  and  C15_27 
REMARK   17  A    between atoms: C16_28  and  C17_29 
REMARK   18  A    between atoms: C24_36  and  O6_37 
ROOT
HETATM    1  C14 UNL     1      31.509  -7.937  -9.368  1.00  0.00     0.140 C 
ENDROOT
BRANCH   1   2
HETATM    2  C13 UNL     1      32.475  -7.143  -8.467  1.00  0.00     0.038 C 
BRANCH   2   3
HETATM    3  C12 UNL     1      31.693  -6.371  -7.437  1.00  0.00     0.035 C 
BRANCH   3   4
HETATM    4  C11 UNL     1      31.374  -4.977  -7.991  1.00  0.00     0.122 C 
BRANCH   4   5
HETATM    5  C9  UNL     1      32.507  -4.431  -8.770  1.00  0.00     0.013 C 
HETATM    6  C10 UNL     1      33.361  -3.666  -7.691  1.00  0.00     0.012 C 
BRANCH   5   7
HETATM    7  C8  UNL     1      32.271  -3.534  -9.909  1.00  0.00     0.044 C 
BRANCH   7   8
HETATM    8  C6  UNL     1      32.033  -4.118 -11.244  1.00  0.00     0.059 C 
HETATM    9  C7  UNL     1      32.600  -5.478 -11.391  1.00  0.00     0.046 C 
BRANCH   8  10
HETATM   10  C3  UNL     1      32.546  -3.107 -12.276  1.00  0.00     0.027 C 
BRANCH  10  11
HETATM   11  C2  UNL     1      33.949  -3.381 -12.730  1.00  0.00     0.003 C 
HETATM   12  C1  UNL     1      34.308  -3.013 -14.115  1.00  0.00     0.005 C 
ENDBRANCH  10  11
BRANCH  10  13
HETATM   13  C4  UNL     1      31.681  -2.969 -13.476  1.00  0.00     0.093 C 
BRANCH  13  14
HETATM   14  C5  UNL     1      30.918  -1.722 -13.611  1.00  0.00     0.135 C 
HETATM   15  N1  UNL     1      30.868  -0.972 -14.656  1.00  0.00    -0.251 N 
ATOM     16  H1  UNL     1      30.308  -0.120 -14.657  1.00  0.00     0.196 HD
BRANCH  14  17
HETATM   17  O1  UNL     1      30.175  -1.313 -12.480  1.00  0.00    -0.348 OA
ATOM     18  H1  UNL     1      30.167  -0.382 -12.293  1.00  0.00     0.219 HD
ENDBRANCH  14  17
BRANCH  15  19
HETATM   19  O2  UNL     1      31.580  -1.339 -15.765  1.00  0.00    -0.288 OA
ATOM     20  H2  UNL     1      32.292  -0.782 -16.056  1.00  0.00     0.244 HD
ENDBRANCH  15  19
ENDBRANCH  13  14
ENDBRANCH  10  13
ENDBRANCH   8  10
BRANCH   8  21
HETATM   21  O3  UNL     1      30.649  -4.155 -11.489  1.00  0.00    -0.390 OA
ATOM     22  H3  UNL     1      30.338  -4.817 -10.883  1.00  0.00     0.210 HD
ENDBRANCH   8  21
ENDBRANCH   7   8
ENDBRANCH   5   7
ENDBRANCH   4   5
BRANCH   4  23
HETATM   23  O4  UNL     1      30.143  -5.069  -8.572  1.00  0.00    -0.395 OA
ATOM     24  H4  UNL     1      29.563  -4.316  -8.560  1.00  0.00     0.210 HD
ENDBRANCH   4  23
ENDBRANCH   3   4
ENDBRANCH   2   3
ENDBRANCH   1   2
BRANCH   1  25
HETATM   25  O5  UNL     1      30.454  -8.267  -8.506  1.00  0.00    -0.392 OA
ATOM     26  H5  UNL     1      30.548  -9.205  -8.390  1.00  0.00     0.210 HD
ENDBRANCH   1  25
BRANCH   1  27
HETATM   27  C15 UNL     1      32.140  -9.152  -9.881  1.00  0.00     0.001 C 
HETATM   28  C16 UNL     1      33.142  -9.293 -10.683  1.00  0.00    -0.023 C 
BRANCH  28  29
HETATM   29  C17 UNL     1      34.043  -8.438 -11.393  1.00  0.00     0.016 C 
HETATM   30  C18 UNL     1      35.511  -8.549 -11.133  1.00  0.00     0.010 C 
HETATM   31  C19 UNL     1      36.196  -8.079 -12.441  1.00  0.00     0.007 C 
HETATM   32  C20 UNL     1      35.048  -7.768 -13.312  1.00  0.00     0.003 C 
HETATM   33  C21 UNL     1      34.033  -8.781 -12.933  1.00  0.00    -0.030 C 
HETATM   34  C32 UNL     1      35.323  -7.649 -14.780  1.00  0.00    -0.033 C 
HETATM   35  C22 UNL     1      34.422 -10.207 -13.009  1.00  0.00     0.016 C 
HETATM   36  C23 UNL     1      32.687  -8.518 -13.520  1.00  0.00     0.042 C 
HETATM   37  C24 UNL     1      32.840  -7.621 -14.743  1.00  0.00     0.124 C 
HETATM   38  C25 UNL     1      34.077  -7.932 -15.547  1.00  0.00     0.030 C 
HETATM   39  C26 UNL     1      34.009  -7.325 -16.910  1.00  0.00    -0.041 C 
HETATM   40  C27 UNL     1      34.740  -8.116 -17.970  1.00  0.00     0.015 C 
HETATM   41  C28 UNL     1      32.541  -7.291 -17.361  1.00  0.00     0.015 C 
HETATM   42  C29 UNL     1      34.471  -5.887 -16.975  1.00  0.00     0.009 C 
HETATM   43  C30 UNL     1      35.870  -5.818 -16.412  1.00  0.00     0.002 C 
HETATM   44  C31 UNL     1      35.873  -6.249 -14.984  1.00  0.00     0.010 C 
HETATM   45  C33 UNL     1      36.471  -8.582 -15.204  1.00  0.00     0.016 C 
BRANCH  37  46
HETATM   46  O6  UNL     1      32.714  -6.297 -14.398  1.00  0.00    -0.395 OA
ATOM     47  H6  UNL     1      33.239  -5.748 -14.968  1.00  0.00     0.210 HD
ENDBRANCH  37  46
ENDBRANCH  28  29
ENDBRANCH   1  27
TORSDOF 18
ENDMDL
MODEL 5
REMARK VINA RESULT: -6.836697682      1.963      5.673
REMARK  18 active torsions:
REMARK  status: ('A' for Active; 'I' for Inactive)
REMARK    1  A    between atoms: C2_2  and  C3_3 
REMARK    2  A    between atoms: C3_3  and  C4_4 
REMARK    3  A    between atoms: C3_3  and  C6_12 
REMARK    4  A    between atoms: C4_4  and  C5_5 
REMARK    5  A    between atoms: C5_5  and  O1_6 
REMARK    6  A    between atoms: N1_8  and  O2_10 
REMARK    7  A    between atoms: C6_12  and  O3_14 
REMARK    8  A    between atoms: C6_12  and  C8_16 
REMARK    9  A    between atoms: C8_16  and  C9_17 
REMARK   10  A    between atoms: C9_17  and  C11_19 
REMARK   11  A    between atoms: C11_19  and  O4_20 
REMARK   12  A    between atoms: C11_19  and  C12_22 
REMARK   13  A    between atoms: C12_22  and  C13_23 
REMARK   14  A    between atoms: C13_23  and  C14_24 
REMARK   15  A    between atoms: C14_24  and  O5_25 
REMARK   16  A    between atoms: C14_24  and  C15_27 
REMARK   17  A    between atoms: C16_28  and  C17_29 
REMARK   18  A    between atoms: C24_36  and  O6_37 
ROOT
HETATM    1  C14 UNL     1      36.725  -8.259 -14.016  1.00  0.00     0.140 C 
ENDROOT
BRANCH   1   2
HETATM    2  C13 UNL     1      35.432  -8.838 -13.411  1.00  0.00     0.038 C 
BRANCH   2   3
HETATM    3  C12 UNL     1      35.006  -8.010 -12.228  1.00  0.00     0.035 C 
BRANCH   3   4
HETATM    4  C11 UNL     1      34.991  -8.895 -10.975  1.00  0.00     0.122 C 
BRANCH   4   5
HETATM    5  C9  UNL     1      33.706  -8.787 -10.252  1.00  0.00     0.013 C 
HETATM    6  C10 UNL     1      32.812  -9.898 -10.919  1.00  0.00     0.012 C 
BRANCH   5   7
HETATM    7  C8  UNL     1      32.957  -7.524 -10.236  1.00  0.00     0.044 C 
BRANCH   7   8
HETATM    8  C6  UNL     1      32.092  -7.217  -9.080  1.00  0.00     0.059 C 
HETATM    9  C7  UNL     1      30.659  -7.480  -9.342  1.00  0.00     0.046 C 
BRANCH   8  10
HETATM   10  C3  UNL     1      32.401  -5.777  -8.656  1.00  0.00     0.027 C 
BRANCH  10  11
HETATM   11  C2  UNL     1      32.696  -4.867  -9.811  1.00  0.00     0.003 C 
HETATM   12  C1  UNL     1      32.336  -3.441  -9.673  1.00  0.00     0.005 C 
ENDBRANCH  10  11
BRANCH  10  13
HETATM   13  C4  UNL     1      31.346  -5.148  -7.819  1.00  0.00     0.093 C 
BRANCH  13  14
HETATM   14  C5  UNL     1      31.488  -5.269  -6.362  1.00  0.00     0.135 C 
HETATM   15  N1  UNL     1      31.999  -4.388  -5.574  1.00  0.00    -0.251 N 
ATOM     16  H1  UNL     1      32.056  -4.560  -4.571  1.00  0.00     0.196 HD
BRANCH  14  17
HETATM   17  O1  UNL     1      31.020  -6.469  -5.781  1.00  0.00    -0.348 OA
ATOM     18  H1  UNL     1      31.079  -7.251  -6.317  1.00  0.00     0.219 HD
ENDBRANCH  14  17
BRANCH  15  19
HETATM   19  O2  UNL     1      32.466  -3.218  -6.107  1.00  0.00    -0.288 OA
ATOM     20  H2  UNL     1      32.925  -3.245  -6.938  1.00  0.00     0.244 HD
ENDBRANCH  15  19
ENDBRANCH  13  14
ENDBRANCH  10  13
ENDBRANCH   8  10
BRANCH   8  21
HETATM   21  O3  UNL     1      32.516  -7.977  -7.975  1.00  0.00    -0.390 OA
ATOM     22  H3  UNL     1      32.688  -8.832  -8.351  1.00  0.00     0.210 HD
ENDBRANCH   8  21
ENDBRANCH   7   8
ENDBRANCH   5   7
ENDBRANCH   4   5
BRANCH   4  23
HETATM   23  O4  UNL     1      35.439 -10.122 -11.369  1.00  0.00    -0.395 OA
ATOM     24  H4  UNL     1      35.340 -10.387 -12.276  1.00  0.00     0.210 HD
ENDBRANCH   4  23
ENDBRANCH   3   4
ENDBRANCH   2   3
ENDBRANCH   1   2
BRANCH   1  25
HETATM   25  O5  UNL     1      37.075  -7.236 -13.122  1.00  0.00    -0.392 OA
ATOM     26  H5  UNL     1      37.611  -6.656 -13.648  1.00  0.00     0.210 HD
ENDBRANCH   1  25
BRANCH   1  27
HETATM   27  C15 UNL     1      36.487  -7.704 -15.347  1.00  0.00     0.001 C 
HETATM   28  C16 UNL     1      35.945  -6.584 -15.696  1.00  0.00    -0.023 C 
BRANCH  28  29
HETATM   29  C17 UNL     1      35.372  -5.450 -15.040  1.00  0.00     0.016 C 
HETATM   30  C18 UNL     1      35.843  -4.079 -15.408  1.00  0.00     0.010 C 
HETATM   31  C19 UNL     1      34.647  -3.141 -15.109  1.00  0.00     0.007 C 
HETATM   32  C20 UNL     1      33.618  -4.076 -14.619  1.00  0.00     0.003 C 
HETATM   33  C21 UNL     1      33.847  -5.303 -15.419  1.00  0.00    -0.030 C 
HETATM   34  C32 UNL     1      32.206  -3.576 -14.593  1.00  0.00    -0.033 C 
HETATM   35  C22 UNL     1      33.832  -5.177 -16.894  1.00  0.00     0.016 C 
HETATM   36  C23 UNL     1      33.071  -6.480 -14.932  1.00  0.00     0.042 C 
HETATM   37  C24 UNL     1      31.881  -5.992 -14.113  1.00  0.00     0.124 C 
HETATM   38  C25 UNL     1      31.266  -4.731 -14.667  1.00  0.00     0.030 C 
HETATM   39  C26 UNL     1      29.907  -4.491 -14.097  1.00  0.00    -0.041 C 
HETATM   40  C27 UNL     1      28.966  -3.774 -15.038  1.00  0.00     0.015 C 
HETATM   41  C28 UNL     1      29.247  -5.848 -13.809  1.00  0.00     0.015 C 
HETATM   42  C29 UNL     1      29.907  -3.768 -12.770  1.00  0.00     0.009 C 
HETATM   43  C30 UNL     1      30.667  -2.474 -12.941  1.00  0.00     0.002 C 
HETATM   44  C31 UNL     1      32.082  -2.755 -13.324  1.00  0.00     0.010 C 
HETATM   45  C33 UNL     1      31.955  -2.572 -15.732  1.00  0.00     0.016 C 
BRANCH  37  46
HETATM   46  O6  UNL     1      32.202  -5.919 -12.779  1.00  0.00    -0.395 OA
ATOM     47  H6  UNL     1      31.543  -5.431 -12.299  1.00  0.00     0.210 HD
ENDBRANCH  37  46
ENDBRANCH  28  29
ENDBRANCH   1  27
TORSDOF 18
ENDMDL
