MODEL 1
REMARK VINA RESULT: -8.159221836      0.000      0.000
REMARK  15 active torsions:
REMARK  status: ('A' for Active; 'I' for Inactive)
REMARK    1  A    between atoms: C4_4  and  C5_5 
REMARK    2  A    between atoms: C5_5  and  C6_6 
REMARK    3  A    between atoms: C6_6  and  O1_7 
REMARK    4  A    between atoms: C6_6  and  C7_9 
REMARK    5  A    between atoms: C7_9  and  O2_10 
REMARK    6  A    between atoms: C7_9  and  C8_12 
REMARK    7  A    between atoms: C8_12  and  O3_13 
REMARK    8  A    between atoms: C10_16  and  C11_17 
REMARK    9  A    between atoms: C11_17  and  C12_18 
REMARK   10  A    between atoms: C12_18  and  C13_19 
REMARK   11  A    between atoms: C13_19  and  C14_20 
REMARK   12  A    between atoms: C14_20  and  C15_21 
REMARK   13  A    between atoms: C15_21  and  C16_22 
REMARK   14  A    between atoms: C26_32  and  O4_34 
REMARK   15  A    between atoms: C28_36  and  O5_37 
ROOT
HETATM    1  C14 UNL     1      34.030  -2.746 -14.012  1.00  0.00     0.004 C 
ENDROOT
BRANCH   1   2
HETATM    2  C13 UNL     1      32.762  -2.890 -13.192  1.00  0.00     0.005 C 
BRANCH   2   3
HETATM    3  C12 UNL     1      31.948  -4.006 -13.789  1.00  0.00     0.038 C 
BRANCH   3   4
HETATM    4  C11 UNL     1      30.658  -4.233 -13.064  1.00  0.00    -0.038 C 
HETATM    5  C34 UNL     1      29.547  -4.062 -13.818  1.00  0.00     0.093 C 
HETATM    6  C35 UNL     1      28.223  -4.289 -13.205  1.00  0.00     0.082 C 
HETATM    7  F1  UNL     1      29.622  -3.688 -15.117  1.00  0.00    -0.211 F 
BRANCH   4   8
HETATM    8  C10 UNL     1      30.523  -4.635 -11.671  1.00  0.00     0.045 C 
HETATM    9  C2  UNL     1      30.359  -6.080 -11.409  1.00  0.00    -0.081 C 
HETATM   10  C1  UNL     1      30.136  -7.064 -12.231  1.00  0.00     0.015 C 
HETATM   11  C3  UNL     1      30.493  -6.218  -9.910  1.00  0.00     0.039 C 
HETATM   12  C4  UNL     1      31.086  -4.895  -9.429  1.00  0.00    -0.007 C 
HETATM   13  C9  UNL     1      31.648  -4.282 -10.741  1.00  0.00     0.018 C 
BRANCH  12  14
HETATM   14  C5  UNL     1      32.258  -5.128  -8.505  1.00  0.00     0.039 C 
BRANCH  14  15
HETATM   15  C6  UNL     1      32.428  -3.911  -7.632  1.00  0.00     0.149 C 
BRANCH  15  16
HETATM   16  O1  UNL     1      33.682  -3.365  -7.860  1.00  0.00    -0.393 OA
ATOM     17  H1  UNL     1      33.583  -2.445  -8.078  1.00  0.00     0.210 HD
ENDBRANCH  15  16
BRANCH  15  18
HETATM   18  C7  UNL     1      32.142  -4.218  -6.196  1.00  0.00     0.170 C 
BRANCH  18  19
HETATM   19  O2  UNL     1      31.344  -3.180  -5.705  1.00  0.00    -0.391 OA
ATOM     20  H2  UNL     1      30.911  -3.506  -4.925  1.00  0.00     0.210 HD
ENDBRANCH  18  19
BRANCH  18  21
HETATM   21  C8  UNL     1      31.409  -5.541  -6.028  1.00  0.00     0.198 C 
BRANCH  21  22
HETATM   22  O3  UNL     1      31.400  -5.893  -4.670  1.00  0.00    -0.398 OA
ATOM     23  H3  UNL     1      30.802  -6.619  -4.541  1.00  0.00     0.209 HD
ENDBRANCH  21  22
ENDBRANCH  18  21
ENDBRANCH  15  18
ENDBRANCH  14  15
ENDBRANCH  12  14
ENDBRANCH   4   8
ENDBRANCH   3   4
ENDBRANCH   2   3
ENDBRANCH   1   2
BRANCH   1  24
HETATM   24  C15 UNL     1      35.060  -3.827 -13.650  1.00  0.00     0.027 C 
BRANCH  24  25
HETATM   25  C16 UNL     1      35.434  -4.701 -14.798  1.00  0.00    -0.024 C 
HETATM   26  C17 UNL     1      34.559  -5.738 -15.289  1.00  0.00    -0.078 C 
HETATM   27  C18 UNL     1      35.277  -6.378 -16.528  1.00  0.00     0.034 C 
HETATM   28  C33 UNL     1      33.806  -6.759 -14.573  1.00  0.00     0.031 C 
HETATM   29  C19 UNL     1      34.212  -6.471 -17.595  1.00  0.00     0.009 C 
HETATM   30  C20 UNL     1      33.090  -7.262 -16.981  1.00  0.00    -0.013 C 
HETATM   31  C21 UNL     1      31.816  -6.472 -17.139  1.00  0.00     0.010 C 
HETATM   32  C22 UNL     1      33.347  -7.778 -15.637  1.00  0.00     0.002 C 
HETATM   33  C23 UNL     1      32.064  -8.415 -15.146  1.00  0.00     0.033 C 
HETATM   34  C24 UNL     1      32.560  -9.270 -13.997  1.00  0.00    -0.020 C 
HETATM   35  C25 UNL     1      33.569  -8.830 -13.266  1.00  0.00    -0.039 C 
HETATM   36  C26 UNL     1      33.949  -9.801 -12.160  1.00  0.00     0.104 C 
HETATM   37  C31 UNL     1      34.285  -7.527 -13.413  1.00  0.00    -0.010 C 
HETATM   38  C27 UNL     1      32.746 -10.709 -11.833  1.00  0.00     0.053 C 
HETATM   39  C28 UNL     1      34.176  -9.023 -10.892  1.00  0.00     0.156 C 
HETATM   40  C29 UNL     1      33.354  -7.763 -11.056  1.00  0.00     0.036 C 
HETATM   41  C30 UNL     1      33.904  -6.834 -12.075  1.00  0.00     0.017 C 
HETATM   42  C32 UNL     1      35.754  -7.852 -13.414  1.00  0.00     0.021 C 
BRANCH  36  43
HETATM   43  O4  UNL     1      34.948 -10.667 -12.507  1.00  0.00    -0.383 OA
ATOM     44  H4  UNL     1      34.849 -11.534 -12.133  1.00  0.00     0.211 HD
ENDBRANCH  36  43
BRANCH  39  45
HETATM   45  O5  UNL     1      33.621  -9.666  -9.757  1.00  0.00    -0.392 OA
ATOM     46  H5  UNL     1      33.846  -9.226  -8.945  1.00  0.00     0.210 HD
ENDBRANCH  39  45
ENDBRANCH  24  25
ENDBRANCH   1  24
TORSDOF 15
ENDMDL
MODEL 2
REMARK VINA RESULT: -7.965714474      1.725      4.040
REMARK  15 active torsions:
REMARK  status: ('A' for Active; 'I' for Inactive)
REMARK    1  A    between atoms: C4_4  and  C5_5 
REMARK    2  A    between atoms: C5_5  and  C6_6 
REMARK    3  A    between atoms: C6_6  and  O1_7 
REMARK    4  A    between atoms: C6_6  and  C7_9 
REMARK    5  A    between atoms: C7_9  and  O2_10 
REMARK    6  A    between atoms: C7_9  and  C8_12 
REMARK    7  A    between atoms: C8_12  and  O3_13 
REMARK    8  A    between atoms: C10_16  and  C11_17 
REMARK    9  A    between atoms: C11_17  and  C12_18 
REMARK   10  A    between atoms: C12_18  and  C13_19 
REMARK   11  A    between atoms: C13_19  and  C14_20 
REMARK   12  A    between atoms: C14_20  and  C15_21 
REMARK   13  A    between atoms: C15_21  and  C16_22 
REMARK   14  A    between atoms: C26_32  and  O4_34 
REMARK   15  A    between atoms: C28_36  and  O5_37 
ROOT
HETATM    1  C14 UNL     1      31.191  -5.959 -16.421  1.00  0.00     0.004 C 
ENDROOT
BRANCH   1   2
HETATM    2  C13 UNL     1      32.347  -5.377 -15.631  1.00  0.00     0.005 C 
BRANCH   2   3
HETATM    3  C12 UNL     1      31.779  -4.448 -14.592  1.00  0.00     0.038 C 
BRANCH   3   4
HETATM    4  C11 UNL     1      32.818  -3.565 -13.975  1.00  0.00    -0.038 C 
HETATM    5  C34 UNL     1      33.739  -3.083 -14.841  1.00  0.00     0.093 C 
HETATM    6  C35 UNL     1      34.793  -2.179 -14.338  1.00  0.00     0.082 C 
HETATM    7  F1  UNL     1      33.718  -3.412 -16.155  1.00  0.00    -0.211 F 
BRANCH   4   8
HETATM    8  C10 UNL     1      32.886  -3.182 -12.571  1.00  0.00     0.045 C 
HETATM    9  C2  UNL     1      31.717  -2.463 -12.021  1.00  0.00    -0.081 C 
HETATM   10  C1  UNL     1      30.686  -1.948 -12.624  1.00  0.00     0.015 C 
HETATM   11  C3  UNL     1      31.959  -2.421 -10.530  1.00  0.00     0.039 C 
HETATM   12  C4  UNL     1      33.073  -3.432 -10.267  1.00  0.00    -0.007 C 
HETATM   13  C9  UNL     1      33.068  -4.282 -11.567  1.00  0.00     0.018 C 
BRANCH  12  14
HETATM   14  C5  UNL     1      32.712  -4.355  -9.126  1.00  0.00     0.039 C 
BRANCH  14  15
HETATM   15  C6  UNL     1      32.850  -3.594  -7.833  1.00  0.00     0.149 C 
BRANCH  15  16
HETATM   16  O1  UNL     1      34.013  -2.839  -7.877  1.00  0.00    -0.393 OA
ATOM     17  H1  UNL     1      33.808  -1.943  -7.635  1.00  0.00     0.210 HD
ENDBRANCH  15  16
BRANCH  15  18
HETATM   18  C7  UNL     1      32.747  -4.499  -6.645  1.00  0.00     0.170 C 
BRANCH  18  19
HETATM   19  O2  UNL     1      33.344  -3.834  -5.569  1.00  0.00    -0.391 OA
ATOM     20  H2  UNL     1      32.717  -3.191  -5.258  1.00  0.00     0.210 HD
ENDBRANCH  18  19
BRANCH  18  21
HETATM   21  C8  UNL     1      31.303  -4.827  -6.299  1.00  0.00     0.198 C 
BRANCH  21  22
HETATM   22  O3  UNL     1      31.265  -5.486  -5.061  1.00  0.00    -0.398 OA
ATOM     23  H3  UNL     1      30.527  -6.083  -5.049  1.00  0.00     0.209 HD
ENDBRANCH  21  22
ENDBRANCH  18  21
ENDBRANCH  15  18
ENDBRANCH  14  15
ENDBRANCH  12  14
ENDBRANCH   4   8
ENDBRANCH   3   4
ENDBRANCH   2   3
ENDBRANCH   1   2
BRANCH   1  24
HETATM   24  C15 UNL     1      31.229  -7.494 -16.425  1.00  0.00     0.027 C 
BRANCH  24  25
HETATM   25  C16 UNL     1      30.130  -8.119 -15.636  1.00  0.00    -0.024 C 
HETATM   26  C17 UNL     1      29.849  -7.732 -14.274  1.00  0.00    -0.078 C 
HETATM   27  C18 UNL     1      28.597  -8.561 -13.824  1.00  0.00     0.034 C 
HETATM   28  C33 UNL     1      30.744  -7.536 -13.141  1.00  0.00     0.031 C 
HETATM   29  C19 UNL     1      27.682  -7.562 -13.157  1.00  0.00     0.009 C 
HETATM   30  C20 UNL     1      28.500  -6.927 -12.066  1.00  0.00    -0.013 C 
HETATM   31  C21 UNL     1      28.426  -5.431 -12.233  1.00  0.00     0.010 C 
HETATM   32  C22 UNL     1      29.844  -7.475 -11.889  1.00  0.00     0.002 C 
HETATM   33  C23 UNL     1      30.546  -6.621 -10.855  1.00  0.00     0.033 C 
HETATM   34  C24 UNL     1      31.700  -7.514 -10.445  1.00  0.00    -0.020 C 
HETATM   35  C25 UNL     1      32.257  -8.293 -11.355  1.00  0.00    -0.039 C 
HETATM   36  C26 UNL     1      33.394  -9.126 -10.787  1.00  0.00     0.104 C 
HETATM   37  C31 UNL     1      31.903  -8.377 -12.804  1.00  0.00    -0.010 C 
HETATM   38  C27 UNL     1      33.949  -8.447  -9.518  1.00  0.00     0.053 C 
HETATM   39  C28 UNL     1      34.546  -9.094 -11.754  1.00  0.00     0.156 C 
HETATM   40  C29 UNL     1      34.368  -7.807 -12.529  1.00  0.00     0.036 C 
HETATM   41  C30 UNL     1      33.207  -7.837 -13.455  1.00  0.00     0.017 C 
HETATM   42  C32 UNL     1      31.752  -9.841 -13.115  1.00  0.00     0.021 C 
BRANCH  36  43
HETATM   43  O4  UNL     1      33.009 -10.369 -10.371  1.00  0.00    -0.383 OA
ATOM     44  H4  UNL     1      33.612 -10.769  -9.755  1.00  0.00     0.211 HD
ENDBRANCH  36  43
BRANCH  39  45
HETATM   45  O5  UNL     1      35.796  -8.946 -11.100  1.00  0.00    -0.392 OA
ATOM     46  H5  UNL     1      36.526  -9.199 -11.654  1.00  0.00     0.210 HD
ENDBRANCH  39  45
ENDBRANCH  24  25
ENDBRANCH   1  24
TORSDOF 15
ENDMDL
MODEL 3
REMARK VINA RESULT: -7.872445380      1.890      3.556
REMARK  15 active torsions:
REMARK  status: ('A' for Active; 'I' for Inactive)
REMARK    1  A    between atoms: C4_4  and  C5_5 
REMARK    2  A    between atoms: C5_5  and  C6_6 
REMARK    3  A    between atoms: C6_6  and  O1_7 
REMARK    4  A    between atoms: C6_6  and  C7_9 
REMARK    5  A    between atoms: C7_9  and  O2_10 
REMARK    6  A    between atoms: C7_9  and  C8_12 
REMARK    7  A    between atoms: C8_12  and  O3_13 
REMARK    8  A    between atoms: C10_16  and  C11_17 
REMARK    9  A    between atoms: C11_17  and  C12_18 
REMARK   10  A    between atoms: C12_18  and  C13_19 
REMARK   11  A    between atoms: C13_19  and  C14_20 
REMARK   12  A    between atoms: C14_20  and  C15_21 
REMARK   13  A    between atoms: C15_21  and  C16_22 
REMARK   14  A    between atoms: C26_32  and  O4_34 
REMARK   15  A    between atoms: C28_36  and  O5_37 
ROOT
HETATM    1  C14 UNL     1      31.003  -3.721 -16.187  1.00  0.00     0.004 C 
ENDROOT
BRANCH   1   2
HETATM    2  C13 UNL     1      30.735  -3.905 -14.706  1.00  0.00     0.005 C 
BRANCH   2   3
HETATM    3  C12 UNL     1      31.311  -2.720 -13.978  1.00  0.00     0.038 C 
BRANCH   3   4
HETATM    4  C11 UNL     1      32.633  -3.016 -13.343  1.00  0.00    -0.038 C 
HETATM    5  C34 UNL     1      33.706  -2.565 -14.033  1.00  0.00     0.093 C 
HETATM    6  C35 UNL     1      35.058  -2.782 -13.479  1.00  0.00     0.082 C 
HETATM    7  F1  UNL     1      33.570  -1.924 -15.218  1.00  0.00    -0.211 F 
BRANCH   4   8
HETATM    8  C10 UNL     1      32.834  -3.702 -12.074  1.00  0.00     0.045 C 
HETATM    9  C2  UNL     1      32.358  -3.006 -10.860  1.00  0.00    -0.081 C 
HETATM   10  C1  UNL     1      31.935  -1.786 -10.700  1.00  0.00     0.015 C 
HETATM   11  C3  UNL     1      32.469  -4.035  -9.759  1.00  0.00     0.039 C 
HETATM   12  C4  UNL     1      32.663  -5.374 -10.467  1.00  0.00    -0.007 C 
HETATM   13  C9  UNL     1      32.206  -5.056 -11.917  1.00  0.00     0.018 C 
BRANCH  12  14
HETATM   14  C5  UNL     1      31.721  -6.421  -9.919  1.00  0.00     0.039 C 
BRANCH  14  15
HETATM   15  C6  UNL     1      32.244  -6.883  -8.583  1.00  0.00     0.149 C 
BRANCH  15  16
HETATM   16  O1  UNL     1      32.809  -8.140  -8.732  1.00  0.00    -0.393 OA
ATOM     17  H1  UNL     1      32.419  -8.566  -9.486  1.00  0.00     0.210 HD
ENDBRANCH  15  16
BRANCH  15  18
HETATM   18  C7  UNL     1      31.193  -6.800  -7.521  1.00  0.00     0.170 C 
BRANCH  18  19
HETATM   19  O2  UNL     1      30.930  -8.108  -7.102  1.00  0.00    -0.391 OA
ATOM     20  H2  UNL     1      30.302  -8.052  -6.391  1.00  0.00     0.210 HD
ENDBRANCH  18  19
BRANCH  18  21
HETATM   21  C8  UNL     1      31.647  -5.970  -6.330  1.00  0.00     0.198 C 
BRANCH  21  22
HETATM   22  O3  UNL     1      30.870  -6.306  -5.212  1.00  0.00    -0.398 OA
ATOM     23  H3  UNL     1      31.442  -6.586  -4.508  1.00  0.00     0.209 HD
ENDBRANCH  21  22
ENDBRANCH  18  21
ENDBRANCH  15  18
ENDBRANCH  14  15
ENDBRANCH  12  14
ENDBRANCH   4   8
ENDBRANCH   3   4
ENDBRANCH   2   3
ENDBRANCH   1   2
BRANCH   1  24
HETATM   24  C15 UNL     1      32.060  -4.713 -16.695  1.00  0.00     0.027 C 
BRANCH  24  25
HETATM   25  C16 UNL     1      31.522  -6.081 -16.940  1.00  0.00    -0.024 C 
HETATM   26  C17 UNL     1      31.226  -6.992 -15.860  1.00  0.00    -0.078 C 
HETATM   27  C18 UNL     1      30.627  -8.284 -16.518  1.00  0.00     0.034 C 
HETATM   28  C33 UNL     1      32.007  -7.354 -14.685  1.00  0.00     0.031 C 
HETATM   29  C19 UNL     1      29.405  -8.614 -15.694  1.00  0.00     0.009 C 
HETATM   30  C20 UNL     1      29.893  -8.741 -14.277  1.00  0.00    -0.013 C 
HETATM   31  C21 UNL     1      29.049  -7.845 -13.407  1.00  0.00     0.010 C 
HETATM   32  C22 UNL     1      31.338  -8.614 -14.097  1.00  0.00     0.002 C 
HETATM   33  C23 UNL     1      31.609  -8.629 -12.607  1.00  0.00     0.033 C 
HETATM   34  C24 UNL     1      33.092  -8.937 -12.563  1.00  0.00    -0.020 C 
HETATM   35  C25 UNL     1      33.871  -8.456 -13.516  1.00  0.00    -0.039 C 
HETATM   36  C26 UNL     1      35.325  -8.855 -13.331  1.00  0.00     0.104 C 
HETATM   37  C31 UNL     1      33.461  -7.579 -14.654  1.00  0.00    -0.010 C 
HETATM   38  C27 UNL     1      35.585  -9.198 -11.851  1.00  0.00     0.053 C 
HETATM   39  C28 UNL     1      36.193  -7.652 -13.587  1.00  0.00     0.156 C 
HETATM   40  C29 UNL     1      35.303  -6.463 -13.297  1.00  0.00     0.036 C 
HETATM   41  C30 UNL     1      34.231  -6.274 -14.307  1.00  0.00     0.017 C 
HETATM   42  C32 UNL     1      34.047  -8.198 -15.893  1.00  0.00     0.021 C 
BRANCH  36  43
HETATM   43  O4  UNL     1      35.675  -9.988 -14.012  1.00  0.00    -0.383 OA
ATOM     44  H4  UNL     1      36.556  -9.964 -14.365  1.00  0.00     0.211 HD
ENDBRANCH  36  43
BRANCH  39  45
HETATM   45  O5  UNL     1      37.252  -7.541 -12.651  1.00  0.00    -0.392 OA
ATOM     46  H5  UNL     1      37.031  -7.921 -11.808  1.00  0.00     0.210 HD
ENDBRANCH  39  45
ENDBRANCH  24  25
ENDBRANCH   1  24
TORSDOF 15
ENDMDL
MODEL 4
REMARK VINA RESULT: -7.786606301      3.195      5.743
REMARK  15 active torsions:
REMARK  status: ('A' for Active; 'I' for Inactive)
REMARK    1  A    between atoms: C4_4  and  C5_5 
REMARK    2  A    between atoms: C5_5  and  C6_6 
REMARK    3  A    between atoms: C6_6  and  O1_7 
REMARK    4  A    between atoms: C6_6  and  C7_9 
REMARK    5  A    between atoms: C7_9  and  O2_10 
REMARK    6  A    between atoms: C7_9  and  C8_12 
REMARK    7  A    between atoms: C8_12  and  O3_13 
REMARK    8  A    between atoms: C10_16  and  C11_17 
REMARK    9  A    between atoms: C11_17  and  C12_18 
REMARK   10  A    between atoms: C12_18  and  C13_19 
REMARK   11  A    between atoms: C13_19  and  C14_20 
REMARK   12  A    between atoms: C14_20  and  C15_21 
REMARK   13  A    between atoms: C15_21  and  C16_22 
REMARK   14  A    between atoms: C26_32  and  O4_34 
REMARK   15  A    between atoms: C28_36  and  O5_37 
ROOT
HETATM    1  C14 UNL     1      35.876  -8.551 -15.184  1.00  0.00     0.004 C 
ENDROOT
BRANCH   1   2
HETATM    2  C13 UNL     1      35.437  -9.413 -14.016  1.00  0.00     0.005 C 
BRANCH   2   3
HETATM    3  C12 UNL     1      35.469  -8.563 -12.775  1.00  0.00     0.038 C 
BRANCH   3   4
HETATM    4  C11 UNL     1      34.213  -8.668 -11.968  1.00  0.00    -0.038 C 
HETATM    5  C34 UNL     1      34.134  -9.766 -11.182  1.00  0.00     0.093 C 
HETATM    6  C35 UNL     1      32.946  -9.951 -10.324  1.00  0.00     0.082 C 
HETATM    7  F1  UNL     1      35.117 -10.697 -11.164  1.00  0.00    -0.211 F 
BRANCH   4   8
HETATM    8  C10 UNL     1      33.127  -7.696 -11.952  1.00  0.00     0.045 C 
HETATM    9  C2  UNL     1      31.970  -7.978 -12.826  1.00  0.00    -0.081 C 
HETATM   10  C1  UNL     1      31.817  -8.873 -13.758  1.00  0.00     0.015 C 
HETATM   11  C3  UNL     1      30.926  -6.963 -12.422  1.00  0.00     0.039 C 
HETATM   12  C4  UNL     1      31.409  -6.387 -11.093  1.00  0.00    -0.007 C 
HETATM   13  C9  UNL     1      32.459  -7.435 -10.633  1.00  0.00     0.018 C 
BRANCH  12  14
HETATM   14  C5  UNL     1      30.300  -6.384 -10.066  1.00  0.00     0.039 C 
BRANCH  14  15
HETATM   15  C6  UNL     1      30.884  -6.766  -8.730  1.00  0.00     0.149 C 
BRANCH  15  16
HETATM   16  O1  UNL     1      29.993  -7.599  -8.071  1.00  0.00    -0.393 OA
ATOM     17  H1  UNL     1      30.223  -8.503  -8.254  1.00  0.00     0.210 HD
ENDBRANCH  15  16
BRANCH  15  18
HETATM   18  C7  UNL     1      31.298  -5.562  -7.944  1.00  0.00     0.170 C 
BRANCH  18  19
HETATM   19  O2  UNL     1      30.151  -4.788  -7.743  1.00  0.00    -0.391 OA
ATOM     20  H2  UNL     1      30.041  -4.247  -8.517  1.00  0.00     0.210 HD
ENDBRANCH  18  19
BRANCH  18  21
HETATM   21  C8  UNL     1      31.898  -5.936  -6.597  1.00  0.00     0.198 C 
BRANCH  21  22
HETATM   22  O3  UNL     1      30.913  -5.813  -5.605  1.00  0.00    -0.398 OA
ATOM     23  H3  UNL     1      31.330  -5.802  -4.752  1.00  0.00     0.209 HD
ENDBRANCH  21  22
ENDBRANCH  18  21
ENDBRANCH  15  18
ENDBRANCH  14  15
ENDBRANCH  12  14
ENDBRANCH   4   8
ENDBRANCH   3   4
ENDBRANCH   2   3
ENDBRANCH   1   2
BRANCH   1  24
HETATM   24  C15 UNL     1      34.781  -7.555 -15.592  1.00  0.00     0.027 C 
BRANCH  24  25
HETATM   25  C16 UNL     1      35.203  -6.129 -15.484  1.00  0.00    -0.024 C 
HETATM   26  C17 UNL     1      34.412  -5.148 -14.782  1.00  0.00    -0.078 C 
HETATM   27  C18 UNL     1      35.217  -3.803 -14.839  1.00  0.00     0.034 C 
HETATM   28  C33 UNL     1      32.983  -4.869 -14.833  1.00  0.00     0.031 C 
HETATM   29  C19 UNL     1      35.180  -3.261 -13.429  1.00  0.00     0.009 C 
HETATM   30  C20 UNL     1      33.722  -3.162 -13.072  1.00  0.00    -0.013 C 
HETATM   31  C21 UNL     1      33.507  -3.888 -11.769  1.00  0.00     0.010 C 
HETATM   32  C22 UNL     1      32.788  -3.502 -14.143  1.00  0.00     0.002 C 
HETATM   33  C23 UNL     1      31.395  -3.477 -13.551  1.00  0.00     0.033 C 
HETATM   34  C24 UNL     1      30.529  -3.399 -14.793  1.00  0.00    -0.020 C 
HETATM   35  C25 UNL     1      30.926  -4.026 -15.886  1.00  0.00    -0.039 C 
HETATM   36  C26 UNL     1      29.954  -3.848 -17.040  1.00  0.00     0.104 C 
HETATM   37  C31 UNL     1      32.149  -4.869 -16.045  1.00  0.00    -0.010 C 
HETATM   38  C27 UNL     1      28.556  -3.499 -16.491  1.00  0.00     0.053 C 
HETATM   39  C28 UNL     1      29.760  -5.178 -17.718  1.00  0.00     0.156 C 
HETATM   40  C29 UNL     1      30.071  -6.206 -16.652  1.00  0.00     0.036 C 
HETATM   41  C30 UNL     1      31.511  -6.263 -16.297  1.00  0.00     0.017 C 
HETATM   42  C32 UNL     1      32.829  -4.390 -17.298  1.00  0.00     0.021 C 
BRANCH  36  43
HETATM   43  O4  UNL     1      30.268  -2.806 -17.867  1.00  0.00    -0.383 OA
ATOM     44  H4  UNL     1      29.810  -2.001 -17.658  1.00  0.00     0.211 HD
ENDBRANCH  36  43
BRANCH  39  45
HETATM   45  O5  UNL     1      28.404  -5.417 -18.060  1.00  0.00    -0.392 OA
ATOM     46  H5  UNL     1      28.056  -6.194 -17.637  1.00  0.00     0.210 HD
ENDBRANCH  39  45
ENDBRANCH  24  25
ENDBRANCH   1  24
TORSDOF 15
ENDMDL
MODEL 5
REMARK VINA RESULT: -7.728146658      3.397      6.192
REMARK  15 active torsions:
REMARK  status: ('A' for Active; 'I' for Inactive)
REMARK    1  A    between atoms: C4_4  and  C5_5 
REMARK    2  A    between atoms: C5_5  and  C6_6 
REMARK    3  A    between atoms: C6_6  and  O1_7 
REMARK    4  A    between atoms: C6_6  and  C7_9 
REMARK    5  A    between atoms: C7_9  and  O2_10 
REMARK    6  A    between atoms: C7_9  and  C8_12 
REMARK    7  A    between atoms: C8_12  and  O3_13 
REMARK    8  A    between atoms: C10_16  and  C11_17 
REMARK    9  A    between atoms: C11_17  and  C12_18 
REMARK   10  A    between atoms: C12_18  and  C13_19 
REMARK   11  A    between atoms: C13_19  and  C14_20 
REMARK   12  A    between atoms: C14_20  and  C15_21 
REMARK   13  A    between atoms: C15_21  and  C16_22 
REMARK   14  A    between atoms: C26_32  and  O4_34 
REMARK   15  A    between atoms: C28_36  and  O5_37 
ROOT
HETATM    1  C14 UNL     1      35.456  -5.433 -14.856  1.00  0.00     0.004 C 
ENDROOT
BRANCH   1   2
HETATM    2  C13 UNL     1      35.344  -5.782 -13.385  1.00  0.00     0.005 C 
BRANCH   2   3
HETATM    3  C12 UNL     1      35.088  -7.261 -13.277  1.00  0.00     0.038 C 
BRANCH   3   4
HETATM    4  C11 UNL     1      33.653  -7.582 -12.998  1.00  0.00    -0.038 C 
HETATM    5  C34 UNL     1      32.935  -7.955 -14.082  1.00  0.00     0.093 C 
HETATM    6  C35 UNL     1      31.514  -8.320 -13.911  1.00  0.00     0.082 C 
HETATM    7  F1  UNL     1      33.487  -8.001 -15.317  1.00  0.00    -0.211 F 
BRANCH   4   8
HETATM    8  C10 UNL     1      33.010  -7.547 -11.690  1.00  0.00     0.045 C 
HETATM    9  C2  UNL     1      33.638  -8.350 -10.620  1.00  0.00    -0.081 C 
HETATM   10  C1  UNL     1      34.587  -9.238 -10.681  1.00  0.00     0.015 C 
HETATM   11  C3  UNL     1      32.923  -7.932  -9.356  1.00  0.00     0.039 C 
HETATM   12  C4  UNL     1      32.171  -6.653  -9.715  1.00  0.00    -0.007 C 
HETATM   13  C9  UNL     1      32.872  -6.208 -11.028  1.00  0.00     0.018 C 
BRANCH  12  14
HETATM   14  C5  UNL     1      32.415  -5.571  -8.688  1.00  0.00     0.039 C 
BRANCH  14  15
HETATM   15  C6  UNL     1      31.222  -5.509  -7.767  1.00  0.00     0.149 C 
BRANCH  15  16
HETATM   16  O1  UNL     1      30.162  -4.925  -8.444  1.00  0.00    -0.393 OA
ATOM     17  H1  UNL     1      29.591  -5.610  -8.772  1.00  0.00     0.210 HD
ENDBRANCH  15  16
BRANCH  15  18
HETATM   18  C7  UNL     1      31.563  -4.850  -6.468  1.00  0.00     0.170 C 
BRANCH  18  19
HETATM   19  O2  UNL     1      31.736  -5.868  -5.524  1.00  0.00    -0.391 OA
ATOM     20  H2  UNL     1      32.261  -5.508  -4.819  1.00  0.00     0.210 HD
ENDBRANCH  18  19
BRANCH  18  21
HETATM   21  C8  UNL     1      32.838  -4.025  -6.560  1.00  0.00     0.198 C 
BRANCH  21  22
HETATM   22  O3  UNL     1      32.925  -3.187  -5.440  1.00  0.00    -0.398 OA
ATOM     23  H3  UNL     1      33.265  -3.684  -4.705  1.00  0.00     0.209 HD
ENDBRANCH  21  22
ENDBRANCH  18  21
ENDBRANCH  15  18
ENDBRANCH  14  15
ENDBRANCH  12  14
ENDBRANCH   4   8
ENDBRANCH   3   4
ENDBRANCH   2   3
ENDBRANCH   1   2
BRANCH   1  24
HETATM   24  C15 UNL     1      34.218  -4.670 -15.349  1.00  0.00     0.027 C 
BRANCH  24  25
HETATM   25  C16 UNL     1      33.600  -3.801 -14.307  1.00  0.00    -0.024 C 
HETATM   26  C17 UNL     1      32.194  -3.870 -13.987  1.00  0.00    -0.078 C 
HETATM   27  C18 UNL     1      31.954  -2.859 -12.812  1.00  0.00     0.034 C 
HETATM   28  C33 UNL     1      31.025  -3.903 -14.856  1.00  0.00     0.031 C 
HETATM   29  C19 UNL     1      31.116  -3.614 -11.808  1.00  0.00     0.009 C 
HETATM   30  C20 UNL     1      29.899  -4.077 -12.562  1.00  0.00    -0.013 C 
HETATM   31  C21 UNL     1      29.754  -5.563 -12.355  1.00  0.00     0.010 C 
HETATM   32  C22 UNL     1      29.809  -3.623 -13.949  1.00  0.00     0.002 C 
HETATM   33  C23 UNL     1      28.604  -4.300 -14.567  1.00  0.00     0.033 C 
HETATM   34  C24 UNL     1      28.361  -3.446 -15.795  1.00  0.00    -0.020 C 
HETATM   35  C25 UNL     1      29.401  -2.925 -16.423  1.00  0.00    -0.039 C 
HETATM   36  C26 UNL     1      28.992  -2.094 -17.628  1.00  0.00     0.104 C 
HETATM   37  C31 UNL     1      30.844  -3.114 -16.084  1.00  0.00    -0.010 C 
HETATM   38  C27 UNL     1      27.598  -2.539 -18.115  1.00  0.00     0.053 C 
HETATM   39  C28 UNL     1      29.905  -2.427 -18.777  1.00  0.00     0.156 C 
HETATM   40  C29 UNL     1      30.400  -3.827 -18.487  1.00  0.00     0.036 C 
HETATM   41  C30 UNL     1      31.338  -3.889 -17.337  1.00  0.00     0.017 C 
HETATM   42  C32 UNL     1      31.454  -1.740 -16.066  1.00  0.00     0.021 C 
BRANCH  36  43
HETATM   43  O4  UNL     1      28.851  -0.762 -17.355  1.00  0.00    -0.383 OA
ATOM     44  H4  UNL     1      29.636  -0.359 -17.004  1.00  0.00     0.211 HD
ENDBRANCH  36  43
BRANCH  39  45
HETATM   45  O5  UNL     1      29.206  -2.543 -20.006  1.00  0.00    -0.392 OA
ATOM     46  H5  UNL     1      28.429  -3.084 -19.930  1.00  0.00     0.210 HD
ENDBRANCH  39  45
ENDBRANCH  24  25
ENDBRANCH   1  24
TORSDOF 15
ENDMDL
