MODEL 1
REMARK VINA RESULT: -6.997444748      0.000      0.000
REMARK  17 active torsions:
REMARK  status: ('A' for Active; 'I' for Inactive)
REMARK    1  A    between atoms: C2_2  and  C3_3 
REMARK    2  A    between atoms: C3_3  and  C5_5 
REMARK    3  A    between atoms: C5_5  and  C6_6 
REMARK    4  A    between atoms: C6_6  and  C7_7 
REMARK    5  A    between atoms: C7_7  and  C8_8 
REMARK    6  A    between atoms: C8_8  and  C9_9 
REMARK    7  A    between atoms: C8_8  and  C13_15 
REMARK    8  A    between atoms: C9_9  and  C10_10 
REMARK    9  A    between atoms: C10_10  and  C11_11 
REMARK   10  A    between atoms: C11_11  and  C12_12 
REMARK   11  A    between atoms: C12_12  and  O1_13 
REMARK   12  A    between atoms: N1_19  and  O2_21 
REMARK   13  A    between atoms: C19_26  and  O3_27 
REMARK   14  A    between atoms: C21_30  and  C23_32 
REMARK   15  A    between atoms: C23_32  and  O4_33 
REMARK   16  A    between atoms: C23_32  and  N2_35 
REMARK   17  A    between atoms: N2_35  and  C24_37 
ROOT
HETATM    1  C13 UNL     1      30.655  -6.626 -10.363  1.00  0.00    -0.010 C 
HETATM    2  C14 UNL     1      29.532  -7.188 -10.811  1.00  0.00     0.148 C 
HETATM    3  F1  UNL     1      28.499  -7.665 -10.050  1.00  0.00    -0.203 F 
HETATM    4  C15 UNL     1      29.511  -7.280 -12.277  1.00  0.00     0.080 C 
HETATM    5  N1  UNL     1      28.607  -7.958 -12.868  1.00  0.00    -0.270 N 
ATOM      6  H1  UNL     1      27.969  -8.378 -12.193  1.00  0.00     0.194 HD
HETATM    7  C16 UNL     1      30.675  -6.508 -12.756  1.00  0.00     0.079 C 
HETATM    8  C17 UNL     1      31.491  -6.337 -11.522  1.00  0.00    -0.057 C 
HETATM    9  C18 UNL     1      32.449  -5.237 -11.545  1.00  0.00     0.067 C 
HETATM   10  C19 UNL     1      32.021  -4.030 -12.354  1.00  0.00     0.128 C 
HETATM   11  C20 UNL     1      31.530  -4.355 -13.708  1.00  0.00     0.040 C 
HETATM   12  C21 UNL     1      31.270  -3.151 -14.534  1.00  0.00     0.028 C 
HETATM   13  C22 UNL     1      31.125  -1.901 -13.616  1.00  0.00     0.025 C 
HETATM   14  C29 UNL     1      30.013  -3.170 -15.363  1.00  0.00     0.018 C 
HETATM   15  C30 UNL     1      28.840  -3.800 -14.742  1.00  0.00     0.002 C 
HETATM   16  C31 UNL     1      29.112  -4.708 -13.579  1.00  0.00     0.011 C 
HETATM   17  C32 UNL     1      30.444  -5.409 -13.691  1.00  0.00    -0.024 C 
HETATM   18  C33 UNL     1      30.402  -6.101 -15.080  1.00  0.00     0.016 C 
ENDROOT
BRANCH   1  19
HETATM   19  C8  UNL     1      30.859  -6.487  -8.885  1.00  0.00     0.022 C 
BRANCH  19  20
HETATM   20  C7  UNL     1      32.105  -7.237  -8.451  1.00  0.00     0.009 C 
BRANCH  20  21
HETATM   21  C6  UNL     1      32.433  -8.364  -9.381  1.00  0.00     0.001 C 
BRANCH  21  22
HETATM   22  C5  UNL     1      33.865  -8.301  -9.829  1.00  0.00     0.004 C 
BRANCH  22  23
HETATM   23  C3  UNL     1      34.071  -9.356 -10.903  1.00  0.00    -0.019 C 
HETATM   24  C4  UNL     1      34.779  -8.630 -12.039  1.00  0.00     0.010 C 
BRANCH  23  25
HETATM   25  C2  UNL     1      32.810 -10.011 -11.357  1.00  0.00    -0.000 C 
HETATM   26  C1  UNL     1      32.511  -9.739 -12.809  1.00  0.00     0.005 C 
ENDBRANCH  23  25
ENDBRANCH  22  23
ENDBRANCH  21  22
ENDBRANCH  20  21
ENDBRANCH  19  20
BRANCH  19  27
HETATM   27  C9  UNL     1      31.009  -5.014  -8.476  1.00  0.00     0.009 C 
BRANCH  27  28
HETATM   28  C10 UNL     1      32.447  -4.846  -7.952  1.00  0.00     0.003 C 
BRANCH  28  29
HETATM   29  C11 UNL     1      32.466  -4.071  -6.670  1.00  0.00     0.026 C 
BRANCH  29  30
HETATM   30  C12 UNL     1      31.199  -4.459  -5.908  1.00  0.00     0.164 C 
BRANCH  30  31
HETATM   31  O1  UNL     1      31.526  -5.494  -5.062  1.00  0.00    -0.401 OA
ATOM     32  H1  UNL     1      31.014  -6.250  -5.325  1.00  0.00     0.209 HD
ENDBRANCH  30  31
ENDBRANCH  29  30
ENDBRANCH  28  29
ENDBRANCH  27  28
ENDBRANCH  19  27
ENDBRANCH   1  19
BRANCH   5  33
HETATM   33  O2  UNL     1      28.263  -8.270 -14.079  1.00  0.00    -0.290 OA
ATOM     34  H2  UNL     1      27.830  -8.983 -14.535  1.00  0.00     0.244 HD
ENDBRANCH   5  33
BRANCH  10  35
HETATM   35  O3  UNL     1      31.250  -3.261 -11.543  1.00  0.00    -0.395 OA
ATOM     36  H3  UNL     1      30.526  -2.941 -12.068  1.00  0.00     0.210 HD
ENDBRANCH  10  35
BRANCH  12  37
HETATM   37  C23 UNL     1      32.470  -2.777 -15.334  1.00  0.00     0.120 C 
BRANCH  37  38
HETATM   38  O4  UNL     1      32.900  -1.550 -15.295  1.00  0.00    -0.349 OA
ATOM     39  H4  UNL     1      32.288  -0.841 -15.457  1.00  0.00     0.219 HD
ENDBRANCH  37  38
BRANCH  37  40
HETATM   40  N2  UNL     1      33.235  -3.604 -16.158  1.00  0.00    -0.369 N 
ATOM     41  H2  UNL     1      32.768  -4.042 -16.953  1.00  0.00     0.161 HD
BRANCH  40  42
HETATM   42  C24 UNL     1      34.645  -3.886 -15.969  1.00  0.00     0.087 C 
HETATM   43  C25 UNL     1      34.982  -5.039 -16.893  1.00  0.00     0.051 C 
HETATM   44  C26 UNL     1      36.199  -5.761 -16.384  1.00  0.00     0.169 C 
HETATM   45  O5  UNL     1      36.081  -6.205 -15.080  1.00  0.00    -0.391 OA
HETATM   46  C27 UNL     1      34.948  -5.728 -14.423  1.00  0.00     0.169 C 
HETATM   47  C28 UNL     1      34.996  -4.207 -14.547  1.00  0.00     0.051 C 
ENDBRANCH  40  42
ENDBRANCH  37  40
ENDBRANCH  12  37
TORSDOF 17
ENDMDL
MODEL 2
REMARK VINA RESULT: -6.938040934      1.873      2.548
REMARK  17 active torsions:
REMARK  status: ('A' for Active; 'I' for Inactive)
REMARK    1  A    between atoms: C2_2  and  C3_3 
REMARK    2  A    between atoms: C3_3  and  C5_5 
REMARK    3  A    between atoms: C5_5  and  C6_6 
REMARK    4  A    between atoms: C6_6  and  C7_7 
REMARK    5  A    between atoms: C7_7  and  C8_8 
REMARK    6  A    between atoms: C8_8  and  C9_9 
REMARK    7  A    between atoms: C8_8  and  C13_15 
REMARK    8  A    between atoms: C9_9  and  C10_10 
REMARK    9  A    between atoms: C10_10  and  C11_11 
REMARK   10  A    between atoms: C11_11  and  C12_12 
REMARK   11  A    between atoms: C12_12  and  O1_13 
REMARK   12  A    between atoms: N1_19  and  O2_21 
REMARK   13  A    between atoms: C19_26  and  O3_27 
REMARK   14  A    between atoms: C21_30  and  C23_32 
REMARK   15  A    between atoms: C23_32  and  O4_33 
REMARK   16  A    between atoms: C23_32  and  N2_35 
REMARK   17  A    between atoms: N2_35  and  C24_37 
ROOT
HETATM    1  C13 UNL     1      31.236  -6.090 -11.556  1.00  0.00    -0.010 C 
HETATM    2  C14 UNL     1      30.091  -5.531 -11.948  1.00  0.00     0.148 C 
HETATM    3  F1  UNL     1      28.993  -5.287 -11.168  1.00  0.00    -0.203 F 
HETATM    4  C15 UNL     1      30.101  -5.208 -13.382  1.00  0.00     0.080 C 
HETATM    5  N1  UNL     1      29.028  -4.848 -13.970  1.00  0.00    -0.270 N 
ATOM      6  H1  UNL     1      28.246  -4.829 -13.316  1.00  0.00     0.194 HD
HETATM    7  C16 UNL     1      31.486  -5.427 -13.845  1.00  0.00     0.079 C 
HETATM    8  C17 UNL     1      32.088  -6.214 -12.733  1.00  0.00    -0.057 C 
HETATM    9  C18 UNL     1      33.544  -6.187 -12.655  1.00  0.00     0.067 C 
HETATM   10  C19 UNL     1      34.187  -4.895 -13.116  1.00  0.00     0.128 C 
HETATM   11  C20 UNL     1      33.701  -4.412 -14.424  1.00  0.00     0.040 C 
HETATM   12  C21 UNL     1      34.457  -3.239 -14.925  1.00  0.00     0.028 C 
HETATM   13  C22 UNL     1      35.215  -2.556 -13.749  1.00  0.00     0.025 C 
HETATM   14  C29 UNL     1      33.641  -2.138 -15.551  1.00  0.00     0.018 C 
HETATM   15  C30 UNL     1      32.345  -1.856 -14.919  1.00  0.00     0.002 C 
HETATM   16  C31 UNL     1      31.793  -2.931 -14.029  1.00  0.00     0.011 C 
HETATM   17  C32 UNL     1      32.191  -4.315 -14.479  1.00  0.00    -0.024 C 
HETATM   18  C33 UNL     1      31.743  -4.385 -15.964  1.00  0.00     0.016 C 
ENDROOT
BRANCH   1  19
HETATM   19  C8  UNL     1      31.384  -6.517 -10.128  1.00  0.00     0.022 C 
BRANCH  19  20
HETATM   20  C7  UNL     1      31.560  -8.022 -10.042  1.00  0.00     0.009 C 
BRANCH  20  21
HETATM   21  C6  UNL     1      33.004  -8.415  -9.987  1.00  0.00     0.001 C 
BRANCH  21  22
HETATM   22  C5  UNL     1      33.187  -9.867 -10.324  1.00  0.00     0.004 C 
BRANCH  22  23
HETATM   23  C3  UNL     1      34.377  -9.987 -11.261  1.00  0.00    -0.019 C 
HETATM   24  C4  UNL     1      35.331  -8.881 -10.832  1.00  0.00     0.010 C 
BRANCH  23  25
HETATM   25  C2  UNL     1      34.023  -9.891 -12.707  1.00  0.00    -0.000 C 
HETATM   26  C1  UNL     1      32.540 -10.022 -12.945  1.00  0.00     0.005 C 
ENDBRANCH  23  25
ENDBRANCH  22  23
ENDBRANCH  21  22
ENDBRANCH  20  21
ENDBRANCH  19  20
BRANCH  19  27
HETATM   27  C9  UNL     1      32.596  -5.846  -9.464  1.00  0.00     0.009 C 
BRANCH  27  28
HETATM   28  C10 UNL     1      32.202  -4.380  -9.208  1.00  0.00     0.003 C 
BRANCH  28  29
HETATM   29  C11 UNL     1      33.056  -3.772  -8.138  1.00  0.00     0.026 C 
BRANCH  29  30
HETATM   30  C12 UNL     1      32.408  -4.139  -6.803  1.00  0.00     0.164 C 
BRANCH  30  31
HETATM   31  O1  UNL     1      33.278  -3.767  -5.805  1.00  0.00    -0.401 OA
ATOM     32  H1  UNL     1      33.697  -4.557  -5.481  1.00  0.00     0.209 HD
ENDBRANCH  30  31
ENDBRANCH  29  30
ENDBRANCH  28  29
ENDBRANCH  27  28
ENDBRANCH  19  27
ENDBRANCH   1  19
BRANCH   5  33
HETATM   33  O2  UNL     1      28.642  -4.498 -15.157  1.00  0.00    -0.290 OA
ATOM     34  H2  UNL     1      28.116  -4.849 -15.867  1.00  0.00     0.244 HD
ENDBRANCH   5  33
BRANCH  10  35
HETATM   35  O3  UNL     1      34.176  -4.045 -12.057  1.00  0.00    -0.395 OA
ATOM     36  H3  UNL     1      35.019  -4.125 -11.627  1.00  0.00     0.210 HD
ENDBRANCH  10  35
BRANCH  12  37
HETATM   37  C23 UNL     1      35.595  -3.660 -15.790  1.00  0.00     0.120 C 
BRANCH  37  38
HETATM   38  O4  UNL     1      36.696  -2.969 -15.767  1.00  0.00    -0.349 OA
ATOM     39  H4  UNL     1      37.428  -3.248 -16.305  1.00  0.00     0.219 HD
ENDBRANCH  37  38
BRANCH  37  40
HETATM   40  N2  UNL     1      35.644  -4.750 -16.660  1.00  0.00    -0.369 N 
ATOM     41  H2  UNL     1      34.984  -4.765 -17.438  1.00  0.00     0.161 HD
BRANCH  40  42
HETATM   42  C24 UNL     1      36.565  -5.865 -16.540  1.00  0.00     0.087 C 
HETATM   43  C25 UNL     1      36.468  -6.646 -17.835  1.00  0.00     0.051 C 
HETATM   44  C26 UNL     1      36.910  -8.065 -17.608  1.00  0.00     0.169 C 
HETATM   45  O5  UNL     1      36.220  -8.712 -16.600  1.00  0.00    -0.391 OA
HETATM   46  C27 UNL     1      35.392  -7.872 -15.856  1.00  0.00     0.169 C 
HETATM   47  C28 UNL     1      36.282  -6.738 -15.354  1.00  0.00     0.051 C 
ENDBRANCH  40  42
ENDBRANCH  37  40
ENDBRANCH  12  37
TORSDOF 17
ENDMDL
MODEL 3
REMARK VINA RESULT: -6.806767795      2.499      4.371
REMARK  17 active torsions:
REMARK  status: ('A' for Active; 'I' for Inactive)
REMARK    1  A    between atoms: C2_2  and  C3_3 
REMARK    2  A    between atoms: C3_3  and  C5_5 
REMARK    3  A    between atoms: C5_5  and  C6_6 
REMARK    4  A    between atoms: C6_6  and  C7_7 
REMARK    5  A    between atoms: C7_7  and  C8_8 
REMARK    6  A    between atoms: C8_8  and  C9_9 
REMARK    7  A    between atoms: C8_8  and  C13_15 
REMARK    8  A    between atoms: C9_9  and  C10_10 
REMARK    9  A    between atoms: C10_10  and  C11_11 
REMARK   10  A    between atoms: C11_11  and  C12_12 
REMARK   11  A    between atoms: C12_12  and  O1_13 
REMARK   12  A    between atoms: N1_19  and  O2_21 
REMARK   13  A    between atoms: C19_26  and  O3_27 
REMARK   14  A    between atoms: C21_30  and  C23_32 
REMARK   15  A    between atoms: C23_32  and  O4_33 
REMARK   16  A    between atoms: C23_32  and  N2_35 
REMARK   17  A    between atoms: N2_35  and  C24_37 
ROOT
HETATM    1  C13 UNL     1      32.078  -6.924 -11.107  1.00  0.00    -0.010 C 
HETATM    2  C14 UNL     1      30.798  -6.803 -11.456  1.00  0.00     0.148 C 
HETATM    3  F1  UNL     1      29.835  -6.090 -10.793  1.00  0.00    -0.203 F 
HETATM    4  C15 UNL     1      30.484  -7.570 -12.670  1.00  0.00     0.080 C 
HETATM    5  N1  UNL     1      29.274  -7.727 -13.040  1.00  0.00    -0.270 N 
ATOM      6  H1  UNL     1      28.635  -7.262 -12.395  1.00  0.00     0.194 HD
HETATM    7  C16 UNL     1      31.777  -8.043 -13.204  1.00  0.00     0.079 C 
HETATM    8  C17 UNL     1      32.708  -7.830 -12.061  1.00  0.00    -0.057 C 
HETATM    9  C18 UNL     1      34.123  -7.749 -12.406  1.00  0.00     0.067 C 
HETATM   10  C19 UNL     1      34.420  -7.139 -13.760  1.00  0.00     0.128 C 
HETATM   11  C20 UNL     1      33.621  -7.707 -14.865  1.00  0.00     0.040 C 
HETATM   12  C21 UNL     1      34.042  -7.212 -16.198  1.00  0.00     0.028 C 
HETATM   13  C22 UNL     1      34.864  -5.899 -16.038  1.00  0.00     0.025 C 
HETATM   14  C29 UNL     1      32.936  -6.863 -17.159  1.00  0.00     0.018 C 
HETATM   15  C30 UNL     1      31.749  -6.227 -16.572  1.00  0.00     0.002 C 
HETATM   16  C31 UNL     1      31.578  -6.380 -15.090  1.00  0.00     0.011 C 
HETATM   17  C32 UNL     1      32.136  -7.684 -14.574  1.00  0.00    -0.024 C 
HETATM   18  C33 UNL     1      31.443  -8.771 -15.440  1.00  0.00     0.016 C 
ENDROOT
BRANCH   1  19
HETATM   19  C8  UNL     1      32.563  -6.235  -9.868  1.00  0.00     0.022 C 
BRANCH  19  20
HETATM   20  C7  UNL     1      32.221  -4.758  -9.918  1.00  0.00     0.009 C 
BRANCH  20  21
HETATM   21  C6  UNL     1      33.025  -4.031 -10.952  1.00  0.00     0.001 C 
BRANCH  21  22
HETATM   22  C5  UNL     1      32.230  -2.924 -11.582  1.00  0.00     0.004 C 
BRANCH  22  23
HETATM   23  C3  UNL     1      31.738  -3.408 -12.936  1.00  0.00    -0.019 C 
HETATM   24  C4  UNL     1      32.794  -2.943 -13.929  1.00  0.00     0.010 C 
BRANCH  23  25
HETATM   25  C2  UNL     1      30.376  -2.919 -13.296  1.00  0.00    -0.000 C 
HETATM   26  C1  UNL     1      29.376  -4.040 -13.420  1.00  0.00     0.005 C 
ENDBRANCH  23  25
ENDBRANCH  22  23
ENDBRANCH  21  22
ENDBRANCH  20  21
ENDBRANCH  19  20
BRANCH  19  27
HETATM   27  C9  UNL     1      31.929  -6.840  -8.606  1.00  0.00     0.009 C 
BRANCH  27  28
HETATM   28  C10 UNL     1      31.343  -5.666  -7.801  1.00  0.00     0.003 C 
BRANCH  28  29
HETATM   29  C11 UNL     1      32.084  -5.474  -6.513  1.00  0.00     0.026 C 
BRANCH  29  30
HETATM   30  C12 UNL     1      32.146  -3.966  -6.268  1.00  0.00     0.164 C 
BRANCH  30  31
HETATM   31  O1  UNL     1      33.329  -3.702  -5.616  1.00  0.00    -0.401 OA
ATOM     32  H1  UNL     1      33.213  -2.893  -5.132  1.00  0.00     0.209 HD
ENDBRANCH  30  31
ENDBRANCH  29  30
ENDBRANCH  28  29
ENDBRANCH  27  28
ENDBRANCH  19  27
ENDBRANCH   1  19
BRANCH   5  33
HETATM   33  O2  UNL     1      28.618  -8.306 -13.998  1.00  0.00    -0.290 OA
ATOM     34  H2  UNL     1      27.716  -8.432 -14.267  1.00  0.00     0.244 HD
ENDBRANCH   5  33
BRANCH  10  35
HETATM   35  O3  UNL     1      34.447  -5.793 -13.594  1.00  0.00    -0.395 OA
ATOM     36  H3  UNL     1      34.271  -5.404 -14.443  1.00  0.00     0.210 HD
ENDBRANCH  10  35
BRANCH  12  37
HETATM   37  C23 UNL     1      35.061  -8.111 -16.811  1.00  0.00     0.120 C 
BRANCH  37  38
HETATM   38  O4  UNL     1      35.085  -8.251 -18.103  1.00  0.00    -0.349 OA
ATOM     39  H4  UNL     1      34.800  -7.530 -18.652  1.00  0.00     0.219 HD
ENDBRANCH  37  38
BRANCH  37  40
HETATM   40  N2  UNL     1      36.041  -8.857 -16.155  1.00  0.00    -0.369 N 
ATOM     41  H2  UNL     1      35.736  -9.503 -15.426  1.00  0.00     0.161 HD
BRANCH  40  42
HETATM   42  C24 UNL     1      37.463  -8.780 -16.433  1.00  0.00     0.087 C 
HETATM   43  C25 UNL     1      38.053 -10.118 -16.032  1.00  0.00     0.051 C 
HETATM   44  C26 UNL     1      39.520  -9.960 -15.740  1.00  0.00     0.169 C 
HETATM   45  O5  UNL     1      39.801  -9.001 -14.785  1.00  0.00    -0.391 OA
HETATM   46  C27 UNL     1      38.699  -8.227 -14.423  1.00  0.00     0.169 C 
HETATM   47  C28 UNL     1      38.143  -7.649 -15.722  1.00  0.00     0.051 C 
ENDBRANCH  40  42
ENDBRANCH  37  40
ENDBRANCH  12  37
TORSDOF 17
ENDMDL
MODEL 4
REMARK VINA RESULT: -6.795602937      1.502      1.815
REMARK  17 active torsions:
REMARK  status: ('A' for Active; 'I' for Inactive)
REMARK    1  A    between atoms: C2_2  and  C3_3 
REMARK    2  A    between atoms: C3_3  and  C5_5 
REMARK    3  A    between atoms: C5_5  and  C6_6 
REMARK    4  A    between atoms: C6_6  and  C7_7 
REMARK    5  A    between atoms: C7_7  and  C8_8 
REMARK    6  A    between atoms: C8_8  and  C9_9 
REMARK    7  A    between atoms: C8_8  and  C13_15 
REMARK    8  A    between atoms: C9_9  and  C10_10 
REMARK    9  A    between atoms: C10_10  and  C11_11 
REMARK   10  A    between atoms: C11_11  and  C12_12 
REMARK   11  A    between atoms: C12_12  and  O1_13 
REMARK   12  A    between atoms: N1_19  and  O2_21 
REMARK   13  A    between atoms: C19_26  and  O3_27 
REMARK   14  A    between atoms: C21_30  and  C23_32 
REMARK   15  A    between atoms: C23_32  and  O4_33 
REMARK   16  A    between atoms: C23_32  and  N2_35 
REMARK   17  A    between atoms: N2_35  and  C24_37 
ROOT
HETATM    1  C13 UNL     1      31.192  -6.611 -11.220  1.00  0.00    -0.010 C 
HETATM    2  C14 UNL     1      29.997  -6.907 -11.732  1.00  0.00     0.148 C 
HETATM    3  F1  UNL     1      28.814  -6.989 -11.049  1.00  0.00    -0.203 F 
HETATM    4  C15 UNL     1      30.071  -7.180 -13.175  1.00  0.00     0.080 C 
HETATM    5  N1  UNL     1      29.065  -7.665 -13.791  1.00  0.00    -0.270 N 
ATOM      6  H1  UNL     1      28.283  -7.808 -13.153  1.00  0.00     0.194 HD
HETATM    7  C16 UNL     1      31.439  -6.815 -13.595  1.00  0.00     0.079 C 
HETATM    8  C17 UNL     1      32.167  -6.709 -12.300  1.00  0.00    -0.057 C 
HETATM    9  C18 UNL     1      33.391  -5.916 -12.328  1.00  0.00     0.067 C 
HETATM   10  C19 UNL     1      33.382  -4.754 -13.300  1.00  0.00     0.128 C 
HETATM   11  C20 UNL     1      32.932  -5.111 -14.661  1.00  0.00     0.040 C 
HETATM   12  C21 UNL     1      33.084  -4.000 -15.631  1.00  0.00     0.028 C 
HETATM   13  C22 UNL     1      33.218  -2.648 -14.869  1.00  0.00     0.025 C 
HETATM   14  C29 UNL     1      31.943  -3.792 -16.592  1.00  0.00     0.018 C 
HETATM   15  C30 UNL     1      30.595  -4.001 -16.046  1.00  0.00     0.002 C 
HETATM   16  C31 UNL     1      30.508  -4.788 -14.772  1.00  0.00     0.011 C 
HETATM   17  C32 UNL     1      31.598  -5.826 -14.659  1.00  0.00    -0.024 C 
HETATM   18  C33 UNL     1      31.478  -6.658 -15.965  1.00  0.00     0.016 C 
ENDROOT
BRANCH   1  19
HETATM   19  C8  UNL     1      31.306  -6.340  -9.751  1.00  0.00     0.022 C 
BRANCH  19  20
HETATM   20  C7  UNL     1      32.553  -6.995  -9.189  1.00  0.00     0.009 C 
BRANCH  20  21
HETATM   21  C6  UNL     1      32.744  -8.383  -9.716  1.00  0.00     0.001 C 
BRANCH  21  22
HETATM   22  C5  UNL     1      34.186  -8.650 -10.039  1.00  0.00     0.004 C 
BRANCH  22  23
HETATM   23  C3  UNL     1      34.246  -9.842 -10.980  1.00  0.00    -0.019 C 
HETATM   24  C4  UNL     1      34.923  -9.317 -12.239  1.00  0.00     0.010 C 
BRANCH  23  25
HETATM   25  C2  UNL     1      32.916 -10.451 -11.272  1.00  0.00    -0.000 C 
HETATM   26  C1  UNL     1      32.564 -10.390 -12.736  1.00  0.00     0.005 C 
ENDBRANCH  23  25
ENDBRANCH  22  23
ENDBRANCH  21  22
ENDBRANCH  20  21
ENDBRANCH  19  20
BRANCH  19  27
HETATM   27  C9  UNL     1      31.375  -4.832  -9.463  1.00  0.00     0.009 C 
BRANCH  27  28
HETATM   28  C10 UNL     1      32.836  -4.520  -9.095  1.00  0.00     0.003 C 
BRANCH  28  29
HETATM   29  C11 UNL     1      32.910  -3.486  -8.014  1.00  0.00     0.026 C 
BRANCH  29  30
HETATM   30  C12 UNL     1      32.443  -4.167  -6.728  1.00  0.00     0.164 C 
BRANCH  30  31
HETATM   31  O1  UNL     1      33.174  -3.639  -5.690  1.00  0.00    -0.401 OA
ATOM     32  H1  UNL     1      32.571  -3.168  -5.126  1.00  0.00     0.209 HD
ENDBRANCH  30  31
ENDBRANCH  29  30
ENDBRANCH  28  29
ENDBRANCH  27  28
ENDBRANCH  19  27
ENDBRANCH   1  19
BRANCH   5  33
HETATM   33  O2  UNL     1      28.747  -8.030 -14.995  1.00  0.00    -0.290 OA
ATOM     34  H2  UNL     1      27.996  -7.990 -15.575  1.00  0.00     0.244 HD
ENDBRANCH   5  33
BRANCH  10  35
HETATM   35  O3  UNL     1      32.792  -3.709 -12.667  1.00  0.00    -0.395 OA
ATOM     36  H3  UNL     1      32.628  -3.042 -13.323  1.00  0.00     0.210 HD
ENDBRANCH  10  35
BRANCH  12  37
HETATM   37  C23 UNL     1      34.402  -4.066 -16.324  1.00  0.00     0.120 C 
BRANCH  37  38
HETATM   38  O4  UNL     1      35.279  -3.131 -16.105  1.00  0.00    -0.349 OA
ATOM     39  H4  UNL     1      35.358  -2.767 -15.231  1.00  0.00     0.219 HD
ENDBRANCH  37  38
BRANCH  37  40
HETATM   40  N2  UNL     1      34.845  -5.043 -17.217  1.00  0.00    -0.369 N 
ATOM     41  H2  UNL     1      34.377  -5.104 -18.122  1.00  0.00     0.161 HD
BRANCH  40  42
HETATM   42  C24 UNL     1      35.922  -5.978 -16.953  1.00  0.00     0.087 C 
HETATM   43  C25 UNL     1      35.878  -7.010 -18.063  1.00  0.00     0.051 C 
HETATM   44  C26 UNL     1      36.531  -8.283 -17.600  1.00  0.00     0.169 C 
HETATM   45  O5  UNL     1      35.990  -8.799 -16.437  1.00  0.00    -0.391 OA
HETATM   46  C27 UNL     1      35.086  -7.943 -15.808  1.00  0.00     0.169 C 
HETATM   47  C28 UNL     1      35.825  -6.623 -15.603  1.00  0.00     0.051 C 
ENDBRANCH  40  42
ENDBRANCH  37  40
ENDBRANCH  12  37
TORSDOF 17
ENDMDL
MODEL 5
REMARK VINA RESULT: -6.791633532      3.926      8.703
REMARK  17 active torsions:
REMARK  status: ('A' for Active; 'I' for Inactive)
REMARK    1  A    between atoms: C2_2  and  C3_3 
REMARK    2  A    between atoms: C3_3  and  C5_5 
REMARK    3  A    between atoms: C5_5  and  C6_6 
REMARK    4  A    between atoms: C6_6  and  C7_7 
REMARK    5  A    between atoms: C7_7  and  C8_8 
REMARK    6  A    between atoms: C8_8  and  C9_9 
REMARK    7  A    between atoms: C8_8  and  C13_15 
REMARK    8  A    between atoms: C9_9  and  C10_10 
REMARK    9  A    between atoms: C10_10  and  C11_11 
REMARK   10  A    between atoms: C11_11  and  C12_12 
REMARK   11  A    between atoms: C12_12  and  O1_13 
REMARK   12  A    between atoms: N1_19  and  O2_21 
REMARK   13  A    between atoms: C19_26  and  O3_27 
REMARK   14  A    between atoms: C21_30  and  C23_32 
REMARK   15  A    between atoms: C23_32  and  O4_33 
REMARK   16  A    between atoms: C23_32  and  N2_35 
REMARK   17  A    between atoms: N2_35  and  C24_37 
ROOT
HETATM    1  C13 UNL     1      36.895  -7.470 -15.002  1.00  0.00    -0.010 C 
HETATM    2  C14 UNL     1      36.213  -6.680 -15.831  1.00  0.00     0.148 C 
HETATM    3  F1  UNL     1      36.454  -6.497 -17.166  1.00  0.00    -0.203 F 
HETATM    4  C15 UNL     1      35.135  -5.959 -15.140  1.00  0.00     0.080 C 
HETATM    5  N1  UNL     1      34.506  -5.019 -15.729  1.00  0.00    -0.270 N 
ATOM      6  H1  UNL     1      34.862  -4.883 -16.675  1.00  0.00     0.194 HD
HETATM    7  C16 UNL     1      35.053  -6.539 -13.784  1.00  0.00     0.079 C 
HETATM    8  C17 UNL     1      36.331  -7.295 -13.669  1.00  0.00    -0.057 C 
HETATM    9  C18 UNL     1      36.351  -8.351 -12.662  1.00  0.00     0.067 C 
HETATM   10  C19 UNL     1      35.025  -9.047 -12.435  1.00  0.00     0.128 C 
HETATM   11  C20 UNL     1      33.888  -8.127 -12.238  1.00  0.00     0.040 C 
HETATM   12  C21 UNL     1      32.636  -8.826 -11.859  1.00  0.00     0.028 C 
HETATM   13  C22 UNL     1      32.739 -10.334 -12.236  1.00  0.00     0.025 C 
HETATM   14  C29 UNL     1      31.375  -8.345 -12.527  1.00  0.00     0.018 C 
HETATM   15  C30 UNL     1      31.501  -7.953 -13.938  1.00  0.00     0.002 C 
HETATM   16  C31 UNL     1      32.891  -7.667 -14.425  1.00  0.00     0.011 C 
HETATM   17  C32 UNL     1      33.778  -7.100 -13.344  1.00  0.00    -0.024 C 
HETATM   18  C33 UNL     1      32.995  -5.871 -12.806  1.00  0.00     0.016 C 
ENDROOT
BRANCH   1  19
HETATM   19  C8  UNL     1      38.056  -8.254 -15.535  1.00  0.00     0.022 C 
BRANCH  19  20
HETATM   20  C7  UNL     1      37.604  -9.170 -16.656  1.00  0.00     0.009 C 
BRANCH  20  21
HETATM   21  C6  UNL     1      37.023 -10.448 -16.137  1.00  0.00     0.001 C 
BRANCH  21  22
HETATM   22  C5  UNL     1      37.210 -11.570 -17.117  1.00  0.00     0.004 C 
BRANCH  22  23
HETATM   23  C3  UNL     1      38.490 -11.310 -17.893  1.00  0.00    -0.019 C 
HETATM   24  C4  UNL     1      38.135 -11.592 -19.346  1.00  0.00     0.010 C 
BRANCH  23  25
HETATM   25  C2  UNL     1      39.653 -12.123 -17.433  1.00  0.00    -0.000 C 
HETATM   26  C1  UNL     1      40.551 -11.360 -16.492  1.00  0.00     0.005 C 
ENDBRANCH  23  25
ENDBRANCH  22  23
ENDBRANCH  21  22
ENDBRANCH  20  21
ENDBRANCH  19  20
BRANCH  19  27
HETATM   27  C9  UNL     1      39.157  -7.328 -16.074  1.00  0.00     0.009 C 
BRANCH  27  28
HETATM   28  C10 UNL     1      39.460  -7.793 -17.509  1.00  0.00     0.003 C 
BRANCH  28  29
HETATM   29  C11 UNL     1      39.846  -6.636 -18.380  1.00  0.00     0.026 C 
BRANCH  29  30
HETATM   30  C12 UNL     1      40.036  -5.437 -17.452  1.00  0.00     0.164 C 
BRANCH  30  31
HETATM   31  O1  UNL     1      41.365  -5.086 -17.496  1.00  0.00    -0.401 OA
ATOM     32  H1  UNL     1      41.651  -4.934 -16.603  1.00  0.00     0.209 HD
ENDBRANCH  30  31
ENDBRANCH  29  30
ENDBRANCH  28  29
ENDBRANCH  27  28
ENDBRANCH  19  27
ENDBRANCH   1  19
BRANCH   5  33
HETATM   33  O2  UNL     1      33.546  -4.185 -15.476  1.00  0.00    -0.290 OA
ATOM     34  H2  UNL     1      33.277  -3.311 -15.733  1.00  0.00     0.244 HD
ENDBRANCH   5  33
BRANCH  10  35
HETATM   35  O3  UNL     1      34.924 -10.026 -13.370  1.00  0.00    -0.395 OA
ATOM     36  H3  UNL     1      35.305 -10.810 -12.995  1.00  0.00     0.210 HD
ENDBRANCH  10  35
BRANCH  12  37
HETATM   37  C23 UNL     1      32.494  -8.913 -10.378  1.00  0.00     0.120 C 
BRANCH  37  38
HETATM   38  O4  UNL     1      33.147  -9.834  -9.733  1.00  0.00    -0.349 OA
ATOM     39  H4  UNL     1      32.662 -10.513  -9.278  1.00  0.00     0.219 HD
ENDBRANCH  37  38
BRANCH  37  40
HETATM   40  N2  UNL     1      31.720  -8.100  -9.549  1.00  0.00    -0.369 N 
ATOM     41  H2  UNL     1      30.707  -8.217  -9.585  1.00  0.00     0.161 HD
BRANCH  40  42
HETATM   42  C24 UNL     1      32.250  -7.101  -8.640  1.00  0.00     0.087 C 
HETATM   43  C25 UNL     1      31.402  -7.169  -7.385  1.00  0.00     0.051 C 
HETATM   44  C26 UNL     1      31.478  -5.859  -6.649  1.00  0.00     0.169 C 
HETATM   45  O5  UNL     1      31.122  -4.765  -7.416  1.00  0.00    -0.391 OA
HETATM   46  C27 UNL     1      30.957  -5.056  -8.769  1.00  0.00     0.169 C 
HETATM   47  C28 UNL     1      32.256  -5.719  -9.221  1.00  0.00     0.051 C 
ENDBRANCH  40  42
ENDBRANCH  37  40
ENDBRANCH  12  37
TORSDOF 17
ENDMDL
