MODEL 1
REMARK VINA RESULT: -7.143344706      0.000      0.000
REMARK  15 active torsions:
REMARK  status: ('A' for Active; 'I' for Inactive)
REMARK    1  A    between atoms: C2_2  and  O1_5 
REMARK    2  A    between atoms: O1_5  and  C5_6 
REMARK       I    between atoms: C5_6  and  N1_8 
REMARK    3  A    between atoms: N1_8  and  C6_10 
REMARK    4  A    between atoms: C6_10  and  C14_18 
REMARK    5  A    between atoms: C7_11  and  C8_12 
REMARK    6  A    between atoms: C14_18  and  O3_19 
REMARK    7  A    between atoms: N2_21  and  C15_23 
REMARK    8  A    between atoms: C15_23  and  C16_24 
REMARK    9  A    between atoms: C15_23  and  C19_30 
REMARK   10  A    between atoms: C16_24  and  C17_25 
REMARK   11  A    between atoms: C17_25  and  C18_26 
REMARK   12  A    between atoms: C18_26  and  O4_27 
REMARK       I    between atoms: C19_30  and  N3_32 
REMARK   13  A    between atoms: C20_34  and  C21_35 
REMARK   14  A    between atoms: C21_35  and  C22_36 
REMARK   15  A    between atoms: C22_36  and  C23_37 
ROOT
HETATM    1  C14 UNL     1     -12.278   8.137  44.542  1.00  0.00     0.167 C 
HETATM    2  N2  UNL     1     -13.316   7.277  44.761  1.00  0.00    -0.334 N 
ATOM      3  H2  UNL     1     -14.220   7.743  44.831  1.00  0.00     0.168 HD
ENDROOT
BRANCH   1   4
HETATM    4  C6  UNL     1     -12.202   9.544  44.394  1.00  0.00     0.084 C 
HETATM    5  C7  UNL     1     -12.799  10.519  43.553  1.00  0.00     0.012 C 
BRANCH   4   6
HETATM    6  N1  UNL     1     -12.365  10.012  45.851  1.00  0.00    -0.299 N 
HETATM    7  C5  UNL     1     -11.323  10.658  46.507  1.00  0.00     0.366 C 
HETATM    8  O2  UNL     1     -10.237  10.843  45.866  1.00  0.00    -0.238 OA
ATOM      9  H1  UNL     1     -13.244   9.847  46.341  1.00  0.00     0.171 HD
BRANCH   7  10
HETATM   10  O1  UNL     1     -11.376  11.113  47.797  1.00  0.00    -0.294 OA
BRANCH  10  11
HETATM   11  C2  UNL     1     -12.165  12.199  48.251  1.00  0.00     0.061 C 
HETATM   12  C1  UNL     1     -12.207  13.297  47.199  1.00  0.00     0.046 C 
HETATM   13  C3  UNL     1     -13.570  11.805  48.598  1.00  0.00     0.046 C 
HETATM   14  C4  UNL     1     -11.506  12.761  49.486  1.00  0.00     0.046 C 
ENDBRANCH  10  11
ENDBRANCH   7  10
ENDBRANCH   4   6
BRANCH   5  15
HETATM   15  C8  UNL     1     -12.905  10.717  42.137  1.00  0.00     0.010 C 
HETATM   16  C9  UNL     1     -14.316  11.432  41.937  1.00  0.00     0.008 C 
HETATM   17  C10 UNL     1     -14.824  11.221  40.563  1.00  0.00     0.001 C 
HETATM   18  C11 UNL     1     -13.756  11.207  39.511  1.00  0.00     0.000 C 
HETATM   19  C12 UNL     1     -12.679  10.198  39.771  1.00  0.00     0.001 C 
HETATM   20  C13 UNL     1     -12.964   9.612  41.184  1.00  0.00     0.008 C 
ENDBRANCH   5  15
ENDBRANCH   1   4
BRANCH   1  21
HETATM   21  O3  UNL     1     -11.116   7.536  44.453  1.00  0.00    -0.344 OA
ATOM     22  H3  UNL     1     -10.822   7.408  43.560  1.00  0.00     0.219 HD
ENDBRANCH   1  21
BRANCH   2  23
HETATM   23  C15 UNL     1     -13.397   5.850  44.915  1.00  0.00     0.080 C 
BRANCH  23  24
HETATM   24  C16 UNL     1     -14.277   5.150  43.909  1.00  0.00     0.068 C 
BRANCH  24  25
HETATM   25  C17 UNL     1     -15.422   6.051  43.514  1.00  0.00     0.072 C 
BRANCH  25  26
HETATM   26  C18 UNL     1     -16.691   5.415  44.094  1.00  0.00     0.304 C 
HETATM   27  F1  UNL     1     -17.122   6.244  45.135  1.00  0.00    -0.220 F 
BRANCH  26  28
HETATM   28  O4  UNL     1     -16.409   4.139  44.556  1.00  0.00    -0.367 OA
ATOM     29  H4  UNL     1     -16.446   4.126  45.505  1.00  0.00     0.213 HD
ENDBRANCH  26  28
ENDBRANCH  25  26
ENDBRANCH  24  25
ENDBRANCH  23  24
BRANCH  23  30
HETATM   30  C19 UNL     1     -13.507   5.363  46.280  1.00  0.00     0.267 C 
HETATM   31  O5  UNL     1     -14.621   5.186  46.863  1.00  0.00    -0.266 OA
HETATM   32  N3  UNL     1     -12.320   5.072  46.992  1.00  0.00    -0.336 N 
HETATM   33  C20 UNL     1     -11.497   5.912  47.478  1.00  0.00     0.064 C 
ATOM     34  H3  UNL     1     -12.101   4.085  47.130  1.00  0.00     0.168 HD
BRANCH  33  35
HETATM   35  C21 UNL     1     -10.273   5.507  48.214  1.00  0.00     0.045 C 
BRANCH  35  36
HETATM   36  C22 UNL     1      -9.118   5.327  47.272  1.00  0.00     0.016 C 
BRANCH  36  37
HETATM   37  C23 UNL     1      -8.598   3.894  47.316  1.00  0.00     0.086 C 
HETATM   38  S1  UNL     1      -7.491   3.547  45.945  1.00  0.00    -0.098 SA
ENDBRANCH  36  37
ENDBRANCH  35  36
ENDBRANCH  33  35
ENDBRANCH  23  30
ENDBRANCH   2  23
TORSDOF 15
ENDMDL
MODEL 2
REMARK VINA RESULT: -7.002266446      1.154      1.371
REMARK  15 active torsions:
REMARK  status: ('A' for Active; 'I' for Inactive)
REMARK    1  A    between atoms: C2_2  and  O1_5 
REMARK    2  A    between atoms: O1_5  and  C5_6 
REMARK       I    between atoms: C5_6  and  N1_8 
REMARK    3  A    between atoms: N1_8  and  C6_10 
REMARK    4  A    between atoms: C6_10  and  C14_18 
REMARK    5  A    between atoms: C7_11  and  C8_12 
REMARK    6  A    between atoms: C14_18  and  O3_19 
REMARK    7  A    between atoms: N2_21  and  C15_23 
REMARK    8  A    between atoms: C15_23  and  C16_24 
REMARK    9  A    between atoms: C15_23  and  C19_30 
REMARK   10  A    between atoms: C16_24  and  C17_25 
REMARK   11  A    between atoms: C17_25  and  C18_26 
REMARK   12  A    between atoms: C18_26  and  O4_27 
REMARK       I    between atoms: C19_30  and  N3_32 
REMARK   13  A    between atoms: C20_34  and  C21_35 
REMARK   14  A    between atoms: C21_35  and  C22_36 
REMARK   15  A    between atoms: C22_36  and  C23_37 
ROOT
HETATM    1  C14 UNL     1     -12.274   8.150  44.907  1.00  0.00     0.167 C 
HETATM    2  N2  UNL     1     -12.806   7.458  45.957  1.00  0.00    -0.334 N 
ATOM      3  H2  UNL     1     -13.164   8.061  46.698  1.00  0.00     0.168 HD
ENDROOT
BRANCH   1   4
HETATM    4  C6  UNL     1     -12.113   9.533  44.640  1.00  0.00     0.084 C 
HETATM    5  C7  UNL     1     -12.693  10.479  43.754  1.00  0.00     0.012 C 
BRANCH   4   6
HETATM    6  N1  UNL     1     -12.160  10.125  46.061  1.00  0.00    -0.299 N 
HETATM    7  C5  UNL     1     -11.055  10.782  46.589  1.00  0.00     0.366 C 
HETATM    8  O2  UNL     1     -10.011  10.871  45.866  1.00  0.00    -0.238 OA
ATOM      9  H1  UNL     1     -13.010  10.034  46.618  1.00  0.00     0.171 HD
BRANCH   7  10
HETATM   10  O1  UNL     1     -11.005  11.343  47.838  1.00  0.00    -0.294 OA
BRANCH  10  11
HETATM   11  C2  UNL     1     -11.946  12.263  48.361  1.00  0.00     0.061 C 
HETATM   12  C1  UNL     1     -12.175  13.400  47.375  1.00  0.00     0.046 C 
HETATM   13  C3  UNL     1     -13.267  11.636  48.693  1.00  0.00     0.046 C 
HETATM   14  C4  UNL     1     -11.363  12.850  49.622  1.00  0.00     0.046 C 
ENDBRANCH  10  11
ENDBRANCH   7  10
ENDBRANCH   4   6
BRANCH   5  15
HETATM   15  C8  UNL     1     -12.866  10.571  42.334  1.00  0.00     0.010 C 
HETATM   16  C9  UNL     1     -14.095  11.570  42.146  1.00  0.00     0.008 C 
HETATM   17  C10 UNL     1     -14.746  11.362  40.833  1.00  0.00     0.001 C 
HETATM   18  C11 UNL     1     -13.798  11.013  39.727  1.00  0.00     0.000 C 
HETATM   19  C12 UNL     1     -12.954   9.810  40.024  1.00  0.00     0.001 C 
HETATM   20  C13 UNL     1     -13.246   9.430  41.506  1.00  0.00     0.008 C 
ENDBRANCH   5  15
ENDBRANCH   1   4
BRANCH   1  21
HETATM   21  O3  UNL     1     -11.814   7.376  43.955  1.00  0.00    -0.344 OA
ATOM     22  H3  UNL     1     -12.484   7.080  43.349  1.00  0.00     0.219 HD
ENDBRANCH   1  21
BRANCH   2  23
HETATM   23  C15 UNL     1     -12.968   6.058  46.232  1.00  0.00     0.080 C 
BRANCH  23  24
HETATM   24  C16 UNL     1     -14.345   5.507  45.952  1.00  0.00     0.068 C 
BRANCH  24  25
HETATM   25  C17 UNL     1     -14.405   4.966  44.545  1.00  0.00     0.072 C 
BRANCH  25  26
HETATM   26  C18 UNL     1     -15.071   6.054  43.692  1.00  0.00     0.304 C 
HETATM   27  F1  UNL     1     -16.410   5.682  43.533  1.00  0.00    -0.220 F 
BRANCH  26  28
HETATM   28  O4  UNL     1     -14.430   6.148  42.467  1.00  0.00    -0.367 OA
ATOM     29  H4  UNL     1     -15.063   6.349  41.788  1.00  0.00     0.213 HD
ENDBRANCH  26  28
ENDBRANCH  25  26
ENDBRANCH  24  25
ENDBRANCH  23  24
BRANCH  23  30
HETATM   30  C19 UNL     1     -12.343   5.573  47.452  1.00  0.00     0.267 C 
HETATM   31  O5  UNL     1     -12.899   5.653  48.591  1.00  0.00    -0.266 OA
HETATM   32  N3  UNL     1     -11.060   4.986  47.368  1.00  0.00    -0.336 N 
HETATM   33  C20 UNL     1      -9.956   5.591  47.177  1.00  0.00     0.064 C 
ATOM     34  H3  UNL     1     -11.014   3.972  47.471  1.00  0.00     0.168 HD
BRANCH  33  35
HETATM   35  C21 UNL     1      -8.652   4.883  47.103  1.00  0.00     0.045 C 
BRANCH  35  36
HETATM   36  C22 UNL     1      -7.695   5.618  46.211  1.00  0.00     0.016 C 
BRANCH  36  37
HETATM   37  C23 UNL     1      -7.326   4.773  44.995  1.00  0.00     0.086 C 
HETATM   38  S1  UNL     1      -6.965   3.075  45.452  1.00  0.00    -0.098 SA
ENDBRANCH  36  37
ENDBRANCH  35  36
ENDBRANCH  33  35
ENDBRANCH  23  30
ENDBRANCH   2  23
TORSDOF 15
ENDMDL
MODEL 3
REMARK VINA RESULT: -6.936052968      1.494      1.822
REMARK  15 active torsions:
REMARK  status: ('A' for Active; 'I' for Inactive)
REMARK    1  A    between atoms: C2_2  and  O1_5 
REMARK    2  A    between atoms: O1_5  and  C5_6 
REMARK       I    between atoms: C5_6  and  N1_8 
REMARK    3  A    between atoms: N1_8  and  C6_10 
REMARK    4  A    between atoms: C6_10  and  C14_18 
REMARK    5  A    between atoms: C7_11  and  C8_12 
REMARK    6  A    between atoms: C14_18  and  O3_19 
REMARK    7  A    between atoms: N2_21  and  C15_23 
REMARK    8  A    between atoms: C15_23  and  C16_24 
REMARK    9  A    between atoms: C15_23  and  C19_30 
REMARK   10  A    between atoms: C16_24  and  C17_25 
REMARK   11  A    between atoms: C17_25  and  C18_26 
REMARK   12  A    between atoms: C18_26  and  O4_27 
REMARK       I    between atoms: C19_30  and  N3_32 
REMARK   13  A    between atoms: C20_34  and  C21_35 
REMARK   14  A    between atoms: C21_35  and  C22_36 
REMARK   15  A    between atoms: C22_36  and  C23_37 
ROOT
HETATM    1  C14 UNL     1     -12.302   8.258  44.861  1.00  0.00     0.167 C 
HETATM    2  N2  UNL     1     -12.834   7.573  45.915  1.00  0.00    -0.334 N 
ATOM      3  H2  UNL     1     -13.235   8.179  46.631  1.00  0.00     0.168 HD
ENDROOT
BRANCH   1   4
HETATM    4  C6  UNL     1     -12.190   9.639  44.561  1.00  0.00     0.084 C 
HETATM    5  C7  UNL     1     -12.781  10.536  43.633  1.00  0.00     0.012 C 
BRANCH   4   6
HETATM    6  N1  UNL     1     -12.302  10.265  45.962  1.00  0.00    -0.299 N 
HETATM    7  C5  UNL     1     -11.197  10.858  46.562  1.00  0.00     0.366 C 
HETATM    8  O2  UNL     1     -10.098  10.861  45.919  1.00  0.00    -0.238 OA
ATOM      9  H1  UNL     1     -13.195  10.245  46.455  1.00  0.00     0.171 HD
BRANCH   7  10
HETATM   10  O1  UNL     1     -11.202  11.443  47.800  1.00  0.00    -0.294 OA
BRANCH  10  11
HETATM   11  C2  UNL     1     -11.564  10.799  49.009  1.00  0.00     0.061 C 
HETATM   12  C1  UNL     1     -12.916  11.305  49.492  1.00  0.00     0.046 C 
HETATM   13  C3  UNL     1     -11.619   9.305  48.891  1.00  0.00     0.046 C 
HETATM   14  C4  UNL     1     -10.533  11.161  50.049  1.00  0.00     0.046 C 
ENDBRANCH  10  11
ENDBRANCH   7  10
ENDBRANCH   4   6
BRANCH   5  15
HETATM   15  C8  UNL     1     -12.917  10.584  42.206  1.00  0.00     0.010 C 
HETATM   16  C9  UNL     1     -14.165  11.545  41.956  1.00  0.00     0.008 C 
HETATM   17  C10 UNL     1     -14.774  11.283  40.632  1.00  0.00     0.001 C 
HETATM   18  C11 UNL     1     -13.786  10.928  39.563  1.00  0.00     0.000 C 
HETATM   19  C12 UNL     1     -12.920   9.757  39.918  1.00  0.00     0.001 C 
HETATM   20  C13 UNL     1     -13.244   9.411  41.401  1.00  0.00     0.008 C 
ENDBRANCH   5  15
ENDBRANCH   1   4
BRANCH   1  21
HETATM   21  O3  UNL     1     -11.787   7.479  43.941  1.00  0.00    -0.344 OA
ATOM     22  H3  UNL     1     -11.059   6.955  44.252  1.00  0.00     0.219 HD
ENDBRANCH   1  21
BRANCH   2  23
HETATM   23  C15 UNL     1     -12.947   6.174  46.223  1.00  0.00     0.080 C 
BRANCH  23  24
HETATM   24  C16 UNL     1     -14.313   5.578  45.991  1.00  0.00     0.068 C 
BRANCH  24  25
HETATM   25  C17 UNL     1     -14.388   4.991  44.602  1.00  0.00     0.072 C 
BRANCH  25  26
HETATM   26  C18 UNL     1     -15.048   6.056  43.718  1.00  0.00     0.304 C 
HETATM   27  F1  UNL     1     -16.378   5.663  43.535  1.00  0.00    -0.220 F 
BRANCH  26  28
HETATM   28  O4  UNL     1     -14.381   6.140  42.507  1.00  0.00    -0.367 OA
ATOM     29  H4  UNL     1     -13.807   6.896  42.508  1.00  0.00     0.213 HD
ENDBRANCH  26  28
ENDBRANCH  25  26
ENDBRANCH  24  25
ENDBRANCH  23  24
BRANCH  23  30
HETATM   30  C19 UNL     1     -12.278   5.735  47.437  1.00  0.00     0.267 C 
HETATM   31  O5  UNL     1     -12.798   5.843  48.591  1.00  0.00    -0.266 OA
HETATM   32  N3  UNL     1     -10.990   5.161  47.330  1.00  0.00    -0.336 N 
HETATM   33  C20 UNL     1      -9.901   5.772  47.085  1.00  0.00     0.064 C 
ATOM     34  H3  UNL     1     -10.928   4.152  47.462  1.00  0.00     0.168 HD
BRANCH  33  35
HETATM   35  C21 UNL     1      -8.591   5.079  46.991  1.00  0.00     0.045 C 
BRANCH  35  36
HETATM   36  C22 UNL     1      -7.614   5.887  46.188  1.00  0.00     0.016 C 
BRANCH  36  37
HETATM   37  C23 UNL     1      -8.341   6.867  45.273  1.00  0.00     0.086 C 
HETATM   38  S1  UNL     1      -8.007   6.531  43.541  1.00  0.00    -0.098 SA
ENDBRANCH  36  37
ENDBRANCH  35  36
ENDBRANCH  33  35
ENDBRANCH  23  30
ENDBRANCH   2  23
TORSDOF 15
ENDMDL
MODEL 4
REMARK VINA RESULT: -6.763236731      3.591      7.213
REMARK  15 active torsions:
REMARK  status: ('A' for Active; 'I' for Inactive)
REMARK    1  A    between atoms: C2_2  and  O1_5 
REMARK    2  A    between atoms: O1_5  and  C5_6 
REMARK       I    between atoms: C5_6  and  N1_8 
REMARK    3  A    between atoms: N1_8  and  C6_10 
REMARK    4  A    between atoms: C6_10  and  C14_18 
REMARK    5  A    between atoms: C7_11  and  C8_12 
REMARK    6  A    between atoms: C14_18  and  O3_19 
REMARK    7  A    between atoms: N2_21  and  C15_23 
REMARK    8  A    between atoms: C15_23  and  C16_24 
REMARK    9  A    between atoms: C15_23  and  C19_30 
REMARK   10  A    between atoms: C16_24  and  C17_25 
REMARK   11  A    between atoms: C17_25  and  C18_26 
REMARK   12  A    between atoms: C18_26  and  O4_27 
REMARK       I    between atoms: C19_30  and  N3_32 
REMARK   13  A    between atoms: C20_34  and  C21_35 
REMARK   14  A    between atoms: C21_35  and  C22_36 
REMARK   15  A    between atoms: C22_36  and  C23_37 
ROOT
HETATM    1  C14 UNL     1     -13.593   9.625  45.154  1.00  0.00     0.167 C 
HETATM    2  N2  UNL     1     -13.078  10.837  45.513  1.00  0.00    -0.334 N 
ATOM      3  H2  UNL     1     -12.388  11.195  44.853  1.00  0.00     0.168 HD
ENDROOT
BRANCH   1   4
HETATM    4  C6  UNL     1     -13.361   8.762  44.053  1.00  0.00     0.084 C 
HETATM    5  C7  UNL     1     -13.945   7.571  43.546  1.00  0.00     0.012 C 
BRANCH   4   6
HETATM    6  N1  UNL     1     -13.258   9.769  42.893  1.00  0.00    -0.299 N 
HETATM    7  C5  UNL     1     -12.251   9.650  41.942  1.00  0.00     0.366 C 
HETATM    8  O2  UNL     1     -11.422   8.692  42.066  1.00  0.00    -0.238 OA
ATOM      9  H1  UNL     1     -13.934  10.530  42.822  1.00  0.00     0.171 HD
BRANCH   7  10
HETATM   10  O1  UNL     1     -12.083  10.493  40.876  1.00  0.00    -0.294 OA
BRANCH  10  11
HETATM   11  C2  UNL     1     -12.828  10.449  39.671  1.00  0.00     0.061 C 
HETATM   12  C1  UNL     1     -12.665   9.094  38.999  1.00  0.00     0.046 C 
HETATM   13  C3  UNL     1     -14.290  10.721  39.869  1.00  0.00     0.046 C 
HETATM   14  C4  UNL     1     -12.265  11.499  38.745  1.00  0.00     0.046 C 
ENDBRANCH  10  11
ENDBRANCH   7  10
ENDBRANCH   4   6
BRANCH   5  15
HETATM   15  C8  UNL     1     -14.222   6.268  44.075  1.00  0.00     0.010 C 
HETATM   16  C9  UNL     1     -15.751   6.005  43.708  1.00  0.00     0.008 C 
HETATM   17  C10 UNL     1     -16.345   4.997  44.615  1.00  0.00     0.001 C 
HETATM   18  C11 UNL     1     -15.401   3.906  45.020  1.00  0.00     0.000 C 
HETATM   19  C12 UNL     1     -14.140   4.415  45.650  1.00  0.00     0.001 C 
HETATM   20  C13 UNL     1     -14.175   5.964  45.502  1.00  0.00     0.008 C 
ENDBRANCH   5  15
ENDBRANCH   1   4
BRANCH   1  21
HETATM   21  O3  UNL     1     -14.479   9.165  46.003  1.00  0.00    -0.344 OA
ATOM     22  H3  UNL     1     -14.094   8.756  46.769  1.00  0.00     0.219 HD
ENDBRANCH   1  21
BRANCH   2  23
HETATM   23  C15 UNL     1     -13.307  11.712  46.629  1.00  0.00     0.080 C 
BRANCH  23  24
HETATM   24  C16 UNL     1     -14.655  12.390  46.642  1.00  0.00     0.068 C 
BRANCH  24  25
HETATM   25  C17 UNL     1     -15.332  12.160  47.971  1.00  0.00     0.072 C 
BRANCH  25  26
HETATM   26  C18 UNL     1     -16.834  12.360  47.731  1.00  0.00     0.304 C 
HETATM   27  F1  UNL     1     -17.134  11.752  46.507  1.00  0.00    -0.220 F 
BRANCH  26  28
HETATM   28  O4  UNL     1     -17.128  13.714  47.701  1.00  0.00    -0.367 OA
ATOM     29  H4  UNL     1     -17.019  14.047  46.818  1.00  0.00     0.213 HD
ENDBRANCH  26  28
ENDBRANCH  25  26
ENDBRANCH  24  25
ENDBRANCH  23  24
BRANCH  23  30
HETATM   30  C19 UNL     1     -12.187  12.555  47.018  1.00  0.00     0.267 C 
HETATM   31  O5  UNL     1     -11.533  13.260  46.189  1.00  0.00    -0.266 OA
HETATM   32  N3  UNL     1     -11.809  12.591  48.379  1.00  0.00    -0.336 N 
HETATM   33  C20 UNL     1     -11.202  11.679  49.027  1.00  0.00     0.064 C 
ATOM     34  H3  UNL     1     -12.048  13.437  48.897  1.00  0.00     0.168 HD
BRANCH  33  35
HETATM   35  C21 UNL     1     -10.845  11.811  50.462  1.00  0.00     0.045 C 
BRANCH  35  36
HETATM   36  C22 UNL     1      -9.404  11.458  50.690  1.00  0.00     0.016 C 
BRANCH  36  37
HETATM   37  C23 UNL     1      -8.900  12.047  52.003  1.00  0.00     0.086 C 
HETATM   38  S1  UNL     1      -9.830  13.508  52.475  1.00  0.00    -0.098 SA
ENDBRANCH  36  37
ENDBRANCH  35  36
ENDBRANCH  33  35
ENDBRANCH  23  30
ENDBRANCH   2  23
TORSDOF 15
ENDMDL
MODEL 5
REMARK VINA RESULT: -6.706577768      1.491      1.811
REMARK  15 active torsions:
REMARK  status: ('A' for Active; 'I' for Inactive)
REMARK    1  A    between atoms: C2_2  and  O1_5 
REMARK    2  A    between atoms: O1_5  and  C5_6 
REMARK       I    between atoms: C5_6  and  N1_8 
REMARK    3  A    between atoms: N1_8  and  C6_10 
REMARK    4  A    between atoms: C6_10  and  C14_18 
REMARK    5  A    between atoms: C7_11  and  C8_12 
REMARK    6  A    between atoms: C14_18  and  O3_19 
REMARK    7  A    between atoms: N2_21  and  C15_23 
REMARK    8  A    between atoms: C15_23  and  C16_24 
REMARK    9  A    between atoms: C15_23  and  C19_30 
REMARK   10  A    between atoms: C16_24  and  C17_25 
REMARK   11  A    between atoms: C17_25  and  C18_26 
REMARK   12  A    between atoms: C18_26  and  O4_27 
REMARK       I    between atoms: C19_30  and  N3_32 
REMARK   13  A    between atoms: C20_34  and  C21_35 
REMARK   14  A    between atoms: C21_35  and  C22_36 
REMARK   15  A    between atoms: C22_36  and  C23_37 
ROOT
HETATM    1  C14 UNL     1     -12.126   8.244  45.092  1.00  0.00     0.167 C 
HETATM    2  N2  UNL     1     -12.917   7.567  45.975  1.00  0.00    -0.334 N 
ATOM      3  H2  UNL     1     -13.687   8.128  46.340  1.00  0.00     0.168 HD
ENDROOT
BRANCH   1   4
HETATM    4  C6  UNL     1     -12.153   9.567  44.583  1.00  0.00     0.084 C 
HETATM    5  C7  UNL     1     -12.729  10.221  43.462  1.00  0.00     0.012 C 
BRANCH   4   6
HETATM    6  N1  UNL     1     -12.527  10.370  45.842  1.00  0.00    -0.299 N 
HETATM    7  C5  UNL     1     -11.578  11.154  46.488  1.00  0.00     0.366 C 
HETATM    8  O2  UNL     1     -10.399  11.180  46.009  1.00  0.00    -0.238 OA
ATOM      9  H1  UNL     1     -13.479  10.326  46.206  1.00  0.00     0.171 HD
BRANCH   7  10
HETATM   10  O1  UNL     1     -11.818  11.904  47.609  1.00  0.00    -0.294 OA
BRANCH  10  11
HETATM   11  C2  UNL     1     -12.033  11.387  48.910  1.00  0.00     0.061 C 
HETATM   12  C1  UNL     1     -13.522  11.351  49.225  1.00  0.00     0.046 C 
HETATM   13  C3  UNL     1     -11.463  10.013  49.104  1.00  0.00     0.046 C 
HETATM   14  C4  UNL     1     -11.371  12.323  49.891  1.00  0.00     0.046 C 
ENDBRANCH  10  11
ENDBRANCH   7  10
ENDBRANCH   4   6
BRANCH   5  15
HETATM   15  C8  UNL     1     -12.682  10.037  42.041  1.00  0.00     0.010 C 
HETATM   16  C9  UNL     1     -13.597  11.205  41.457  1.00  0.00     0.008 C 
HETATM   17  C10 UNL     1     -14.097  10.857  40.108  1.00  0.00     0.001 C 
HETATM   18  C11 UNL     1     -13.120  10.088  39.272  1.00  0.00     0.000 C 
HETATM   19  C12 UNL     1     -12.638   8.830  39.929  1.00  0.00     0.001 C 
HETATM   20  C13 UNL     1     -13.209   8.849  41.377  1.00  0.00     0.008 C 
ENDBRANCH   5  15
ENDBRANCH   1   4
BRANCH   1  21
HETATM   21  O3  UNL     1     -11.136   7.523  44.624  1.00  0.00    -0.344 OA
ATOM     22  H3  UNL     1     -10.317   7.659  45.084  1.00  0.00     0.219 HD
ENDBRANCH   1  21
BRANCH   2  23
HETATM   23  C15 UNL     1     -12.890   6.228  46.495  1.00  0.00     0.080 C 
BRANCH  23  24
HETATM   24  C16 UNL     1     -14.136   5.417  46.233  1.00  0.00     0.068 C 
BRANCH  24  25
HETATM   25  C17 UNL     1     -14.871   5.977  45.039  1.00  0.00     0.072 C 
BRANCH  25  26
HETATM   26  C18 UNL     1     -14.427   5.144  43.830  1.00  0.00     0.304 C 
HETATM   27  F1  UNL     1     -14.101   3.871  44.312  1.00  0.00    -0.220 F 
BRANCH  26  28
HETATM   28  O4  UNL     1     -13.334   5.742  43.224  1.00  0.00    -0.367 OA
ATOM     29  H4  UNL     1     -13.417   5.680  42.279  1.00  0.00     0.213 HD
ENDBRANCH  26  28
ENDBRANCH  25  26
ENDBRANCH  24  25
ENDBRANCH  23  24
BRANCH  23  30
HETATM   30  C19 UNL     1     -12.318   6.073  47.822  1.00  0.00     0.267 C 
HETATM   31  O5  UNL     1     -12.699   6.756  48.823  1.00  0.00    -0.266 OA
HETATM   32  N3  UNL     1     -11.291   5.119  48.008  1.00  0.00    -0.336 N 
HETATM   33  C20 UNL     1     -10.082   5.215  47.621  1.00  0.00     0.064 C 
ATOM     34  H3  UNL     1     -11.545   4.265  48.504  1.00  0.00     0.168 HD
BRANCH  33  35
HETATM   35  C21 UNL     1      -9.072   4.155  47.866  1.00  0.00     0.045 C 
BRANCH  35  36
HETATM   36  C22 UNL     1      -8.151   4.013  46.689  1.00  0.00     0.016 C 
BRANCH  36  37
HETATM   37  C23 UNL     1      -6.836   3.359  47.102  1.00  0.00     0.086 C 
HETATM   38  S1  UNL     1      -5.425   4.169  46.344  1.00  0.00    -0.098 SA
ENDBRANCH  36  37
ENDBRANCH  35  36
ENDBRANCH  33  35
ENDBRANCH  23  30
ENDBRANCH   2  23
TORSDOF 15
ENDMDL
