MODEL 1
REMARK VINA RESULT: -6.683362761      0.000      0.000
REMARK  17 active torsions:
REMARK  status: ('A' for Active; 'I' for Inactive)
REMARK    1  A    between atoms: C3_3  and  C4_4 
REMARK    2  A    between atoms: C8_8  and  C10_10 
REMARK    3  A    between atoms: C10_10  and  C11_12 
REMARK    4  A    between atoms: C11_12  and  O2_13 
REMARK    5  A    between atoms: C11_12  and  C12_15 
REMARK    6  A    between atoms: C12_15  and  N1_17 
REMARK    7  A    between atoms: C12_15  and  C14_21 
REMARK    8  A    between atoms: C15_22  and  C16_23 
REMARK    9  A    between atoms: C16_23  and  O3_24 
REMARK   10  A    between atoms: C16_23  and  C20_35 
REMARK   11  A    between atoms: O3_24  and  C17_25 
REMARK       I    between atoms: C17_25  and  N2_27 
REMARK   12  A    between atoms: N2_27  and  C18_29 
REMARK   13  A    between atoms: C18_29  and  N3_31 
REMARK   14  A    between atoms: C20_35  and  O5_36 
REMARK   15  A    between atoms: C21_38  and  C23_40 
REMARK   16  A    between atoms: C23_40  and  C24_41 
REMARK   17  A    between atoms: C23_40  and  C26_43 
ROOT
HETATM    1  C1  UNL     1     -13.703  11.712  43.128  1.00  0.00     0.112 C 
HETATM    2  C2  UNL     1     -13.505  10.271  42.984  1.00  0.00    -0.110 C 
HETATM    3  C3  UNL     1     -13.348   9.085  42.845  1.00  0.00    -0.092 C 
ENDROOT
BRANCH   3   4
HETATM    4  C4  UNL     1     -13.173   7.630  42.654  1.00  0.00     0.048 A 
HETATM    5  C5  UNL     1     -11.836   7.188  42.100  1.00  0.00     0.034 C 
HETATM    6  C6  UNL     1     -14.322   6.818  42.374  1.00  0.00     0.063 A 
HETATM    7  C7  UNL     1     -13.747   6.829  43.790  1.00  0.00    -0.048 A 
HETATM    8  C8  UNL     1     -13.786   6.411  45.040  1.00  0.00    -0.009 C 
HETATM    9  C9  UNL     1     -12.762   6.920  45.982  1.00  0.00     0.052 C 
BRANCH   8  10
HETATM   10  C10 UNL     1     -14.795   5.484  45.483  1.00  0.00     0.186 C 
HETATM   11  O1  UNL     1     -14.995   4.470  44.721  1.00  0.00    -0.290 OA
BRANCH  10  12
HETATM   12  C11 UNL     1     -15.623   5.539  46.679  1.00  0.00     0.231 C 
BRANCH  12  13
HETATM   13  O2  UNL     1     -16.089   4.264  46.978  1.00  0.00    -0.385 OA
ATOM     14  H2  UNL     1     -17.038   4.268  46.987  1.00  0.00     0.210 HD
ENDBRANCH  12  13
BRANCH  12  15
HETATM   15  C12 UNL     1     -16.737   6.550  46.626  1.00  0.00     0.170 C 
HETATM   16  C13 UNL     1     -16.278   7.958  46.774  1.00  0.00     0.054 C 
BRANCH  15  17
HETATM   17  N1  UNL     1     -17.518   6.425  45.402  1.00  0.00    -0.064 N 
ATOM     18  H13 UNL     1     -16.919   6.260  44.593  1.00  0.00     0.275 HD
ATOM     19  H12 UNL     1     -18.048   5.554  45.385  1.00  0.00     0.275 HD
ATOM     20  H11 UNL     1     -18.124   7.232  45.258  1.00  0.00     0.275 HD
ENDBRANCH  15  17
BRANCH  15  21
HETATM   21  C14 UNL     1     -17.684   6.249  47.747  1.00  0.00     0.013 C 
HETATM   22  C15 UNL     1     -18.647   7.034  48.117  1.00  0.00     0.011 C 
BRANCH  22  23
HETATM   23  C16 UNL     1     -19.559   6.615  49.285  1.00  0.00     0.213 C 
BRANCH  23  24
HETATM   24  O3  UNL     1     -20.528   7.594  49.407  1.00  0.00    -0.288 OA
BRANCH  24  25
HETATM   25  C17 UNL     1     -20.693   8.411  50.522  1.00  0.00     0.363 C 
HETATM   26  O4  UNL     1     -19.925   8.233  51.489  1.00  0.00    -0.238 OA
HETATM   27  N2  UNL     1     -21.715   9.391  50.496  1.00  0.00    -0.309 N 
ATOM     28  H2  UNL     1     -22.306   9.478  49.669  1.00  0.00     0.166 HD
BRANCH  27  29
HETATM   29  C18 UNL     1     -21.936  10.269  51.622  1.00  0.00     0.281 C 
HETATM   30  C19 UNL     1     -23.076  11.221  51.323  1.00  0.00     0.063 C 
BRANCH  29  31
HETATM   31  N3  UNL     1     -22.180   9.468  52.797  1.00  0.00    -0.059 N 
ATOM     32  H33 UNL     1     -23.105   9.036  52.789  1.00  0.00     0.276 HD
ATOM     33  H32 UNL     1     -21.625   8.612  52.807  1.00  0.00     0.276 HD
ATOM     34  H31 UNL     1     -22.026  10.042  53.625  1.00  0.00     0.276 HD
ENDBRANCH  29  31
ENDBRANCH  27  29
ENDBRANCH  24  25
ENDBRANCH  23  24
BRANCH  23  35
HETATM   35  C20 UNL     1     -19.969   5.229  48.960  1.00  0.00     0.082 C 
HETATM   36  C21 UNL     1     -20.047   4.181  49.947  1.00  0.00    -0.028 C 
HETATM   37  C22 UNL     1     -18.694   3.982  50.663  1.00  0.00     0.051 C 
BRANCH  35  38
HETATM   38  O5  UNL     1     -21.074   5.332  48.097  1.00  0.00    -0.361 OA
ATOM     39  H5  UNL     1     -21.625   4.579  48.274  1.00  0.00     0.217 HD
ENDBRANCH  35  38
BRANCH  36  40
HETATM   40  C23 UNL     1     -21.138   3.906  50.869  1.00  0.00    -0.072 C 
BRANCH  40  41
HETATM   41  C24 UNL     1     -21.955   4.993  51.444  1.00  0.00     0.030 C 
HETATM   42  C25 UNL     1     -21.402   5.311  52.849  1.00  0.00     0.010 C 
ENDBRANCH  40  41
BRANCH  40  43
HETATM   43  C26 UNL     1     -22.010   2.719  50.414  1.00  0.00     0.030 C 
HETATM   44  C27 UNL     1     -21.912   1.676  51.508  1.00  0.00     0.010 C 
ENDBRANCH  40  43
ENDBRANCH  36  40
ENDBRANCH  23  35
ENDBRANCH  22  23
ENDBRANCH  15  21
ENDBRANCH  12  15
ENDBRANCH  10  12
ENDBRANCH   8  10
ENDBRANCH   3   4
TORSDOF 17
ENDMDL
MODEL 2
REMARK VINA RESULT: -6.546389211      4.543      8.282
REMARK  17 active torsions:
REMARK  status: ('A' for Active; 'I' for Inactive)
REMARK    1  A    between atoms: C3_3  and  C4_4 
REMARK    2  A    between atoms: C8_8  and  C10_10 
REMARK    3  A    between atoms: C10_10  and  C11_12 
REMARK    4  A    between atoms: C11_12  and  O2_13 
REMARK    5  A    between atoms: C11_12  and  C12_15 
REMARK    6  A    between atoms: C12_15  and  N1_17 
REMARK    7  A    between atoms: C12_15  and  C14_21 
REMARK    8  A    between atoms: C15_22  and  C16_23 
REMARK    9  A    between atoms: C16_23  and  O3_24 
REMARK   10  A    between atoms: C16_23  and  C20_35 
REMARK   11  A    between atoms: O3_24  and  C17_25 
REMARK       I    between atoms: C17_25  and  N2_27 
REMARK   12  A    between atoms: N2_27  and  C18_29 
REMARK   13  A    between atoms: C18_29  and  N3_31 
REMARK   14  A    between atoms: C20_35  and  O5_36 
REMARK   15  A    between atoms: C21_38  and  C23_40 
REMARK   16  A    between atoms: C23_40  and  C24_41 
REMARK   17  A    between atoms: C23_40  and  C26_43 
ROOT
HETATM    1  C1  UNL     1     -12.926   8.243  42.041  1.00  0.00     0.112 C 
HETATM    2  C2  UNL     1     -13.708   7.290  42.825  1.00  0.00    -0.110 C 
HETATM    3  C3  UNL     1     -14.339   6.488  43.465  1.00  0.00    -0.092 C 
ENDROOT
BRANCH   3   4
HETATM    4  C4  UNL     1     -15.103   5.485  44.237  1.00  0.00     0.048 A 
HETATM    5  C5  UNL     1     -14.579   4.067  44.187  1.00  0.00     0.034 C 
HETATM    6  C6  UNL     1     -16.511   5.678  44.433  1.00  0.00     0.063 A 
HETATM    7  C7  UNL     1     -15.549   6.009  45.574  1.00  0.00    -0.048 A 
HETATM    8  C8  UNL     1     -15.342   6.436  46.805  1.00  0.00    -0.009 C 
HETATM    9  C9  UNL     1     -13.948   6.495  47.302  1.00  0.00     0.052 C 
BRANCH   8  10
HETATM   10  C10 UNL     1     -16.440   6.836  47.647  1.00  0.00     0.186 C 
HETATM   11  O1  UNL     1     -17.075   5.883  48.227  1.00  0.00    -0.290 OA
BRANCH  10  12
HETATM   12  C11 UNL     1     -16.931   8.177  47.930  1.00  0.00     0.231 C 
BRANCH  12  13
HETATM   13  O2  UNL     1     -16.687   8.999  46.837  1.00  0.00    -0.385 OA
ATOM     14  H2  UNL     1     -16.932   9.891  47.051  1.00  0.00     0.210 HD
ENDBRANCH  12  13
BRANCH  12  15
HETATM   15  C12 UNL     1     -16.417   8.775  49.213  1.00  0.00     0.170 C 
HETATM   16  C13 UNL     1     -17.446   9.528  49.979  1.00  0.00     0.054 C 
BRANCH  15  17
HETATM   17  N1  UNL     1     -15.820   7.763  50.076  1.00  0.00    -0.064 N 
ATOM     18  H13 UNL     1     -16.498   7.396  50.744  1.00  0.00     0.275 HD
ATOM     19  H12 UNL     1     -15.623   6.904  49.562  1.00  0.00     0.275 HD
ATOM     20  H11 UNL     1     -14.986   8.115  50.547  1.00  0.00     0.275 HD
ENDBRANCH  15  17
BRANCH  15  21
HETATM   21  C14 UNL     1     -15.309   9.722  48.867  1.00  0.00     0.013 C 
HETATM   22  C15 UNL     1     -15.396  11.012  48.966  1.00  0.00     0.011 C 
BRANCH  22  23
HETATM   23  C16 UNL     1     -14.187  11.884  48.581  1.00  0.00     0.213 C 
BRANCH  23  24
HETATM   24  O3  UNL     1     -13.056  11.115  48.793  1.00  0.00    -0.288 OA
BRANCH  24  25
HETATM   25  C17 UNL     1     -12.047  11.424  49.701  1.00  0.00     0.363 C 
HETATM   26  O4  UNL     1     -11.852  12.628  49.961  1.00  0.00    -0.238 OA
HETATM   27  N2  UNL     1     -11.305  10.362  50.273  1.00  0.00    -0.309 N 
ATOM     28  H2  UNL     1     -11.523   9.400  50.011  1.00  0.00     0.166 HD
BRANCH  27  29
HETATM   29  C18 UNL     1     -10.246  10.618  51.221  1.00  0.00     0.281 C 
HETATM   30  C19 UNL     1      -9.770   9.316  51.833  1.00  0.00     0.063 C 
BRANCH  29  31
HETATM   31  N3  UNL     1      -9.185  11.332  50.553  1.00  0.00    -0.059 N 
ATOM     32  H33 UNL     1      -8.528  10.707  50.087  1.00  0.00     0.276 HD
ATOM     33  H32 UNL     1      -9.513  11.833  49.727  1.00  0.00     0.276 HD
ATOM     34  H31 UNL     1      -8.727  11.947  51.225  1.00  0.00     0.276 HD
ENDBRANCH  29  31
ENDBRANCH  27  29
ENDBRANCH  24  25
ENDBRANCH  23  24
BRANCH  23  35
HETATM   35  C20 UNL     1     -14.491  12.359  47.210  1.00  0.00     0.082 C 
HETATM   36  C21 UNL     1     -13.594  12.169  46.097  1.00  0.00    -0.028 C 
HETATM   37  C22 UNL     1     -12.209  12.790  46.379  1.00  0.00     0.051 C 
BRANCH  35  38
HETATM   38  O5  UNL     1     -15.837  12.037  46.966  1.00  0.00    -0.361 OA
ATOM     39  H5  UNL     1     -15.918  11.099  47.099  1.00  0.00     0.217 HD
ENDBRANCH  35  38
BRANCH  36  40
HETATM   40  C23 UNL     1     -13.444  10.984  45.268  1.00  0.00    -0.072 C 
BRANCH  40  41
HETATM   41  C24 UNL     1     -13.305   9.639  45.861  1.00  0.00     0.030 C 
HETATM   42  C25 UNL     1     -11.885   9.124  45.543  1.00  0.00     0.010 C 
ENDBRANCH  40  41
BRANCH  40  43
HETATM   43  C26 UNL     1     -14.410  10.978  44.066  1.00  0.00     0.030 C 
HETATM   44  C27 UNL     1     -13.688  11.685  42.937  1.00  0.00     0.010 C 
ENDBRANCH  40  43
ENDBRANCH  36  40
ENDBRANCH  23  35
ENDBRANCH  22  23
ENDBRANCH  15  21
ENDBRANCH  12  15
ENDBRANCH  10  12
ENDBRANCH   8  10
ENDBRANCH   3   4
TORSDOF 17
ENDMDL
MODEL 3
REMARK VINA RESULT: -6.522866556      4.423      7.981
REMARK  17 active torsions:
REMARK  status: ('A' for Active; 'I' for Inactive)
REMARK    1  A    between atoms: C3_3  and  C4_4 
REMARK    2  A    between atoms: C8_8  and  C10_10 
REMARK    3  A    between atoms: C10_10  and  C11_12 
REMARK    4  A    between atoms: C11_12  and  O2_13 
REMARK    5  A    between atoms: C11_12  and  C12_15 
REMARK    6  A    between atoms: C12_15  and  N1_17 
REMARK    7  A    between atoms: C12_15  and  C14_21 
REMARK    8  A    between atoms: C15_22  and  C16_23 
REMARK    9  A    between atoms: C16_23  and  O3_24 
REMARK   10  A    between atoms: C16_23  and  C20_35 
REMARK   11  A    between atoms: O3_24  and  C17_25 
REMARK       I    between atoms: C17_25  and  N2_27 
REMARK   12  A    between atoms: N2_27  and  C18_29 
REMARK   13  A    between atoms: C18_29  and  N3_31 
REMARK   14  A    between atoms: C20_35  and  O5_36 
REMARK   15  A    between atoms: C21_38  and  C23_40 
REMARK   16  A    between atoms: C23_40  and  C24_41 
REMARK   17  A    between atoms: C23_40  and  C26_43 
ROOT
HETATM    1  C1  UNL     1     -17.517   9.438  50.753  1.00  0.00     0.112 C 
HETATM    2  C2  UNL     1     -17.010  10.256  49.653  1.00  0.00    -0.110 C 
HETATM    3  C3  UNL     1     -16.597  10.914  48.733  1.00  0.00    -0.092 C 
ENDROOT
BRANCH   3   4
HETATM    4  C4  UNL     1     -16.088  11.701  47.590  1.00  0.00     0.048 A 
HETATM    5  C5  UNL     1     -16.614  13.115  47.468  1.00  0.00     0.034 C 
HETATM    6  C6  UNL     1     -15.702  11.018  46.388  1.00  0.00     0.063 A 
HETATM    7  C7  UNL     1     -14.618  11.489  47.357  1.00  0.00    -0.048 A 
HETATM    8  C8  UNL     1     -13.343  11.595  47.679  1.00  0.00    -0.009 C 
HETATM    9  C9  UNL     1     -12.995  12.274  48.949  1.00  0.00     0.052 C 
BRANCH   8  10
HETATM   10  C10 UNL     1     -12.314  11.066  46.822  1.00  0.00     0.186 C 
HETATM   11  O1  UNL     1     -12.354  11.450  45.598  1.00  0.00    -0.290 OA
BRANCH  10  12
HETATM   12  C11 UNL     1     -11.230  10.153  47.154  1.00  0.00     0.231 C 
BRANCH  12  13
HETATM   13  O2  UNL     1     -10.011  10.773  46.909  1.00  0.00    -0.385 OA
ATOM     14  H2  UNL     1      -9.364  10.453  47.526  1.00  0.00     0.210 HD
ENDBRANCH  12  13
BRANCH  12  15
HETATM   15  C12 UNL     1     -11.321   8.804  46.493  1.00  0.00     0.170 C 
HETATM   16  C13 UNL     1     -10.774   8.774  45.109  1.00  0.00     0.054 C 
BRANCH  15  17
HETATM   17  N1  UNL     1     -10.671   7.770  47.289  1.00  0.00    -0.064 N 
ATOM     18  H13 UNL     1      -9.883   7.356  46.791  1.00  0.00     0.275 HD
ATOM     19  H12 UNL     1     -10.166   8.171  48.079  1.00  0.00     0.275 HD
ATOM     20  H11 UNL     1     -11.334   7.057  47.594  1.00  0.00     0.275 HD
ENDBRANCH  15  17
BRANCH  15  21
HETATM   21  C14 UNL     1     -12.768   8.420  46.429  1.00  0.00     0.013 C 
HETATM   22  C15 UNL     1     -13.208   7.324  45.892  1.00  0.00     0.011 C 
BRANCH  22  23
HETATM   23  C16 UNL     1     -14.721   7.039  45.887  1.00  0.00     0.213 C 
BRANCH  23  24
HETATM   24  O3  UNL     1     -15.086   6.835  44.569  1.00  0.00    -0.288 OA
BRANCH  24  25
HETATM   25  C17 UNL     1     -14.193   6.589  43.529  1.00  0.00     0.363 C 
HETATM   26  O4  UNL     1     -13.854   5.406  43.325  1.00  0.00    -0.238 OA
HETATM   27  N2  UNL     1     -13.724   7.687  42.767  1.00  0.00    -0.309 N 
ATOM     28  H2  UNL     1     -14.046   8.629  42.994  1.00  0.00     0.166 HD
BRANCH  27  29
HETATM   29  C18 UNL     1     -12.796   7.497  41.676  1.00  0.00     0.281 C 
HETATM   30  C19 UNL     1     -12.583   8.804  40.941  1.00  0.00     0.063 C 
BRANCH  29  31
HETATM   31  N3  UNL     1     -11.567   6.952  42.200  1.00  0.00    -0.059 N 
ATOM     32  H33 UNL     1     -11.720   6.114  42.761  1.00  0.00     0.276 HD
ATOM     33  H32 UNL     1     -10.987   6.533  41.474  1.00  0.00     0.276 HD
ATOM     34  H31 UNL     1     -11.077   7.682  42.717  1.00  0.00     0.276 HD
ENDBRANCH  29  31
ENDBRANCH  27  29
ENDBRANCH  24  25
ENDBRANCH  23  24
BRANCH  23  35
HETATM   35  C20 UNL     1     -14.896   5.937  46.863  1.00  0.00     0.082 C 
HETATM   36  C21 UNL     1     -15.719   6.056  48.041  1.00  0.00    -0.028 C 
HETATM   37  C22 UNL     1     -15.264   7.234  48.928  1.00  0.00     0.051 C 
BRANCH  35  38
HETATM   38  O5  UNL     1     -15.080   4.764  46.111  1.00  0.00    -0.361 OA
ATOM     39  H5  UNL     1     -15.800   4.294  46.516  1.00  0.00     0.217 HD
ENDBRANCH  35  38
BRANCH  36  40
HETATM   40  C23 UNL     1     -17.161   5.893  48.139  1.00  0.00    -0.072 C 
BRANCH  40  41
HETATM   41  C24 UNL     1     -17.778   5.119  49.234  1.00  0.00     0.030 C 
HETATM   42  C25 UNL     1     -18.841   6.012  49.907  1.00  0.00     0.010 C 
ENDBRANCH  40  41
BRANCH  40  43
HETATM   43  C26 UNL     1     -17.923   7.206  47.871  1.00  0.00     0.030 C 
HETATM   44  C27 UNL     1     -18.320   7.177  46.410  1.00  0.00     0.010 C 
ENDBRANCH  40  43
ENDBRANCH  36  40
ENDBRANCH  23  35
ENDBRANCH  22  23
ENDBRANCH  15  21
ENDBRANCH  12  15
ENDBRANCH  10  12
ENDBRANCH   8  10
ENDBRANCH   3   4
TORSDOF 17
ENDMDL
MODEL 4
REMARK VINA RESULT: -6.511927842      4.592      9.249
REMARK  17 active torsions:
REMARK  status: ('A' for Active; 'I' for Inactive)
REMARK    1  A    between atoms: C3_3  and  C4_4 
REMARK    2  A    between atoms: C8_8  and  C10_10 
REMARK    3  A    between atoms: C10_10  and  C11_12 
REMARK    4  A    between atoms: C11_12  and  O2_13 
REMARK    5  A    between atoms: C11_12  and  C12_15 
REMARK    6  A    between atoms: C12_15  and  N1_17 
REMARK    7  A    between atoms: C12_15  and  C14_21 
REMARK    8  A    between atoms: C15_22  and  C16_23 
REMARK    9  A    between atoms: C16_23  and  O3_24 
REMARK   10  A    between atoms: C16_23  and  C20_35 
REMARK   11  A    between atoms: O3_24  and  C17_25 
REMARK       I    between atoms: C17_25  and  N2_27 
REMARK   12  A    between atoms: N2_27  and  C18_29 
REMARK   13  A    between atoms: C18_29  and  N3_31 
REMARK   14  A    between atoms: C20_35  and  O5_36 
REMARK   15  A    between atoms: C21_38  and  C23_40 
REMARK   16  A    between atoms: C23_40  and  C24_41 
REMARK   17  A    between atoms: C23_40  and  C26_43 
ROOT
HETATM    1  C1  UNL     1     -16.656  12.650  47.517  1.00  0.00     0.112 C 
HETATM    2  C2  UNL     1     -16.644  11.337  48.157  1.00  0.00    -0.110 C 
HETATM    3  C3  UNL     1     -16.646  10.262  48.701  1.00  0.00    -0.092 C 
ENDROOT
BRANCH   3   4
HETATM    4  C4  UNL     1     -16.654   8.955  49.391  1.00  0.00     0.048 A 
HETATM    5  C5  UNL     1     -17.737   8.757  50.429  1.00  0.00     0.034 C 
HETATM    6  C6  UNL     1     -15.417   8.247  49.562  1.00  0.00     0.063 A 
HETATM    7  C7  UNL     1     -16.378   7.811  48.456  1.00  0.00    -0.048 A 
HETATM    8  C8  UNL     1     -16.674   7.006  47.453  1.00  0.00    -0.009 C 
HETATM    9  C9  UNL     1     -17.961   7.208  46.748  1.00  0.00     0.052 C 
BRANCH   8  10
HETATM   10  C10 UNL     1     -15.773   5.957  47.052  1.00  0.00     0.186 C 
HETATM   11  O1  UNL     1     -14.728   5.808  47.783  1.00  0.00    -0.290 OA
BRANCH  10  12
HETATM   12  C11 UNL     1     -15.885   5.039  45.928  1.00  0.00     0.231 C 
BRANCH  12  13
HETATM   13  O2  UNL     1     -15.293   3.826  46.261  1.00  0.00    -0.385 OA
ATOM     14  H2  UNL     1     -14.954   3.413  45.476  1.00  0.00     0.210 HD
ENDBRANCH  12  13
BRANCH  12  15
HETATM   15  C12 UNL     1     -15.368   5.580  44.622  1.00  0.00     0.170 C 
HETATM   16  C13 UNL     1     -14.314   4.736  43.997  1.00  0.00     0.054 C 
BRANCH  15  17
HETATM   17  N1  UNL     1     -16.446   5.791  43.664  1.00  0.00    -0.064 N 
ATOM     18  H13 UNL     1     -16.850   6.723  43.756  1.00  0.00     0.275 HD
ATOM     19  H12 UNL     1     -16.089   5.867  42.711  1.00  0.00     0.275 HD
ATOM     20  H11 UNL     1     -17.161   5.067  43.736  1.00  0.00     0.275 HD
ENDBRANCH  15  17
BRANCH  15  21
HETATM   21  C14 UNL     1     -14.784   6.934  44.885  1.00  0.00     0.013 C 
HETATM   22  C15 UNL     1     -13.772   7.428  44.242  1.00  0.00     0.011 C 
BRANCH  22  23
HETATM   23  C16 UNL     1     -13.261   8.836  44.602  1.00  0.00     0.213 C 
BRANCH  23  24
HETATM   24  O3  UNL     1     -13.686   9.684  43.596  1.00  0.00    -0.288 OA
BRANCH  24  25
HETATM   25  C17 UNL     1     -12.928  10.034  42.482  1.00  0.00     0.363 C 
HETATM   26  O4  UNL     1     -11.864  10.655  42.677  1.00  0.00    -0.238 OA
HETATM   27  N2  UNL     1     -13.405   9.668  41.199  1.00  0.00    -0.309 N 
ATOM     28  H2  UNL     1     -14.286   9.161  41.118  1.00  0.00     0.166 HD
BRANCH  27  29
HETATM   29  C18 UNL     1     -12.664  10.002  40.005  1.00  0.00     0.281 C 
HETATM   30  C19 UNL     1     -12.583   8.798  39.089  1.00  0.00     0.063 C 
BRANCH  29  31
HETATM   31  N3  UNL     1     -13.291  11.136  39.370  1.00  0.00    -0.059 N 
ATOM     32  H33 UNL     1     -14.169  11.398  39.819  1.00  0.00     0.276 HD
ATOM     33  H32 UNL     1     -12.783  12.005  39.535  1.00  0.00     0.276 HD
ATOM     34  H31 UNL     1     -13.407  10.935  38.377  1.00  0.00     0.276 HD
ENDBRANCH  29  31
ENDBRANCH  27  29
ENDBRANCH  24  25
ENDBRANCH  23  24
BRANCH  23  35
HETATM   35  C20 UNL     1     -13.737   9.062  45.987  1.00  0.00     0.082 C 
HETATM   36  C21 UNL     1     -12.852   9.100  47.125  1.00  0.00    -0.028 C 
HETATM   37  C22 UNL     1     -12.040   7.793  47.248  1.00  0.00     0.051 C 
BRANCH  35  38
HETATM   38  O5  UNL     1     -14.681  10.102  45.920  1.00  0.00    -0.361 OA
ATOM     39  H5  UNL     1     -14.646  10.553  46.755  1.00  0.00     0.217 HD
ENDBRANCH  35  38
BRANCH  36  40
HETATM   40  C23 UNL     1     -12.055  10.222  47.596  1.00  0.00    -0.072 C 
BRANCH  40  41
HETATM   41  C24 UNL     1     -11.434  11.176  46.657  1.00  0.00     0.030 C 
HETATM   42  C25 UNL     1     -10.157  10.521  46.088  1.00  0.00     0.010 C 
ENDBRANCH  40  41
BRANCH  40  43
HETATM   43  C26 UNL     1     -12.704  10.944  48.794  1.00  0.00     0.030 C 
HETATM   44  C27 UNL     1     -12.998  12.356  48.332  1.00  0.00     0.010 C 
ENDBRANCH  40  43
ENDBRANCH  36  40
ENDBRANCH  23  35
ENDBRANCH  22  23
ENDBRANCH  15  21
ENDBRANCH  12  15
ENDBRANCH  10  12
ENDBRANCH   8  10
ENDBRANCH   3   4
TORSDOF 17
ENDMDL
MODEL 5
REMARK VINA RESULT: -6.426712947      4.788      8.684
REMARK  17 active torsions:
REMARK  status: ('A' for Active; 'I' for Inactive)
REMARK    1  A    between atoms: C3_3  and  C4_4 
REMARK    2  A    between atoms: C8_8  and  C10_10 
REMARK    3  A    between atoms: C10_10  and  C11_12 
REMARK    4  A    between atoms: C11_12  and  O2_13 
REMARK    5  A    between atoms: C11_12  and  C12_15 
REMARK    6  A    between atoms: C12_15  and  N1_17 
REMARK    7  A    between atoms: C12_15  and  C14_21 
REMARK    8  A    between atoms: C15_22  and  C16_23 
REMARK    9  A    between atoms: C16_23  and  O3_24 
REMARK   10  A    between atoms: C16_23  and  C20_35 
REMARK   11  A    between atoms: O3_24  and  C17_25 
REMARK       I    between atoms: C17_25  and  N2_27 
REMARK   12  A    between atoms: N2_27  and  C18_29 
REMARK   13  A    between atoms: C18_29  and  N3_31 
REMARK   14  A    between atoms: C20_35  and  O5_36 
REMARK   15  A    between atoms: C21_38  and  C23_40 
REMARK   16  A    between atoms: C23_40  and  C24_41 
REMARK   17  A    between atoms: C23_40  and  C26_43 
ROOT
HETATM    1  C1  UNL     1     -16.739  12.521  47.564  1.00  0.00     0.112 C 
HETATM    2  C2  UNL     1     -16.559  11.163  48.072  1.00  0.00    -0.110 C 
HETATM    3  C3  UNL     1     -16.427  10.037  48.478  1.00  0.00    -0.092 C 
ENDROOT
BRANCH   3   4
HETATM    4  C4  UNL     1     -16.289   8.650  48.971  1.00  0.00     0.048 A 
HETATM    5  C5  UNL     1     -16.949   8.347  50.298  1.00  0.00     0.034 C 
HETATM    6  C6  UNL     1     -15.128   7.890  48.605  1.00  0.00     0.063 A 
HETATM    7  C7  UNL     1     -16.446   7.634  47.875  1.00  0.00    -0.048 A 
HETATM    8  C8  UNL     1     -17.135   6.978  46.960  1.00  0.00    -0.009 C 
HETATM    9  C9  UNL     1     -18.569   7.310  46.792  1.00  0.00     0.052 C 
BRANCH   8  10
HETATM   10  C10 UNL     1     -16.514   5.966  46.146  1.00  0.00     0.186 C 
HETATM   11  O1  UNL     1     -16.110   4.919  46.768  1.00  0.00    -0.290 OA
BRANCH  10  12
HETATM   12  C11 UNL     1     -16.280   5.968  44.709  1.00  0.00     0.231 C 
BRANCH  12  13
HETATM   13  O2  UNL     1     -17.122   5.044  44.102  1.00  0.00    -0.385 OA
ATOM     14  H2  UNL     1     -17.583   4.551  44.769  1.00  0.00     0.210 HD
ENDBRANCH  12  13
BRANCH  12  15
HETATM   15  C12 UNL     1     -14.842   5.773  44.307  1.00  0.00     0.170 C 
HETATM   16  C13 UNL     1     -14.410   4.350  44.291  1.00  0.00     0.054 C 
BRANCH  15  17
HETATM   17  N1  UNL     1     -14.561   6.376  43.009  1.00  0.00    -0.064 N 
ATOM     18  H13 UNL     1     -13.559   6.394  42.816  1.00  0.00     0.275 HD
ATOM     19  H12 UNL     1     -14.858   5.769  42.245  1.00  0.00     0.275 HD
ATOM     20  H11 UNL     1     -14.972   7.305  42.929  1.00  0.00     0.275 HD
ENDBRANCH  15  17
BRANCH  15  21
HETATM   21  C14 UNL     1     -13.986   6.508  45.292  1.00  0.00     0.013 C 
HETATM   22  C15 UNL     1     -12.863   7.084  44.994  1.00  0.00     0.011 C 
BRANCH  22  23
HETATM   23  C16 UNL     1     -12.070   7.812  46.095  1.00  0.00     0.213 C 
BRANCH  23  24
HETATM   24  O3  UNL     1     -11.009   6.990  46.433  1.00  0.00    -0.288 OA
BRANCH  24  25
HETATM   25  C17 UNL     1     -10.771   6.489  47.710  1.00  0.00     0.363 C 
HETATM   26  O4  UNL     1      -9.648   5.995  47.938  1.00  0.00    -0.238 OA
HETATM   27  N2  UNL     1     -11.809   6.567  48.670  1.00  0.00    -0.309 N 
ATOM     28  H2  UNL     1     -12.703   6.984  48.410  1.00  0.00     0.166 HD
BRANCH  27  29
HETATM   29  C18 UNL     1     -11.624   6.064  50.012  1.00  0.00     0.281 C 
HETATM   30  C19 UNL     1     -12.802   6.454  50.881  1.00  0.00     0.063 C 
BRANCH  29  31
HETATM   31  N3  UNL     1     -11.433   4.635  49.951  1.00  0.00    -0.059 N 
ATOM     32  H33 UNL     1     -11.530   4.189  50.864  1.00  0.00     0.276 HD
ATOM     33  H32 UNL     1     -12.202   4.159  49.480  1.00  0.00     0.276 HD
ATOM     34  H31 UNL     1     -10.531   4.441  49.518  1.00  0.00     0.276 HD
ENDBRANCH  29  31
ENDBRANCH  27  29
ENDBRANCH  24  25
ENDBRANCH  23  24
BRANCH  23  35
HETATM   35  C20 UNL     1     -11.793   9.154  45.531  1.00  0.00     0.082 C 
HETATM   36  C21 UNL     1     -12.472  10.346  45.973  1.00  0.00    -0.028 C 
HETATM   37  C22 UNL     1     -14.002  10.213  45.812  1.00  0.00     0.051 C 
BRANCH  35  38
HETATM   38  O5  UNL     1     -10.395   9.259  45.420  1.00  0.00    -0.361 OA
ATOM     39  H5  UNL     1     -10.170   8.947  44.551  1.00  0.00     0.217 HD
ENDBRANCH  35  38
BRANCH  36  40
HETATM   40  C23 UNL     1     -12.168  11.165  47.135  1.00  0.00    -0.072 C 
BRANCH  40  41
HETATM   41  C24 UNL     1     -12.230  12.639  47.079  1.00  0.00     0.030 C 
HETATM   42  C25 UNL     1     -13.115  13.122  48.248  1.00  0.00     0.010 C 
ENDBRANCH  40  41
BRANCH  40  43
HETATM   43  C26 UNL     1     -12.806  10.617  48.427  1.00  0.00     0.030 C 
HETATM   44  C27 UNL     1     -11.689   9.955  49.206  1.00  0.00     0.010 C 
ENDBRANCH  40  43
ENDBRANCH  36  40
ENDBRANCH  23  35
ENDBRANCH  22  23
ENDBRANCH  15  21
ENDBRANCH  12  15
ENDBRANCH  10  12
ENDBRANCH   8  10
ENDBRANCH   3   4
TORSDOF 17
ENDMDL
