MODEL 1
REMARK VINA RESULT: -7.267704040      0.000      0.000
REMARK  17 active torsions:
REMARK  status: ('A' for Active; 'I' for Inactive)
REMARK    1  A    between atoms: C2_2  and  C4_4 
REMARK    2  A    between atoms: C4_4  and  C5_5 
REMARK    3  A    between atoms: C5_5  and  C6_6 
REMARK    4  A    between atoms: C5_5  and  C13_13 
REMARK    5  A    between atoms: C7_7  and  C8_8 
REMARK    6  A    between atoms: C13_13  and  C14_14 
REMARK    7  A    between atoms: C13_13  and  C20_23 
REMARK    8  A    between atoms: C14_14  and  C15_15 
REMARK    9  A    between atoms: C16_16  and  C17_17 
REMARK   10  A    between atoms: C17_17  and  O1_18 
REMARK   11  A    between atoms: C17_17  and  C18_20 
REMARK   12  A    between atoms: C20_23  and  C21_24 
REMARK   13  A    between atoms: C21_24  and  O3_26 
REMARK   14  A    between atoms: O3_26  and  C22_27 
REMARK   15  A    between atoms: C24_29  and  O4_30 
REMARK   16  A    between atoms: C25_32  and  O5_33 
REMARK   17  A    between atoms: C27_36  and  O6_37 
ROOT
HETATM    1  C13 UNL     1     -13.521  10.752  46.248  1.00  0.00     0.006 C 
ENDROOT
BRANCH   1   2
HETATM    2  C5  UNL     1     -14.685  10.090  46.955  1.00  0.00     0.013 C 
BRANCH   2   3
HETATM    3  C4  UNL     1     -15.953  10.881  46.736  1.00  0.00     0.012 C 
BRANCH   3   4
HETATM    4  C2  UNL     1     -16.594  11.599  47.813  1.00  0.00    -0.022 C 
HETATM    5  C1  UNL     1     -16.294  11.342  49.227  1.00  0.00     0.009 C 
HETATM    6  C3  UNL     1     -16.478  13.127  47.602  1.00  0.00     0.009 C 
ENDBRANCH   3   4
ENDBRANCH   2   3
BRANCH   2   7
HETATM    7  C6  UNL     1     -14.899   8.665  46.634  1.00  0.00    -0.025 C 
HETATM    8  C7  UNL     1     -14.164   7.764  46.086  1.00  0.00    -0.025 C 
BRANCH   8   9
HETATM    9  C8  UNL     1     -14.693   6.364  45.912  1.00  0.00     0.016 A 
HETATM   10  C9  UNL     1     -16.036   6.093  45.406  1.00  0.00     0.018 A 
HETATM   11  C10 UNL     1     -14.813   5.671  44.641  1.00  0.00    -0.040 A 
HETATM   12  C11 UNL     1     -14.444   4.191  44.641  1.00  0.00     0.015 C 
HETATM   13  C12 UNL     1     -14.640   6.328  43.292  1.00  0.00     0.015 C 
ENDBRANCH   8   9
ENDBRANCH   2   7
ENDBRANCH   1   2
BRANCH   1  14
HETATM   14  C14 UNL     1     -12.892  11.887  46.991  1.00  0.00     0.032 C 
BRANCH  14  15
HETATM   15  C15 UNL     1     -12.515  11.442  48.398  1.00  0.00    -0.028 C 
HETATM   16  C16 UNL     1     -11.247  11.333  48.773  1.00  0.00     0.002 C 
BRANCH  16  17
HETATM   17  C17 UNL     1     -10.822  10.909  50.112  1.00  0.00     0.158 C 
BRANCH  17  18
HETATM   18  O1  UNL     1     -10.545   9.547  50.197  1.00  0.00    -0.390 OA
ATOM     19  H1  UNL     1      -9.861   9.341  50.822  1.00  0.00     0.210 HD
ENDBRANCH  17  18
BRANCH  17  20
HETATM   20  C18 UNL     1      -9.552  11.700  50.446  1.00  0.00     0.110 C 
HETATM   21  C19 UNL     1      -9.926  13.128  50.849  1.00  0.00     0.030 C 
HETATM   22 CL1  UNL     1      -8.666  10.916  51.775  1.00  0.00    -0.122 Cl
ENDBRANCH  17  20
ENDBRANCH  16  17
ENDBRANCH  14  15
ENDBRANCH   1  14
BRANCH   1  23
HETATM   23  C20 UNL     1     -13.869  11.214  44.877  1.00  0.00     0.116 C 
BRANCH  23  24
HETATM   24  C21 UNL     1     -13.133  10.422  43.874  1.00  0.00     0.259 C 
HETATM   25  O2  UNL     1     -11.881  10.505  43.807  1.00  0.00    -0.265 OA
BRANCH  24  26
HETATM   26  O3  UNL     1     -13.729   9.567  42.968  1.00  0.00    -0.313 OA
BRANCH  26  27
HETATM   27  C22 UNL     1     -13.844   9.836  41.593  1.00  0.00     0.163 C 
HETATM   28  C23 UNL     1     -13.626  11.259  41.219  1.00  0.00     0.069 C 
HETATM   29  C24 UNL     1     -13.881  11.388  39.729  1.00  0.00     0.149 C 
HETATM   30  C25 UNL     1     -12.727  10.635  39.058  1.00  0.00     0.149 C 
HETATM   31  C26 UNL     1     -12.955   9.172  39.348  1.00  0.00     0.068 C 
HETATM   32  C27 UNL     1     -12.989   8.865  40.811  1.00  0.00     0.150 C 
BRANCH  29  33
HETATM   33  O4  UNL     1     -15.036  10.681  39.408  1.00  0.00    -0.393 OA
ATOM     34  H4  UNL     1     -15.180  10.737  38.471  1.00  0.00     0.210 HD
ENDBRANCH  29  33
BRANCH  30  35
HETATM   35  O5  UNL     1     -11.519  11.055  39.641  1.00  0.00    -0.393 OA
ATOM     36  H5  UNL     1     -10.927  10.312  39.679  1.00  0.00     0.210 HD
ENDBRANCH  30  35
BRANCH  32  37
HETATM   37  O6  UNL     1     -11.718   8.724  41.298  1.00  0.00    -0.393 OA
ATOM     38  H6  UNL     1     -11.127   9.422  41.044  1.00  0.00     0.210 HD
ENDBRANCH  32  37
ENDBRANCH  26  27
ENDBRANCH  24  26
ENDBRANCH  23  24
ENDBRANCH   1  23
TORSDOF 17
ENDMDL
MODEL 2
REMARK VINA RESULT: -7.169410308      3.227      6.690
REMARK  17 active torsions:
REMARK  status: ('A' for Active; 'I' for Inactive)
REMARK    1  A    between atoms: C2_2  and  C4_4 
REMARK    2  A    between atoms: C4_4  and  C5_5 
REMARK    3  A    between atoms: C5_5  and  C6_6 
REMARK    4  A    between atoms: C5_5  and  C13_13 
REMARK    5  A    between atoms: C7_7  and  C8_8 
REMARK    6  A    between atoms: C13_13  and  C14_14 
REMARK    7  A    between atoms: C13_13  and  C20_23 
REMARK    8  A    between atoms: C14_14  and  C15_15 
REMARK    9  A    between atoms: C16_16  and  C17_17 
REMARK   10  A    between atoms: C17_17  and  O1_18 
REMARK   11  A    between atoms: C17_17  and  C18_20 
REMARK   12  A    between atoms: C20_23  and  C21_24 
REMARK   13  A    between atoms: C21_24  and  O3_26 
REMARK   14  A    between atoms: O3_26  and  C22_27 
REMARK   15  A    between atoms: C24_29  and  O4_30 
REMARK   16  A    between atoms: C25_32  and  O5_33 
REMARK   17  A    between atoms: C27_36  and  O6_37 
ROOT
HETATM    1  C13 UNL     1     -13.205  11.129  45.496  1.00  0.00     0.006 C 
ENDROOT
BRANCH   1   2
HETATM    2  C5  UNL     1     -14.321  10.484  46.290  1.00  0.00     0.013 C 
BRANCH   2   3
HETATM    3  C4  UNL     1     -15.566  11.340  46.240  1.00  0.00     0.012 C 
BRANCH   3   4
HETATM    4  C2  UNL     1     -16.364  11.587  47.418  1.00  0.00    -0.022 C 
HETATM    5  C1  UNL     1     -15.986  11.097  48.750  1.00  0.00     0.009 C 
HETATM    6  C3  UNL     1     -16.673  13.095  47.567  1.00  0.00     0.009 C 
ENDBRANCH   3   4
ENDBRANCH   2   3
BRANCH   2   7
HETATM    7  C6  UNL     1     -14.636   9.087  45.931  1.00  0.00    -0.025 C 
HETATM    8  C7  UNL     1     -15.085   8.084  46.598  1.00  0.00    -0.025 C 
BRANCH   8   9
HETATM    9  C8  UNL     1     -15.313   6.763  45.910  1.00  0.00     0.016 A 
HETATM   10  C9  UNL     1     -15.742   5.569  46.634  1.00  0.00     0.018 A 
HETATM   11  C10 UNL     1     -16.616   6.205  45.591  1.00  0.00    -0.040 A 
HETATM   12  C11 UNL     1     -16.740   5.510  44.239  1.00  0.00     0.015 C 
HETATM   13  C12 UNL     1     -17.928   6.755  46.100  1.00  0.00     0.015 C 
ENDBRANCH   8   9
ENDBRANCH   2   7
ENDBRANCH   1   2
BRANCH   1  14
HETATM   14  C14 UNL     1     -13.652  12.110  44.459  1.00  0.00     0.032 C 
BRANCH  14  15
HETATM   15  C15 UNL     1     -13.419  11.538  43.068  1.00  0.00    -0.028 C 
HETATM   16  C16 UNL     1     -14.417  11.379  42.208  1.00  0.00     0.002 C 
BRANCH  16  17
HETATM   17  C17 UNL     1     -14.255  10.834  40.856  1.00  0.00     0.158 C 
BRANCH  17  18
HETATM   18  O1  UNL     1     -14.039  11.813  39.889  1.00  0.00    -0.390 OA
ATOM     19  H1  UNL     1     -14.136  11.492  39.001  1.00  0.00     0.210 HD
ENDBRANCH  17  18
BRANCH  17  20
HETATM   20  C18 UNL     1     -13.044   9.895  40.898  1.00  0.00     0.110 C 
HETATM   21  C19 UNL     1     -13.431   8.587  41.589  1.00  0.00     0.030 C 
HETATM   22 CL1  UNL     1     -12.467   9.553  39.250  1.00  0.00    -0.122 Cl
ENDBRANCH  17  20
ENDBRANCH  16  17
ENDBRANCH  14  15
ENDBRANCH   1  14
BRANCH   1  23
HETATM   23  C20 UNL     1     -12.306  10.132  44.856  1.00  0.00     0.116 C 
BRANCH  23  24
HETATM   24  C21 UNL     1     -11.053  10.013  45.624  1.00  0.00     0.259 C 
HETATM   25  O2  UNL     1     -10.496  11.045  46.077  1.00  0.00    -0.265 OA
BRANCH  24  26
HETATM   26  O3  UNL     1     -10.417   8.818  45.896  1.00  0.00    -0.313 OA
BRANCH  26  27
HETATM   27  C22 UNL     1     -11.010   7.756  46.599  1.00  0.00     0.163 C 
HETATM   28  C23 UNL     1     -10.094   6.625  46.904  1.00  0.00     0.069 C 
HETATM   29  C24 UNL     1     -10.912   5.535  47.573  1.00  0.00     0.149 C 
HETATM   30  C25 UNL     1     -11.289   6.102  48.946  1.00  0.00     0.149 C 
HETATM   31  C26 UNL     1     -12.283   7.207  48.686  1.00  0.00     0.068 C 
HETATM   32  C27 UNL     1     -11.737   8.291  47.813  1.00  0.00     0.150 C 
BRANCH  29  33
HETATM   33  O4  UNL     1     -12.110   5.384  46.881  1.00  0.00    -0.393 OA
ATOM     34  H4  UNL     1     -12.827   5.636  47.450  1.00  0.00     0.210 HD
ENDBRANCH  29  33
BRANCH  30  35
HETATM   35  O5  UNL     1     -10.132   6.632  49.544  1.00  0.00    -0.393 OA
ATOM     36  H5  UNL     1      -9.376   6.166  49.205  1.00  0.00     0.210 HD
ENDBRANCH  30  35
BRANCH  32  37
HETATM   37  O6  UNL     1     -11.004   9.178  48.555  1.00  0.00    -0.393 OA
ATOM     38  H6  UNL     1     -11.530   9.773  49.076  1.00  0.00     0.210 HD
ENDBRANCH  32  37
ENDBRANCH  26  27
ENDBRANCH  24  26
ENDBRANCH  23  24
ENDBRANCH   1  23
TORSDOF 17
ENDMDL
MODEL 3
REMARK VINA RESULT: -7.102613781      3.164      7.278
REMARK  17 active torsions:
REMARK  status: ('A' for Active; 'I' for Inactive)
REMARK    1  A    between atoms: C2_2  and  C4_4 
REMARK    2  A    between atoms: C4_4  and  C5_5 
REMARK    3  A    between atoms: C5_5  and  C6_6 
REMARK    4  A    between atoms: C5_5  and  C13_13 
REMARK    5  A    between atoms: C7_7  and  C8_8 
REMARK    6  A    between atoms: C13_13  and  C14_14 
REMARK    7  A    between atoms: C13_13  and  C20_23 
REMARK    8  A    between atoms: C14_14  and  C15_15 
REMARK    9  A    between atoms: C16_16  and  C17_17 
REMARK   10  A    between atoms: C17_17  and  O1_18 
REMARK   11  A    between atoms: C17_17  and  C18_20 
REMARK   12  A    between atoms: C20_23  and  C21_24 
REMARK   13  A    between atoms: C21_24  and  O3_26 
REMARK   14  A    between atoms: O3_26  and  C22_27 
REMARK   15  A    between atoms: C24_29  and  O4_30 
REMARK   16  A    between atoms: C25_32  and  O5_33 
REMARK   17  A    between atoms: C27_36  and  O6_37 
ROOT
HETATM    1  C13 UNL     1     -13.371  11.309  44.634  1.00  0.00     0.006 C 
ENDROOT
BRANCH   1   2
HETATM    2  C5  UNL     1     -13.875  11.923  45.923  1.00  0.00     0.013 C 
BRANCH   2   3
HETATM    3  C4  UNL     1     -15.131  11.221  46.384  1.00  0.00     0.012 C 
BRANCH   3   4
HETATM    4  C2  UNL     1     -15.774  11.562  47.632  1.00  0.00    -0.022 C 
HETATM    5  C1  UNL     1     -16.823  12.585  47.730  1.00  0.00     0.009 C 
HETATM    6  C3  UNL     1     -16.318  10.296  48.334  1.00  0.00     0.009 C 
ENDBRANCH   3   4
ENDBRANCH   2   3
BRANCH   2   7
HETATM    7  C6  UNL     1     -12.890  12.001  47.019  1.00  0.00    -0.025 C 
HETATM    8  C7  UNL     1     -12.069  11.154  47.530  1.00  0.00    -0.025 C 
BRANCH   8   9
HETATM    9  C8  UNL     1     -11.168  11.568  48.664  1.00  0.00     0.016 A 
HETATM   10  C9  UNL     1     -11.466  12.712  49.522  1.00  0.00     0.018 A 
HETATM   11  C10 UNL     1     -11.429  11.314  50.071  1.00  0.00    -0.040 A 
HETATM   12  C11 UNL     1     -10.228  10.909  50.919  1.00  0.00     0.015 C 
HETATM   13  C12 UNL     1     -12.742  10.803  50.615  1.00  0.00     0.015 C 
ENDBRANCH   8   9
ENDBRANCH   2   7
ENDBRANCH   1   2
BRANCH   1  14
HETATM   14  C14 UNL     1     -13.704  12.078  43.395  1.00  0.00     0.032 C 
BRANCH  14  15
HETATM   15  C15 UNL     1     -14.093  11.121  42.276  1.00  0.00    -0.028 C 
HETATM   16  C16 UNL     1     -13.381  11.034  41.160  1.00  0.00     0.002 C 
BRANCH  16  17
HETATM   17  C17 UNL     1     -13.705  10.133  40.048  1.00  0.00     0.158 C 
BRANCH  17  18
HETATM   18  O1  UNL     1     -13.647  10.752  38.802  1.00  0.00    -0.390 OA
ATOM     19  H1  UNL     1     -12.920  10.455  38.269  1.00  0.00     0.210 HD
ENDBRANCH  17  18
BRANCH  17  20
HETATM   20  C18 UNL     1     -12.683   8.992  40.089  1.00  0.00     0.110 C 
HETATM   21  C19 UNL     1     -13.197   7.871  40.993  1.00  0.00     0.030 C 
HETATM   22 CL1  UNL     1     -12.398   8.356  38.451  1.00  0.00    -0.122 Cl
ENDBRANCH  17  20
ENDBRANCH  16  17
ENDBRANCH  14  15
ENDBRANCH   1  14
BRANCH   1  23
HETATM   23  C20 UNL     1     -13.816   9.900  44.456  1.00  0.00     0.116 C 
BRANCH  23  24
HETATM   24  C21 UNL     1     -12.656   8.992  44.506  1.00  0.00     0.259 C 
HETATM   25  O2  UNL     1     -11.491   9.465  44.518  1.00  0.00    -0.265 OA
BRANCH  24  26
HETATM   26  O3  UNL     1     -12.746   7.615  44.541  1.00  0.00    -0.313 OA
BRANCH  26  27
HETATM   27  C22 UNL     1     -13.827   6.913  45.103  1.00  0.00     0.163 C 
HETATM   28  C23 UNL     1     -14.398   5.851  44.232  1.00  0.00     0.069 C 
HETATM   29  C24 UNL     1     -15.604   5.268  44.946  1.00  0.00     0.149 C 
HETATM   30  C25 UNL     1     -15.030   4.509  46.147  1.00  0.00     0.149 C 
HETATM   31  C26 UNL     1     -14.508   5.559  47.097  1.00  0.00     0.068 C 
HETATM   32  C27 UNL     1     -13.456   6.428  46.487  1.00  0.00     0.150 C 
BRANCH  29  33
HETATM   33  O4  UNL     1     -16.358   6.310  45.478  1.00  0.00    -0.393 OA
ATOM     34  H4  UNL     1     -17.255   6.222  45.179  1.00  0.00     0.210 HD
ENDBRANCH  29  33
BRANCH  30  35
HETATM   35  O5  UNL     1     -13.971   3.699  45.701  1.00  0.00    -0.393 OA
ATOM     36  H5  UNL     1     -13.260   4.262  45.414  1.00  0.00     0.210 HD
ENDBRANCH  30  35
BRANCH  32  37
HETATM   37  O6  UNL     1     -12.233   5.815  46.553  1.00  0.00    -0.393 OA
ATOM     38  H6  UNL     1     -11.839   5.833  47.416  1.00  0.00     0.210 HD
ENDBRANCH  32  37
ENDBRANCH  26  27
ENDBRANCH  24  26
ENDBRANCH  23  24
ENDBRANCH   1  23
TORSDOF 17
ENDMDL
MODEL 4
REMARK VINA RESULT: -7.094423906      2.505      7.060
REMARK  17 active torsions:
REMARK  status: ('A' for Active; 'I' for Inactive)
REMARK    1  A    between atoms: C2_2  and  C4_4 
REMARK    2  A    between atoms: C4_4  and  C5_5 
REMARK    3  A    between atoms: C5_5  and  C6_6 
REMARK    4  A    between atoms: C5_5  and  C13_13 
REMARK    5  A    between atoms: C7_7  and  C8_8 
REMARK    6  A    between atoms: C13_13  and  C14_14 
REMARK    7  A    between atoms: C13_13  and  C20_23 
REMARK    8  A    between atoms: C14_14  and  C15_15 
REMARK    9  A    between atoms: C16_16  and  C17_17 
REMARK   10  A    between atoms: C17_17  and  O1_18 
REMARK   11  A    between atoms: C17_17  and  C18_20 
REMARK   12  A    between atoms: C20_23  and  C21_24 
REMARK   13  A    between atoms: C21_24  and  O3_26 
REMARK   14  A    between atoms: O3_26  and  C22_27 
REMARK   15  A    between atoms: C24_29  and  O4_30 
REMARK   16  A    between atoms: C25_32  and  O5_33 
REMARK   17  A    between atoms: C27_36  and  O6_37 
ROOT
HETATM    1  C13 UNL     1     -13.404  10.865  45.782  1.00  0.00     0.006 C 
ENDROOT
BRANCH   1   2
HETATM    2  C5  UNL     1     -14.305  10.060  46.695  1.00  0.00     0.013 C 
BRANCH   2   3
HETATM    3  C4  UNL     1     -15.726  10.563  46.609  1.00  0.00     0.012 C 
BRANCH   3   4
HETATM    4  C2  UNL     1     -16.350  11.263  47.708  1.00  0.00    -0.022 C 
HETATM    5  C1  UNL     1     -16.110  10.910  49.112  1.00  0.00     0.009 C 
HETATM    6  C3  UNL     1     -16.127  12.789  47.586  1.00  0.00     0.009 C 
ENDBRANCH   3   4
ENDBRANCH   2   3
BRANCH   2   7
HETATM    7  C6  UNL     1     -14.259   8.597  46.507  1.00  0.00    -0.025 C 
HETATM    8  C7  UNL     1     -15.163   7.704  46.308  1.00  0.00    -0.025 C 
BRANCH   8   9
HETATM    9  C8  UNL     1     -14.771   6.259  46.141  1.00  0.00     0.016 A 
HETATM   10  C9  UNL     1     -15.572   5.164  46.683  1.00  0.00     0.018 A 
HETATM   11  C10 UNL     1     -15.382   5.334  45.202  1.00  0.00    -0.040 A 
HETATM   12  C11 UNL     1     -14.437   4.375  44.486  1.00  0.00     0.015 C 
HETATM   13  C12 UNL     1     -16.643   5.620  44.421  1.00  0.00     0.015 C 
ENDBRANCH   8   9
ENDBRANCH   2   7
ENDBRANCH   1   2
BRANCH   1  14
HETATM   14  C14 UNL     1     -14.005  11.229  44.462  1.00  0.00     0.032 C 
BRANCH  14  15
HETATM   15  C15 UNL     1     -13.138  10.695  43.330  1.00  0.00    -0.028 C 
HETATM   16  C16 UNL     1     -13.656   9.981  42.339  1.00  0.00     0.002 C 
BRANCH  16  17
HETATM   17  C17 UNL     1     -12.872   9.439  41.223  1.00  0.00     0.158 C 
BRANCH  17  18
HETATM   18  O1  UNL     1     -11.626  10.043  41.080  1.00  0.00    -0.390 OA
ATOM     19  H1  UNL     1     -10.979   9.479  40.674  1.00  0.00     0.210 HD
ENDBRANCH  17  18
BRANCH  17  20
HETATM   20  C18 UNL     1     -12.675   7.945  41.503  1.00  0.00     0.110 C 
HETATM   21  C19 UNL     1     -11.325   7.723  42.188  1.00  0.00     0.030 C 
HETATM   22 CL1  UNL     1     -13.982   7.332  42.544  1.00  0.00    -0.122 Cl
ENDBRANCH  17  20
ENDBRANCH  16  17
ENDBRANCH  14  15
ENDBRANCH   1  14
BRANCH   1  23
HETATM   23  C20 UNL     1     -12.091  10.208  45.545  1.00  0.00     0.116 C 
BRANCH  23  24
HETATM   24  C21 UNL     1     -11.030  10.911  46.289  1.00  0.00     0.259 C 
HETATM   25  O2  UNL     1      -9.836  10.829  45.906  1.00  0.00    -0.265 OA
BRANCH  24  26
HETATM   26  O3  UNL     1     -11.250  11.681  47.415  1.00  0.00    -0.313 OA
BRANCH  26  27
HETATM   27  C22 UNL     1     -11.120  11.202  48.730  1.00  0.00     0.163 C 
HETATM   28  C23 UNL     1      -9.914  11.691  49.452  1.00  0.00     0.069 C 
HETATM   29  C24 UNL     1      -9.879  11.007  50.807  1.00  0.00     0.149 C 
HETATM   30  C25 UNL     1     -11.057  11.601  51.586  1.00  0.00     0.149 C 
HETATM   31  C26 UNL     1     -12.306  11.064  50.932  1.00  0.00     0.068 C 
HETATM   32  C27 UNL     1     -12.411  11.427  49.485  1.00  0.00     0.150 C 
BRANCH  29  33
HETATM   33  O4  UNL     1     -10.174   9.658  50.637  1.00  0.00    -0.393 OA
ATOM     34  H4  UNL     1     -11.102   9.568  50.453  1.00  0.00     0.210 HD
ENDBRANCH  29  33
BRANCH  30  35
HETATM   35  O5  UNL     1     -11.017  13.001  51.462  1.00  0.00    -0.393 OA
ATOM     36  H5  UNL     1     -10.955  13.379  52.332  1.00  0.00     0.210 HD
ENDBRANCH  30  35
BRANCH  32  37
HETATM   37  O6  UNL     1     -12.925  12.688  49.345  1.00  0.00    -0.393 OA
ATOM     38  H6  UNL     1     -12.798  13.244  50.105  1.00  0.00     0.210 HD
ENDBRANCH  32  37
ENDBRANCH  26  27
ENDBRANCH  24  26
ENDBRANCH  23  24
ENDBRANCH   1  23
TORSDOF 17
ENDMDL
MODEL 5
REMARK VINA RESULT: -7.010453408      3.378      6.476
REMARK  17 active torsions:
REMARK  status: ('A' for Active; 'I' for Inactive)
REMARK    1  A    between atoms: C2_2  and  C4_4 
REMARK    2  A    between atoms: C4_4  and  C5_5 
REMARK    3  A    between atoms: C5_5  and  C6_6 
REMARK    4  A    between atoms: C5_5  and  C13_13 
REMARK    5  A    between atoms: C7_7  and  C8_8 
REMARK    6  A    between atoms: C13_13  and  C14_14 
REMARK    7  A    between atoms: C13_13  and  C20_23 
REMARK    8  A    between atoms: C14_14  and  C15_15 
REMARK    9  A    between atoms: C16_16  and  C17_17 
REMARK   10  A    between atoms: C17_17  and  O1_18 
REMARK   11  A    between atoms: C17_17  and  C18_20 
REMARK   12  A    between atoms: C20_23  and  C21_24 
REMARK   13  A    between atoms: C21_24  and  O3_26 
REMARK   14  A    between atoms: O3_26  and  C22_27 
REMARK   15  A    between atoms: C24_29  and  O4_30 
REMARK   16  A    between atoms: C25_32  and  O5_33 
REMARK   17  A    between atoms: C27_36  and  O6_37 
ROOT
HETATM    1  C13 UNL     1     -11.797   8.821  44.413  1.00  0.00     0.006 C 
ENDROOT
BRANCH   1   2
HETATM    2  C5  UNL     1     -12.321  10.208  44.103  1.00  0.00     0.013 C 
BRANCH   2   3
HETATM    3  C4  UNL     1     -12.411  10.414  42.609  1.00  0.00     0.012 C 
BRANCH   3   4
HETATM    4  C2  UNL     1     -13.678  10.385  41.915  1.00  0.00    -0.022 C 
HETATM    5  C1  UNL     1     -14.478  11.592  41.672  1.00  0.00     0.009 C 
HETATM    6  C3  UNL     1     -13.545   9.656  40.557  1.00  0.00     0.009 C 
ENDBRANCH   3   4
ENDBRANCH   2   3
BRANCH   2   7
HETATM    7  C6  UNL     1     -13.594  10.570  44.756  1.00  0.00    -0.025 C 
HETATM    8  C7  UNL     1     -14.035  10.449  45.958  1.00  0.00    -0.025 C 
BRANCH   8   9
HETATM    9  C8  UNL     1     -15.413  10.946  46.308  1.00  0.00     0.016 A 
HETATM   10  C9  UNL     1     -16.326  10.185  47.158  1.00  0.00     0.018 A 
HETATM   11  C10 UNL     1     -15.791  11.522  47.588  1.00  0.00    -0.040 A 
HETATM   12  C11 UNL     1     -16.732  12.720  47.538  1.00  0.00     0.015 C 
HETATM   13  C12 UNL     1     -14.921  11.498  48.823  1.00  0.00     0.015 C 
ENDBRANCH   8   9
ENDBRANCH   2   7
ENDBRANCH   1   2
BRANCH   1  14
HETATM   14  C14 UNL     1     -10.696   8.772  45.424  1.00  0.00     0.032 C 
BRANCH  14  15
HETATM   15  C15 UNL     1     -10.842   7.531  46.293  1.00  0.00    -0.028 C 
HETATM   16  C16 UNL     1      -9.795   6.778  46.606  1.00  0.00     0.002 C 
BRANCH  16  17
HETATM   17  C17 UNL     1      -9.873   5.571  47.438  1.00  0.00     0.158 C 
BRANCH  17  18
HETATM   18  O1  UNL     1     -11.092   4.907  47.331  1.00  0.00    -0.390 OA
ATOM     19  H1  UNL     1     -11.544   5.080  46.515  1.00  0.00     0.210 HD
ENDBRANCH  17  18
BRANCH  17  20
HETATM   20  C18 UNL     1      -8.751   4.637  46.971  1.00  0.00     0.110 C 
HETATM   21  C19 UNL     1      -7.671   5.448  46.253  1.00  0.00     0.030 C 
HETATM   22 CL1  UNL     1      -8.035   3.786  48.360  1.00  0.00    -0.122 Cl
ENDBRANCH  17  20
ENDBRANCH  16  17
ENDBRANCH  14  15
ENDBRANCH   1  14
BRANCH   1  23
HETATM   23  C20 UNL     1     -11.361   8.086  43.195  1.00  0.00     0.116 C 
BRANCH  23  24
HETATM   24  C21 UNL     1     -12.370   7.077  42.824  1.00  0.00     0.259 C 
HETATM   25  O2  UNL     1     -12.105   6.223  41.940  1.00  0.00    -0.265 OA
BRANCH  24  26
HETATM   26  O3  UNL     1     -13.627   6.990  43.388  1.00  0.00    -0.313 OA
BRANCH  26  27
HETATM   27  C22 UNL     1     -14.003   6.010  44.323  1.00  0.00     0.163 C 
HETATM   28  C23 UNL     1     -14.349   6.537  45.670  1.00  0.00     0.069 C 
HETATM   29  C24 UNL     1     -14.632   5.350  46.571  1.00  0.00     0.149 C 
HETATM   30  C25 UNL     1     -15.942   4.752  46.047  1.00  0.00     0.149 C 
HETATM   31  C26 UNL     1     -15.616   4.134  44.710  1.00  0.00     0.068 C 
HETATM   32  C27 UNL     1     -15.070   5.120  43.727  1.00  0.00     0.150 C 
BRANCH  29  33
HETATM   33  O4  UNL     1     -13.657   4.380  46.356  1.00  0.00    -0.393 OA
ATOM     34  H4  UNL     1     -12.839   4.679  46.734  1.00  0.00     0.210 HD
ENDBRANCH  29  33
BRANCH  30  35
HETATM   35  O5  UNL     1     -16.873   5.792  45.878  1.00  0.00    -0.393 OA
ATOM     36  H5  UNL     1     -16.547   6.384  45.210  1.00  0.00     0.210 HD
ENDBRANCH  30  35
BRANCH  32  37
HETATM   37  O6  UNL     1     -16.090   5.802  43.120  1.00  0.00    -0.393 OA
ATOM     38  H6  UNL     1     -16.287   5.501  42.241  1.00  0.00     0.210 HD
ENDBRANCH  32  37
ENDBRANCH  26  27
ENDBRANCH  24  26
ENDBRANCH  23  24
ENDBRANCH   1  23
TORSDOF 17
ENDMDL
