MODEL 1
REMARK VINA RESULT: -7.657299030      0.000      0.000
REMARK  15 active torsions:
REMARK  status: ('A' for Active; 'I' for Inactive)
REMARK    1  A    between atoms: C2_2  and  O1_3 
REMARK    2  A    between atoms: O1_3  and  C3_4 
REMARK    3  A    between atoms: C3_4  and  C4_5 
REMARK    4  A    between atoms: C4_5  and  O2_6 
REMARK    5  A    between atoms: O2_6  and  C5_7 
REMARK    6  A    between atoms: C5_7  and  C6_8 
REMARK    7  A    between atoms: C6_8  and  O3_9 
REMARK    8  A    between atoms: O3_9  and  C7_10 
REMARK    9  A    between atoms: C7_10  and  C8_11 
REMARK   10  A    between atoms: C8_11  and  N1_12 
REMARK   11  A    between atoms: N1_12  and  C9_14 
REMARK   12  A    between atoms: C10_17  and  C11_18 
REMARK   13  A    between atoms: C11_18  and  C12_19 
REMARK       I    between atoms: C12_19  and  N3_21 
REMARK   14  A    between atoms: N3_21  and  C13_23 
REMARK   15  A    between atoms: C16_28  and  N5_29 
ROOT
HETATM    1  C12 UNL     1      79.135   4.526  -5.732  1.00  0.00     0.227 C 
HETATM    2  O4  UNL     1      78.559   3.476  -5.414  1.00  0.00    -0.273 OA
HETATM    3  N3  UNL     1      79.207   5.630  -4.866  1.00  0.00    -0.326 N 
ATOM      4  H3  UNL     1      79.704   6.446  -5.224  1.00  0.00     0.169 HD
ENDROOT
BRANCH   1   5
HETATM    5  C11 UNL     1      79.775   4.600  -7.103  1.00  0.00     0.160 C 
BRANCH   5   6
HETATM    6  C10 UNL     1      80.959   3.642  -7.096  1.00  0.00     0.026 A 
HETATM    7  N2  UNL     1      81.184   2.829  -6.093  1.00  0.00    -0.340 N 
HETATM    8  C9  UNL     1      82.237   2.020  -6.160  1.00  0.00     0.144 A 
ATOM      9  H2  UNL     1      80.566   2.818  -5.281  1.00  0.00     0.168 HD
HETATM   10  S1  UNL     1      82.935   2.402  -7.665  1.00  0.00    -0.064 SA
HETATM   11  C24 UNL     1      81.830   3.603  -8.155  1.00  0.00     0.078 A 
BRANCH   8  12
HETATM   12  N1  UNL     1      82.611   1.145  -5.249  1.00  0.00    -0.368 N 
ATOM     13  H1  UNL     1      82.041   0.948  -4.428  1.00  0.00     0.161 HD
BRANCH  12  14
HETATM   14  C8  UNL     1      83.889   0.473  -5.479  1.00  0.00     0.148 C 
BRANCH  14  15
HETATM   15  C7  UNL     1      83.727  -1.016  -5.365  1.00  0.00     0.187 C 
BRANCH  15  16
HETATM   16  O3  UNL     1      83.482  -1.643  -6.481  1.00  0.00    -0.387 OA
BRANCH  16  17
HETATM   17  C6  UNL     1      82.382  -1.923  -7.130  1.00  0.00     0.193 C 
BRANCH  17  18
HETATM   18  C5  UNL     1      81.941  -1.215  -8.354  1.00  0.00     0.193 C 
BRANCH  18  19
HETATM   19  O2  UNL     1      81.959  -1.891  -9.512  1.00  0.00    -0.387 OA
BRANCH  19  20
HETATM   20  C4  UNL     1      81.237  -1.464 -10.565  1.00  0.00     0.193 C 
BRANCH  20  21
HETATM   21  C3  UNL     1      81.793  -0.346 -11.374  1.00  0.00     0.193 C 
BRANCH  21  22
HETATM   22  O1  UNL     1      83.135  -0.438 -11.639  1.00  0.00    -0.389 OA
BRANCH  22  23
HETATM   23  C2  UNL     1      83.661   0.869 -11.522  1.00  0.00     0.163 C 
HETATM   24  C1  UNL     1      82.545   1.891 -11.478  1.00  0.00     0.033 C 
ENDBRANCH  22  23
ENDBRANCH  21  22
ENDBRANCH  20  21
ENDBRANCH  19  20
ENDBRANCH  18  19
ENDBRANCH  17  18
ENDBRANCH  16  17
ENDBRANCH  15  16
ENDBRANCH  14  15
ENDBRANCH  12  14
ENDBRANCH   8  12
ENDBRANCH   5   6
ENDBRANCH   1   5
BRANCH   3  25
HETATM   25  C13 UNL     1      78.678   5.754  -3.558  1.00  0.00     0.048 A 
HETATM   26  C14 UNL     1      79.351   5.400  -2.426  1.00  0.00     0.062 A 
HETATM   27  C15 UNL     1      78.803   5.537  -1.166  1.00  0.00     0.079 A 
HETATM   28  N4  UNL     1      79.287   5.254   0.059  1.00  0.00    -0.190 N 
HETATM   29  C17 UNL     1      77.553   6.040  -1.021  1.00  0.00     0.087 A 
HETATM   30  C16 UNL     1      78.369   5.567   0.959  1.00  0.00     0.676 A 
ATOM     31  H4  UNL     1      80.207   4.863   0.259  1.00  0.00     0.184 HD
HETATM   32  N6  UNL     1      77.294   6.054   0.317  1.00  0.00    -0.189 N 
ATOM     33  H6  UNL     1      76.431   6.378   0.756  1.00  0.00     0.184 HD
HETATM   34  C18 UNL     1      76.831   6.412  -2.126  1.00  0.00     0.006 A 
HETATM   35  C19 UNL     1      75.571   6.911  -1.883  1.00  0.00     0.016 A 
HETATM   36  C23 UNL     1      77.382   6.273  -3.388  1.00  0.00     0.005 A 
HETATM   37  C20 UNL     1      74.807   7.298  -2.959  1.00  0.00     0.025 A 
HETATM   38  C21 UNL     1      75.318   7.177  -4.227  1.00  0.00     0.035 A 
HETATM   39 CL1  UNL     1      74.338   7.671  -5.572  1.00  0.00    -0.084 Cl
HETATM   40  C22 UNL     1      76.604   6.665  -4.436  1.00  0.00     0.038 A 
BRANCH  30  41
HETATM   41  N5  UNL     1      78.445   5.447   2.258  1.00  0.00    -0.234 N 
ATOM     42  H52 UNL     1      78.441   4.551   2.744  1.00  0.00     0.174 HD
ATOM     43  H51 UNL     1      78.513   6.191   2.954  1.00  0.00     0.174 HD
ENDBRANCH  30  41
ENDBRANCH   3  25
TORSDOF 15
ENDMDL
MODEL 2
REMARK VINA RESULT: -7.582224285      2.261      3.986
REMARK  15 active torsions:
REMARK  status: ('A' for Active; 'I' for Inactive)
REMARK    1  A    between atoms: C2_2  and  O1_3 
REMARK    2  A    between atoms: O1_3  and  C3_4 
REMARK    3  A    between atoms: C3_4  and  C4_5 
REMARK    4  A    between atoms: C4_5  and  O2_6 
REMARK    5  A    between atoms: O2_6  and  C5_7 
REMARK    6  A    between atoms: C5_7  and  C6_8 
REMARK    7  A    between atoms: C6_8  and  O3_9 
REMARK    8  A    between atoms: O3_9  and  C7_10 
REMARK    9  A    between atoms: C7_10  and  C8_11 
REMARK   10  A    between atoms: C8_11  and  N1_12 
REMARK   11  A    between atoms: N1_12  and  C9_14 
REMARK   12  A    between atoms: C10_17  and  C11_18 
REMARK   13  A    between atoms: C11_18  and  C12_19 
REMARK       I    between atoms: C12_19  and  N3_21 
REMARK   14  A    between atoms: N3_21  and  C13_23 
REMARK   15  A    between atoms: C16_28  and  N5_29 
ROOT
HETATM    1  C12 UNL     1      80.746   8.139  -4.760  1.00  0.00     0.227 C 
HETATM    2  O4  UNL     1      80.967   9.031  -3.928  1.00  0.00    -0.273 OA
HETATM    3  N3  UNL     1      79.879   7.066  -4.492  1.00  0.00    -0.326 N 
ATOM      4  H3  UNL     1      79.766   6.386  -5.245  1.00  0.00     0.169 HD
ENDROOT
BRANCH   1   5
HETATM    5  C11 UNL     1      81.441   8.230  -6.103  1.00  0.00     0.160 C 
BRANCH   5   6
HETATM    6  C10 UNL     1      80.831   7.158  -6.996  1.00  0.00     0.026 A 
HETATM    7  N2  UNL     1      81.293   5.932  -7.019  1.00  0.00    -0.340 N 
HETATM    8  C9  UNL     1      80.707   5.050  -7.824  1.00  0.00     0.144 A 
ATOM      9  H2  UNL     1      82.084   5.660  -6.433  1.00  0.00     0.168 HD
HETATM   10  S1  UNL     1      79.475   5.956  -8.571  1.00  0.00    -0.064 SA
HETATM   11  C24 UNL     1      79.766   7.452  -7.808  1.00  0.00     0.078 A 
BRANCH   8  12
HETATM   12  N1  UNL     1      81.038   3.785  -7.973  1.00  0.00    -0.368 N 
ATOM     13  H1  UNL     1      80.335   3.049  -8.027  1.00  0.00     0.161 HD
BRANCH  12  14
HETATM   14  C8  UNL     1      82.469   3.491  -8.057  1.00  0.00     0.148 C 
BRANCH  14  15
HETATM   15  C7  UNL     1      82.746   2.551  -9.194  1.00  0.00     0.187 C 
BRANCH  15  16
HETATM   16  O3  UNL     1      82.392   1.311  -8.999  1.00  0.00    -0.387 OA
BRANCH  16  17
HETATM   17  C6  UNL     1      82.738   0.407  -8.121  1.00  0.00     0.193 C 
BRANCH  17  18
HETATM   18  C5  UNL     1      81.837  -0.103  -7.061  1.00  0.00     0.193 C 
BRANCH  18  19
HETATM   19  O2  UNL     1      80.910   0.732  -6.570  1.00  0.00    -0.387 OA
BRANCH  19  20
HETATM   20  C4  UNL     1      81.050   1.266  -5.342  1.00  0.00     0.193 C 
BRANCH  20  21
HETATM   21  C3  UNL     1      79.966   2.160  -4.850  1.00  0.00     0.193 C 
BRANCH  21  22
HETATM   22  O1  UNL     1      79.155   2.673  -5.829  1.00  0.00    -0.389 OA
BRANCH  22  23
HETATM   23  C2  UNL     1      78.326   3.633  -5.206  1.00  0.00     0.163 C 
HETATM   24  C1  UNL     1      78.231   3.369  -3.718  1.00  0.00     0.033 C 
ENDBRANCH  22  23
ENDBRANCH  21  22
ENDBRANCH  20  21
ENDBRANCH  19  20
ENDBRANCH  18  19
ENDBRANCH  17  18
ENDBRANCH  16  17
ENDBRANCH  15  16
ENDBRANCH  14  15
ENDBRANCH  12  14
ENDBRANCH   8  12
ENDBRANCH   5   6
ENDBRANCH   1   5
BRANCH   3  25
HETATM   25  C13 UNL     1      79.143   6.808  -3.310  1.00  0.00     0.048 A 
HETATM   26  C14 UNL     1      79.696   6.346  -2.153  1.00  0.00     0.062 A 
HETATM   27  C15 UNL     1      78.946   6.108  -1.018  1.00  0.00     0.079 A 
HETATM   28  N4  UNL     1      79.288   5.660   0.206  1.00  0.00    -0.190 N 
HETATM   29  C17 UNL     1      77.611   6.333  -1.028  1.00  0.00     0.087 A 
HETATM   30  C16 UNL     1      78.199   5.601   0.954  1.00  0.00     0.676 A 
ATOM     31  H4  UNL     1      80.230   5.408   0.505  1.00  0.00     0.184 HD
HETATM   32  N6  UNL     1      77.154   6.011   0.216  1.00  0.00    -0.189 N 
ATOM     33  H6  UNL     1      76.186   6.072   0.532  1.00  0.00     0.184 HD
HETATM   34  C18 UNL     1      77.002   6.797  -2.165  1.00  0.00     0.006 A 
HETATM   35  C19 UNL     1      75.642   6.996  -2.083  1.00  0.00     0.016 A 
HETATM   36  C23 UNL     1      77.755   7.035  -3.302  1.00  0.00     0.005 A 
HETATM   37  C20 UNL     1      74.985   7.461  -3.198  1.00  0.00     0.025 A 
HETATM   38  C21 UNL     1      75.696   7.710  -4.345  1.00  0.00     0.035 A 
HETATM   39 CL1  UNL     1      74.849   8.296  -5.742  1.00  0.00    -0.084 Cl
HETATM   40  C22 UNL     1      77.080   7.496  -4.392  1.00  0.00     0.038 A 
BRANCH  30  41
HETATM   41  N5  UNL     1      78.100   5.220   2.201  1.00  0.00    -0.234 N 
ATOM     42  H52 UNL     1      78.551   4.385   2.574  1.00  0.00     0.174 HD
ATOM     43  H51 UNL     1      77.583   5.671   2.956  1.00  0.00     0.174 HD
ENDBRANCH  30  41
ENDBRANCH   3  25
TORSDOF 15
ENDMDL
MODEL 3
REMARK VINA RESULT: -7.457684852      3.665      9.483
REMARK  15 active torsions:
REMARK  status: ('A' for Active; 'I' for Inactive)
REMARK    1  A    between atoms: C2_2  and  O1_3 
REMARK    2  A    between atoms: O1_3  and  C3_4 
REMARK    3  A    between atoms: C3_4  and  C4_5 
REMARK    4  A    between atoms: C4_5  and  O2_6 
REMARK    5  A    between atoms: O2_6  and  C5_7 
REMARK    6  A    between atoms: C5_7  and  C6_8 
REMARK    7  A    between atoms: C6_8  and  O3_9 
REMARK    8  A    between atoms: O3_9  and  C7_10 
REMARK    9  A    between atoms: C7_10  and  C8_11 
REMARK   10  A    between atoms: C8_11  and  N1_12 
REMARK   11  A    between atoms: N1_12  and  C9_14 
REMARK   12  A    between atoms: C10_17  and  C11_18 
REMARK   13  A    between atoms: C11_18  and  C12_19 
REMARK       I    between atoms: C12_19  and  N3_21 
REMARK   14  A    between atoms: N3_21  and  C13_23 
REMARK   15  A    between atoms: C16_28  and  N5_29 
ROOT
HETATM    1  C12 UNL     1      79.434   2.975  -3.869  1.00  0.00     0.227 C 
HETATM    2  O4  UNL     1      80.082   2.580  -2.889  1.00  0.00    -0.273 OA
HETATM    3  N3  UNL     1      79.880   2.782  -5.187  1.00  0.00    -0.326 N 
ATOM      4  H3  UNL     1      79.273   3.146  -5.922  1.00  0.00     0.169 HD
ENDROOT
BRANCH   1   5
HETATM    5  C11 UNL     1      78.121   3.688  -3.615  1.00  0.00     0.160 C 
BRANCH   5   6
HETATM    6  C10 UNL     1      78.417   4.849  -2.675  1.00  0.00     0.026 A 
HETATM    7  N2  UNL     1      77.980   4.867  -1.439  1.00  0.00    -0.340 N 
HETATM    8  C9  UNL     1      78.280   5.915  -0.678  1.00  0.00     0.144 A 
ATOM      9  H2  UNL     1      77.423   4.095  -1.071  1.00  0.00     0.168 HD
HETATM   10  S1  UNL     1      79.199   6.905  -1.714  1.00  0.00    -0.064 SA
HETATM   11  C24 UNL     1      79.160   5.919  -3.102  1.00  0.00     0.078 A 
BRANCH   8  12
HETATM   12  N1  UNL     1      77.927   6.098   0.577  1.00  0.00    -0.368 N 
ATOM     13  H1  UNL     1      78.604   6.359   1.293  1.00  0.00     0.161 HD
BRANCH  12  14
HETATM   14  C8  UNL     1      76.511   5.906   0.890  1.00  0.00     0.148 C 
BRANCH  14  15
HETATM   15  C7  UNL     1      75.664   6.855   0.092  1.00  0.00     0.187 C 
BRANCH  15  16
HETATM   16  O3  UNL     1      75.222   6.396  -1.045  1.00  0.00    -0.387 OA
BRANCH  16  17
HETATM   17  C6  UNL     1      74.877   6.965  -2.170  1.00  0.00     0.193 C 
BRANCH  17  18
HETATM   18  C5  UNL     1      75.833   7.628  -3.088  1.00  0.00     0.193 C 
BRANCH  18  19
HETATM   19  O2  UNL     1      75.564   7.601  -4.401  1.00  0.00    -0.387 OA
BRANCH  19  20
HETATM   20  C4  UNL     1      75.916   6.540  -5.151  1.00  0.00     0.193 C 
BRANCH  20  21
HETATM   21  C3  UNL     1      74.852   5.882  -5.958  1.00  0.00     0.193 C 
BRANCH  21  22
HETATM   22  O1  UNL     1      73.927   5.181  -5.229  1.00  0.00    -0.389 OA
BRANCH  22  23
HETATM   23  C2  UNL     1      72.723   5.919  -5.286  1.00  0.00     0.163 C 
HETATM   24  C1  UNL     1      72.468   6.413  -6.695  1.00  0.00     0.033 C 
ENDBRANCH  22  23
ENDBRANCH  21  22
ENDBRANCH  20  21
ENDBRANCH  19  20
ENDBRANCH  18  19
ENDBRANCH  17  18
ENDBRANCH  16  17
ENDBRANCH  15  16
ENDBRANCH  14  15
ENDBRANCH  12  14
ENDBRANCH   8  12
ENDBRANCH   5   6
ENDBRANCH   1   5
BRANCH   3  25
HETATM   25  C13 UNL     1      81.068   2.146  -5.626  1.00  0.00     0.048 A 
HETATM   26  C14 UNL     1      81.686   1.136  -4.950  1.00  0.00     0.062 A 
HETATM   27  C15 UNL     1      82.842   0.538  -5.409  1.00  0.00     0.079 A 
HETATM   28  N4  UNL     1      83.600  -0.456  -4.905  1.00  0.00    -0.190 N 
HETATM   29  C17 UNL     1      83.403   0.949  -6.572  1.00  0.00     0.087 A 
HETATM   30  C16 UNL     1      84.616  -0.670  -5.725  1.00  0.00     0.676 A 
ATOM     31  H4  UNL     1      83.421  -0.959  -4.037  1.00  0.00     0.184 HD
HETATM   32  N6  UNL     1      84.515   0.183  -6.759  1.00  0.00    -0.189 N 
ATOM     33  H6  UNL     1      85.159   0.246  -7.547  1.00  0.00     0.184 HD
HETATM   34  C18 UNL     1      82.823   1.961  -7.292  1.00  0.00     0.006 A 
HETATM   35  C19 UNL     1      83.463   2.313  -8.460  1.00  0.00     0.016 A 
HETATM   36  C23 UNL     1      81.664   2.560  -6.830  1.00  0.00     0.005 A 
HETATM   37  C20 UNL     1      82.919   3.323  -9.219  1.00  0.00     0.025 A 
HETATM   38  C21 UNL     1      81.770   3.942  -8.795  1.00  0.00     0.035 A 
HETATM   39 CL1  UNL     1      81.100   5.215  -9.766  1.00  0.00    -0.084 Cl
HETATM   40  C22 UNL     1      81.147   3.557  -7.601  1.00  0.00     0.038 A 
BRANCH  30  41
HETATM   41  N5  UNL     1      85.578  -1.547  -5.601  1.00  0.00    -0.234 N 
ATOM     42  H52 UNL     1      85.638  -2.215  -4.833  1.00  0.00     0.174 HD
ATOM     43  H51 UNL     1      86.377  -1.693  -6.218  1.00  0.00     0.174 HD
ENDBRANCH  30  41
ENDBRANCH   3  25
TORSDOF 15
ENDMDL
MODEL 4
REMARK VINA RESULT: -7.358226747      5.831      8.717
REMARK  15 active torsions:
REMARK  status: ('A' for Active; 'I' for Inactive)
REMARK    1  A    between atoms: C2_2  and  O1_3 
REMARK    2  A    between atoms: O1_3  and  C3_4 
REMARK    3  A    between atoms: C3_4  and  C4_5 
REMARK    4  A    between atoms: C4_5  and  O2_6 
REMARK    5  A    between atoms: O2_6  and  C5_7 
REMARK    6  A    between atoms: C5_7  and  C6_8 
REMARK    7  A    between atoms: C6_8  and  O3_9 
REMARK    8  A    between atoms: O3_9  and  C7_10 
REMARK    9  A    between atoms: C7_10  and  C8_11 
REMARK   10  A    between atoms: C8_11  and  N1_12 
REMARK   11  A    between atoms: N1_12  and  C9_14 
REMARK   12  A    between atoms: C10_17  and  C11_18 
REMARK   13  A    between atoms: C11_18  and  C12_19 
REMARK       I    between atoms: C12_19  and  N3_21 
REMARK   14  A    between atoms: N3_21  and  C13_23 
REMARK   15  A    between atoms: C16_28  and  N5_29 
ROOT
HETATM    1  C12 UNL     1      74.492   7.165  -2.903  1.00  0.00     0.227 C 
HETATM    2  O4  UNL     1      73.746   6.183  -2.775  1.00  0.00    -0.273 OA
HETATM    3  N3  UNL     1      74.913   7.625  -4.163  1.00  0.00    -0.326 N 
ATOM      4  H3  UNL     1      75.526   8.441  -4.157  1.00  0.00     0.169 HD
ENDROOT
BRANCH   1   5
HETATM    5  C11 UNL     1      74.952   7.878  -1.648  1.00  0.00     0.160 C 
BRANCH   5   6
HETATM    6  C10 UNL     1      75.950   6.960  -0.953  1.00  0.00     0.026 A 
HETATM    7  N2  UNL     1      76.787   6.212  -1.629  1.00  0.00    -0.340 N 
HETATM    8  C9  UNL     1      77.629   5.436  -0.952  1.00  0.00     0.144 A 
ATOM      9  H2  UNL     1      76.792   6.224  -2.649  1.00  0.00     0.168 HD
HETATM   10  S1  UNL     1      77.244   5.759   0.674  1.00  0.00    -0.064 SA
HETATM   11  C24 UNL     1      75.999   6.893   0.416  1.00  0.00     0.078 A 
BRANCH   8  12
HETATM   12  N1  UNL     1      78.532   4.626  -1.465  1.00  0.00    -0.368 N 
ATOM     13  H1  UNL     1      79.413   4.434  -0.989  1.00  0.00     0.161 HD
BRANCH  12  14
HETATM   14  C8  UNL     1      78.204   4.017  -2.753  1.00  0.00     0.148 C 
BRANCH  14  15
HETATM   15  C7  UNL     1      78.963   4.690  -3.860  1.00  0.00     0.187 C 
BRANCH  15  16
HETATM   16  O3  UNL     1      78.674   5.945  -4.060  1.00  0.00    -0.387 OA
BRANCH  16  17
HETATM   17  C6  UNL     1      79.388   7.041  -4.068  1.00  0.00     0.193 C 
BRANCH  17  18
HETATM   18  C5  UNL     1      79.778   7.782  -2.847  1.00  0.00     0.193 C 
BRANCH  18  19
HETATM   19  O2  UNL     1      81.084   7.862  -2.551  1.00  0.00    -0.387 OA
BRANCH  19  20
HETATM   20  C4  UNL     1      81.968   8.295  -3.469  1.00  0.00     0.193 C 
BRANCH  20  21
HETATM   21  C3  UNL     1      81.884   9.720  -3.890  1.00  0.00     0.193 C 
BRANCH  21  22
HETATM   22  O1  UNL     1      82.016   9.932  -5.238  1.00  0.00    -0.389 OA
BRANCH  22  23
HETATM   23  C2  UNL     1      80.708   9.976  -5.771  1.00  0.00     0.163 C 
HETATM   24  C1  UNL     1      79.843  10.935  -4.980  1.00  0.00     0.033 C 
ENDBRANCH  22  23
ENDBRANCH  21  22
ENDBRANCH  20  21
ENDBRANCH  19  20
ENDBRANCH  18  19
ENDBRANCH  17  18
ENDBRANCH  16  17
ENDBRANCH  15  16
ENDBRANCH  14  15
ENDBRANCH  12  14
ENDBRANCH   8  12
ENDBRANCH   5   6
ENDBRANCH   1   5
BRANCH   3  25
HETATM   25  C13 UNL     1      74.594   7.100  -5.439  1.00  0.00     0.048 A 
HETATM   26  C14 UNL     1      75.239   6.045  -6.012  1.00  0.00     0.062 A 
HETATM   27  C15 UNL     1      74.899   5.558  -7.259  1.00  0.00     0.079 A 
HETATM   28  N4  UNL     1      75.399   4.546  -7.994  1.00  0.00    -0.190 N 
HETATM   29  C17 UNL     1      73.890   6.131  -7.958  1.00  0.00     0.087 A 
HETATM   30  C16 UNL     1      74.726   4.477  -9.131  1.00  0.00     0.676 A 
ATOM     31  H4  UNL     1      76.167   3.934  -7.719  1.00  0.00     0.184 HD
HETATM   32  N6  UNL     1      73.792   5.443  -9.131  1.00  0.00    -0.189 N 
ATOM     33  H6  UNL     1      73.124   5.629  -9.880  1.00  0.00     0.184 HD
HETATM   34  C18 UNL     1      73.207   7.195  -7.429  1.00  0.00     0.006 A 
HETATM   35  C19 UNL     1      72.199   7.714  -8.211  1.00  0.00     0.016 A 
HETATM   36  C23 UNL     1      73.550   7.682  -6.180  1.00  0.00     0.005 A 
HETATM   37  C20 UNL     1      71.484   8.783  -7.724  1.00  0.00     0.025 A 
HETATM   38  C21 UNL     1      71.793   9.295  -6.489  1.00  0.00     0.035 A 
HETATM   39 CL1  UNL     1      70.879  10.644  -5.893  1.00  0.00    -0.084 Cl
HETATM   40  C22 UNL     1      72.825   8.741  -5.721  1.00  0.00     0.038 A 
BRANCH  30  41
HETATM   41  N5  UNL     1      74.898   3.635 -10.116  1.00  0.00    -0.234 N 
ATOM     42  H52 UNL     1      75.390   3.867 -10.979  1.00  0.00     0.174 HD
ATOM     43  H51 UNL     1      74.582   2.666 -10.176  1.00  0.00     0.174 HD
ENDBRANCH  30  41
ENDBRANCH   3  25
TORSDOF 15
ENDMDL
MODEL 5
REMARK VINA RESULT: -7.224185486      2.150      3.369
REMARK  15 active torsions:
REMARK  status: ('A' for Active; 'I' for Inactive)
REMARK    1  A    between atoms: C2_2  and  O1_3 
REMARK    2  A    between atoms: O1_3  and  C3_4 
REMARK    3  A    between atoms: C3_4  and  C4_5 
REMARK    4  A    between atoms: C4_5  and  O2_6 
REMARK    5  A    between atoms: O2_6  and  C5_7 
REMARK    6  A    between atoms: C5_7  and  C6_8 
REMARK    7  A    between atoms: C6_8  and  O3_9 
REMARK    8  A    between atoms: O3_9  and  C7_10 
REMARK    9  A    between atoms: C7_10  and  C8_11 
REMARK   10  A    between atoms: C8_11  and  N1_12 
REMARK   11  A    between atoms: N1_12  and  C9_14 
REMARK   12  A    between atoms: C10_17  and  C11_18 
REMARK   13  A    between atoms: C11_18  and  C12_19 
REMARK       I    between atoms: C12_19  and  N3_21 
REMARK   14  A    between atoms: N3_21  and  C13_23 
REMARK   15  A    between atoms: C16_28  and  N5_29 
ROOT
HETATM    1  C12 UNL     1      80.228   8.024  -5.201  1.00  0.00     0.227 C 
HETATM    2  O4  UNL     1      80.904   8.563  -4.314  1.00  0.00    -0.273 OA
HETATM    3  N3  UNL     1      79.102   7.236  -4.908  1.00  0.00    -0.326 N 
ATOM      4  H3  UNL     1      78.616   6.837  -5.711  1.00  0.00     0.169 HD
ENDROOT
BRANCH   1   5
HETATM    5  C11 UNL     1      80.646   8.236  -6.642  1.00  0.00     0.160 C 
BRANCH   5   6
HETATM    6  C10 UNL     1      80.592   6.877  -7.327  1.00  0.00     0.026 A 
HETATM    7  N2  UNL     1      80.926   5.774  -6.702  1.00  0.00    -0.340 N 
HETATM    8  C9  UNL     1      80.853   4.624  -7.366  1.00  0.00     0.144 A 
ATOM      9  H2  UNL     1      81.235   5.798  -5.730  1.00  0.00     0.168 HD
HETATM   10  S1  UNL     1      80.301   5.093  -8.907  1.00  0.00    -0.064 SA
HETATM   11  C24 UNL     1      80.186   6.770  -8.632  1.00  0.00     0.078 A 
BRANCH   8  12
HETATM   12  N1  UNL     1      81.147   3.430  -6.898  1.00  0.00    -0.368 N 
ATOM     13  H1  UNL     1      82.014   2.954  -7.147  1.00  0.00     0.161 HD
BRANCH  12  14
HETATM   14  C8  UNL     1      80.165   2.821  -6.001  1.00  0.00     0.148 C 
BRANCH  14  15
HETATM   15  C7  UNL     1      80.633   1.466  -5.552  1.00  0.00     0.187 C 
BRANCH  15  16
HETATM   16  O3  UNL     1      80.543   0.517  -6.441  1.00  0.00    -0.387 OA
BRANCH  16  17
HETATM   17  C6  UNL     1      81.362  -0.423  -6.836  1.00  0.00     0.193 C 
BRANCH  17  18
HETATM   18  C5  UNL     1      82.464  -0.207  -7.802  1.00  0.00     0.193 C 
BRANCH  18  19
HETATM   19  O2  UNL     1      83.012   1.015  -7.866  1.00  0.00    -0.387 OA
BRANCH  19  20
HETATM   20  C4  UNL     1      84.255   1.233  -7.395  1.00  0.00     0.193 C 
BRANCH  20  21
HETATM   21  C3  UNL     1      84.665   0.498  -6.168  1.00  0.00     0.193 C 
BRANCH  21  22
HETATM   22  O1  UNL     1      85.964   0.059  -6.168  1.00  0.00    -0.389 OA
BRANCH  22  23
HETATM   23  C2  UNL     1      86.020  -1.039  -5.278  1.00  0.00     0.163 C 
HETATM   24  C1  UNL     1      84.967  -2.067  -5.635  1.00  0.00     0.033 C 
ENDBRANCH  22  23
ENDBRANCH  21  22
ENDBRANCH  20  21
ENDBRANCH  19  20
ENDBRANCH  18  19
ENDBRANCH  17  18
ENDBRANCH  16  17
ENDBRANCH  15  16
ENDBRANCH  14  15
ENDBRANCH  12  14
ENDBRANCH   8  12
ENDBRANCH   5   6
ENDBRANCH   1   5
BRANCH   3  25
HETATM   25  C13 UNL     1      78.558   6.923  -3.638  1.00  0.00     0.048 A 
HETATM   26  C14 UNL     1      79.300   6.513  -2.570  1.00  0.00     0.062 A 
HETATM   27  C15 UNL     1      78.734   6.219  -1.346  1.00  0.00     0.079 A 
HETATM   28  N4  UNL     1      79.276   5.806  -0.183  1.00  0.00    -0.190 N 
HETATM   29  C17 UNL     1      77.396   6.335  -1.171  1.00  0.00     0.087 A 
HETATM   30  C16 UNL     1      78.307   5.662   0.706  1.00  0.00     0.676 A 
ATOM     31  H4  UNL     1      80.267   5.634  -0.016  1.00  0.00     0.184 HD
HETATM   32  N6  UNL     1      77.141   5.982   0.121  1.00  0.00    -0.189 N 
ATOM     33  H6  UNL     1      76.224   5.965   0.566  1.00  0.00     0.184 HD
HETATM   34  C18 UNL     1      76.602   6.742  -2.212  1.00  0.00     0.006 A 
HETATM   35  C19 UNL     1      75.254   6.830  -1.943  1.00  0.00     0.016 A 
HETATM   36  C23 UNL     1      77.171   7.036  -3.439  1.00  0.00     0.005 A 
HETATM   37  C20 UNL     1      74.416   7.235  -2.955  1.00  0.00     0.025 A 
HETATM   38  C21 UNL     1      74.940   7.536  -4.187  1.00  0.00     0.035 A 
HETATM   39 CL1  UNL     1      73.865   8.044  -5.451  1.00  0.00    -0.084 Cl
HETATM   40  C22 UNL     1      76.317   7.436  -4.423  1.00  0.00     0.038 A 
BRANCH  30  41
HETATM   41  N5  UNL     1      78.411   5.279   1.953  1.00  0.00    -0.234 N 
ATOM     42  H52 UNL     1      79.093   5.663   2.607  1.00  0.00     0.174 HD
ATOM     43  H51 UNL     1      77.859   4.573   2.440  1.00  0.00     0.174 HD
ENDBRANCH  30  41
ENDBRANCH   3  25
TORSDOF 15
ENDMDL
