MODEL 1
REMARK VINA RESULT: -6.503633978      0.000      0.000
REMARK  18 active torsions:
REMARK  status: ('A' for Active; 'I' for Inactive)
REMARK    1  A    between atoms: C2_2  and  C3_3 
REMARK    2  A    between atoms: C3_3  and  C4_4 
REMARK    3  A    between atoms: C4_4  and  C5_5 
REMARK    4  A    between atoms: C5_5  and  C6_6 
REMARK    5  A    between atoms: C5_5  and  N2_19 
REMARK    6  A    between atoms: C5_5  and  C20_38 
REMARK    7  A    between atoms: C6_6  and  C7_7 
REMARK    8  A    between atoms: C7_7  and  C8_8 
REMARK    9  A    between atoms: C8_8  and  C9_9 
REMARK   10  A    between atoms: C9_9  and  C10_10 
REMARK   11  A    between atoms: C10_10  and  C11_11 
REMARK   12  A    between atoms: C11_11  and  C12_12 
REMARK   13  A    between atoms: C12_12  and  O1_13 
REMARK   14  A    between atoms: N1_15  and  O2_17 
REMARK   15  A    between atoms: N2_19  and  C13_21 
REMARK   16  A    between atoms: C13_21  and  C15_30 
REMARK       I    between atoms: N3_22  and  C14_24 
REMARK   17  A    between atoms: N5_26  and  O3_28 
REMARK   18  A    between atoms: C20_38  and  O5_40 
ROOT
HETATM    1  C5  UNL     1      77.982   6.858  -4.113  1.00  0.00     0.119 C 
ENDROOT
BRANCH   1   2
HETATM    2  C4  UNL     1      77.560   8.230  -4.667  1.00  0.00     0.041 C 
BRANCH   2   3
HETATM    3  C3  UNL     1      78.221   8.655  -5.915  1.00  0.00     0.002 C 
BRANCH   3   4
HETATM    4  C2  UNL     1      78.051  10.039  -6.421  1.00  0.00    -0.004 C 
HETATM    5  C1  UNL     1      79.066  10.903  -5.630  1.00  0.00     0.005 C 
ENDBRANCH   3   4
ENDBRANCH   2   3
ENDBRANCH   1   2
BRANCH   1   6
HETATM    6  C6  UNL     1      76.760   6.361  -3.326  1.00  0.00     0.041 C 
BRANCH   6   7
HETATM    7  C7  UNL     1      76.070   7.446  -2.591  1.00  0.00     0.003 C 
BRANCH   7   8
HETATM    8  C8  UNL     1      75.204   6.926  -1.460  1.00  0.00     0.000 C 
BRANCH   8   9
HETATM    9  C9  UNL     1      75.185   7.948  -0.346  1.00  0.00     0.000 C 
BRANCH   9  10
HETATM   10  C10 UNL     1      75.894   7.438   0.880  1.00  0.00     0.008 C 
BRANCH  10  11
HETATM   11  C11 UNL     1      76.216   5.997   0.834  1.00  0.00     0.086 C 
BRANCH  11  12
HETATM   12  C12 UNL     1      77.636   5.622   0.910  1.00  0.00     0.135 C 
HETATM   13  N1  UNL     1      78.412   5.478  -0.085  1.00  0.00    -0.251 N 
ATOM     14  H1  UNL     1      78.036   5.632  -1.021  1.00  0.00     0.196 HD
BRANCH  12  15
HETATM   15  O1  UNL     1      78.221   5.398   2.178  1.00  0.00    -0.348 OA
ATOM     16  H1  UNL     1      77.675   5.082   2.888  1.00  0.00     0.219 HD
ENDBRANCH  12  15
BRANCH  13  17
HETATM   17  O2  UNL     1      79.719   5.130   0.040  1.00  0.00    -0.288 OA
ATOM     18  H2  UNL     1      80.413   5.535  -0.468  1.00  0.00     0.244 HD
ENDBRANCH  13  17
ENDBRANCH  11  12
ENDBRANCH  10  11
ENDBRANCH   9  10
ENDBRANCH   8   9
ENDBRANCH   7   8
ENDBRANCH   6   7
ENDBRANCH   1   6
BRANCH   1  19
HETATM   19  N2  UNL     1      78.170   5.884  -5.152  1.00  0.00    -0.360 N 
ATOM     20  H2  UNL     1      79.073   5.958  -5.621  1.00  0.00     0.162 HD
BRANCH  19  21
HETATM   21  C13 UNL     1      77.379   4.876  -5.641  1.00  0.00     0.096 C 
HETATM   22  N3  UNL     1      77.566   3.650  -5.168  1.00  0.00    -0.318 N 
HETATM   23  C14 UNL     1      78.500   3.287  -4.209  1.00  0.00     0.213 C 
ATOM     24  H3  UNL     1      76.971   2.911  -5.542  1.00  0.00     0.170 HD
HETATM   25  N4  UNL     1      79.712   2.645  -4.674  1.00  0.00    -0.061 NA
HETATM   26  N5  UNL     1      78.408   3.455  -2.947  1.00  0.00    -0.241 N 
ATOM     27  H5  UNL     1      77.568   3.902  -2.578  1.00  0.00     0.197 HD
BRANCH  26  28
HETATM   28  O3  UNL     1      79.381   3.067  -2.062  1.00  0.00    -0.287 OA
ATOM     29  H3  UNL     1      79.308   3.184  -1.123  1.00  0.00     0.244 HD
ENDBRANCH  26  28
BRANCH  21  30
HETATM   30  C15 UNL     1      76.308   4.974  -6.673  1.00  0.00     0.148 A 
HETATM   31  C16 UNL     1      75.172   5.792  -6.270  1.00  0.00     0.033 A 
HETATM   32  C17 UNL     1      74.196   5.774  -5.351  1.00  0.00     0.082 C 
HETATM   33  N6  UNL     1      75.493   6.663  -7.262  1.00  0.00    -0.364 N 
HETATM   34 BR1  UNL     1      72.889   7.153  -5.234  1.00  0.00    -0.061 Br
HETATM   35  C18 UNL     1      76.481   6.016  -7.664  1.00  0.00    -0.000 A 
ATOM     36  H6  UNL     1      75.073   7.539  -7.571  1.00  0.00     0.165 HD
HETATM   37  C19 UNL     1      77.473   6.294  -8.801  1.00  0.00     0.064 C 
ENDBRANCH  21  30
ENDBRANCH  19  21
ENDBRANCH   1  19
BRANCH   1  38
HETATM   38  C20 UNL     1      79.192   7.021  -3.303  1.00  0.00     0.287 C 
HETATM   39  O4  UNL     1      79.770   6.125  -2.649  1.00  0.00    -0.262 OA
BRANCH  38  40
HETATM   40  O5  UNL     1      79.829   8.288  -3.203  1.00  0.00    -0.325 OA
HETATM   41  C21 UNL     1      81.224   8.417  -3.400  1.00  0.00     0.213 C 
ENDBRANCH  38  40
ENDBRANCH   1  38
TORSDOF 18
ENDMDL
MODEL 2
REMARK VINA RESULT: -6.277140866      2.442      3.347
REMARK  18 active torsions:
REMARK  status: ('A' for Active; 'I' for Inactive)
REMARK    1  A    between atoms: C2_2  and  C3_3 
REMARK    2  A    between atoms: C3_3  and  C4_4 
REMARK    3  A    between atoms: C4_4  and  C5_5 
REMARK    4  A    between atoms: C5_5  and  C6_6 
REMARK    5  A    between atoms: C5_5  and  N2_19 
REMARK    6  A    between atoms: C5_5  and  C20_38 
REMARK    7  A    between atoms: C6_6  and  C7_7 
REMARK    8  A    between atoms: C7_7  and  C8_8 
REMARK    9  A    between atoms: C8_8  and  C9_9 
REMARK   10  A    between atoms: C9_9  and  C10_10 
REMARK   11  A    between atoms: C10_10  and  C11_11 
REMARK   12  A    between atoms: C11_11  and  C12_12 
REMARK   13  A    between atoms: C12_12  and  O1_13 
REMARK   14  A    between atoms: N1_15  and  O2_17 
REMARK   15  A    between atoms: N2_19  and  C13_21 
REMARK   16  A    between atoms: C13_21  and  C15_30 
REMARK       I    between atoms: N3_22  and  C14_24 
REMARK   17  A    between atoms: N5_26  and  O3_28 
REMARK   18  A    between atoms: C20_38  and  O5_40 
ROOT
HETATM    1  C5  UNL     1      80.101   7.972  -5.440  1.00  0.00     0.119 C 
ENDROOT
BRANCH   1   2
HETATM    2  C4  UNL     1      79.271   8.783  -6.448  1.00  0.00     0.041 C 
BRANCH   2   3
HETATM    3  C3  UNL     1      78.216   9.641  -5.877  1.00  0.00     0.002 C 
BRANCH   3   4
HETATM    4  C2  UNL     1      78.084  11.055  -6.303  1.00  0.00    -0.004 C 
HETATM    5  C1  UNL     1      78.968  11.873  -5.327  1.00  0.00     0.005 C 
ENDBRANCH   3   4
ENDBRANCH   2   3
ENDBRANCH   1   2
BRANCH   1   6
HETATM    6  C6  UNL     1      79.380   8.160  -4.097  1.00  0.00     0.041 C 
BRANCH   6   7
HETATM    7  C7  UNL     1      80.081   7.501  -2.971  1.00  0.00     0.003 C 
BRANCH   7   8
HETATM    8  C8  UNL     1      79.150   6.673  -2.107  1.00  0.00     0.000 C 
BRANCH   8   9
HETATM    9  C9  UNL     1      77.719   7.020  -2.452  1.00  0.00     0.000 C 
BRANCH   9  10
HETATM   10  C10 UNL     1      76.746   6.140  -1.714  1.00  0.00     0.008 C 
BRANCH  10  11
HETATM   11  C11 UNL     1      76.056   6.813  -0.594  1.00  0.00     0.086 C 
BRANCH  11  12
HETATM   12  C12 UNL     1      76.487   6.465   0.769  1.00  0.00     0.135 C 
HETATM   13  N1  UNL     1      77.487   5.739   1.060  1.00  0.00    -0.251 N 
ATOM     14  H1  UNL     1      78.048   5.356   0.300  1.00  0.00     0.196 HD
BRANCH  12  15
HETATM   15  O1  UNL     1      75.755   6.968   1.869  1.00  0.00    -0.348 OA
ATOM     16  H1  UNL     1      75.162   6.388   2.332  1.00  0.00     0.219 HD
ENDBRANCH  12  15
BRANCH  13  17
HETATM   17  O2  UNL     1      77.843   5.448   2.339  1.00  0.00    -0.288 OA
ATOM     18  H2  UNL     1      78.700   5.650   2.696  1.00  0.00     0.244 HD
ENDBRANCH  13  17
ENDBRANCH  11  12
ENDBRANCH  10  11
ENDBRANCH   9  10
ENDBRANCH   8   9
ENDBRANCH   7   8
ENDBRANCH   6   7
ENDBRANCH   1   6
BRANCH   1  19
HETATM   19  N2  UNL     1      80.040   6.559  -5.695  1.00  0.00    -0.360 N 
ATOM     20  H2  UNL     1      80.895   6.063  -5.445  1.00  0.00     0.162 HD
BRANCH  19  21
HETATM   21  C13 UNL     1      79.063   5.743  -6.205  1.00  0.00     0.096 C 
HETATM   22  N3  UNL     1      79.371   4.973  -7.241  1.00  0.00    -0.318 N 
HETATM   23  C14 UNL     1      80.609   4.913  -7.865  1.00  0.00     0.213 C 
ATOM     24  H3  UNL     1      78.634   4.372  -7.610  1.00  0.00     0.170 HD
HETATM   25  N4  UNL     1      80.754   5.625  -9.118  1.00  0.00    -0.061 NA
HETATM   26  N5  UNL     1      81.645   4.292  -7.455  1.00  0.00    -0.241 N 
ATOM     27  H5  UNL     1      81.584   3.775  -6.577  1.00  0.00     0.197 HD
BRANCH  26  28
HETATM   28  O3  UNL     1      82.837   4.283  -8.134  1.00  0.00    -0.287 OA
ATOM     29  H3  UNL     1      83.184   3.513  -8.568  1.00  0.00     0.244 HD
ENDBRANCH  26  28
BRANCH  21  30
HETATM   30  C15 UNL     1      77.652   5.606  -5.743  1.00  0.00     0.148 A 
HETATM   31  C16 UNL     1      76.663   5.907  -6.769  1.00  0.00     0.033 A 
HETATM   32  C17 UNL     1      76.255   6.957  -7.496  1.00  0.00     0.082 C 
HETATM   33  N6  UNL     1      76.265   4.609  -6.714  1.00  0.00    -0.364 N 
HETATM   34 BR1  UNL     1      74.848   6.823  -8.770  1.00  0.00    -0.061 Br
HETATM   35  C18 UNL     1      77.086   4.276  -5.836  1.00  0.00    -0.000 A 
ATOM     36  H6  UNL     1      75.545   4.089  -7.216  1.00  0.00     0.165 HD
HETATM   37  C19 UNL     1      77.343   2.925  -5.157  1.00  0.00     0.064 C 
ENDBRANCH  21  30
ENDBRANCH  19  21
ENDBRANCH   1  19
BRANCH   1  38
HETATM   38  C20 UNL     1      81.482   8.461  -5.453  1.00  0.00     0.287 C 
HETATM   39  O4  UNL     1      82.505   7.783  -5.694  1.00  0.00    -0.262 OA
BRANCH  38  40
HETATM   40  O5  UNL     1      81.766   9.827  -5.176  1.00  0.00    -0.325 OA
HETATM   41  C21 UNL     1      82.348  10.212  -3.945  1.00  0.00     0.213 C 
ENDBRANCH  38  40
ENDBRANCH   1  38
TORSDOF 18
ENDMDL
MODEL 3
REMARK VINA RESULT: -6.268907478      2.737      4.198
REMARK  18 active torsions:
REMARK  status: ('A' for Active; 'I' for Inactive)
REMARK    1  A    between atoms: C2_2  and  C3_3 
REMARK    2  A    between atoms: C3_3  and  C4_4 
REMARK    3  A    between atoms: C4_4  and  C5_5 
REMARK    4  A    between atoms: C5_5  and  C6_6 
REMARK    5  A    between atoms: C5_5  and  N2_19 
REMARK    6  A    between atoms: C5_5  and  C20_38 
REMARK    7  A    between atoms: C6_6  and  C7_7 
REMARK    8  A    between atoms: C7_7  and  C8_8 
REMARK    9  A    between atoms: C8_8  and  C9_9 
REMARK   10  A    between atoms: C9_9  and  C10_10 
REMARK   11  A    between atoms: C10_10  and  C11_11 
REMARK   12  A    between atoms: C11_11  and  C12_12 
REMARK   13  A    between atoms: C12_12  and  O1_13 
REMARK   14  A    between atoms: N1_15  and  O2_17 
REMARK   15  A    between atoms: N2_19  and  C13_21 
REMARK   16  A    between atoms: C13_21  and  C15_30 
REMARK       I    between atoms: N3_22  and  C14_24 
REMARK   17  A    between atoms: N5_26  and  O3_28 
REMARK   18  A    between atoms: C20_38  and  O5_40 
ROOT
HETATM    1  C5  UNL     1      76.248   7.831  -5.391  1.00  0.00     0.119 C 
ENDROOT
BRANCH   1   2
HETATM    2  C4  UNL     1      74.739   7.587  -5.228  1.00  0.00     0.041 C 
BRANCH   2   3
HETATM    3  C3  UNL     1      74.230   6.301  -5.741  1.00  0.00     0.002 C 
BRANCH   3   4
HETATM    4  C2  UNL     1      72.918   5.779  -5.290  1.00  0.00    -0.004 C 
HETATM    5  C1  UNL     1      72.603   6.519  -3.965  1.00  0.00     0.005 C 
ENDBRANCH   3   4
ENDBRANCH   2   3
ENDBRANCH   1   2
BRANCH   1   6
HETATM    6  C6  UNL     1      76.830   7.644  -3.982  1.00  0.00     0.041 C 
BRANCH   6   7
HETATM    7  C7  UNL     1      75.810   7.776  -2.917  1.00  0.00     0.003 C 
BRANCH   7   8
HETATM    8  C8  UNL     1      75.744   6.559  -2.016  1.00  0.00     0.000 C 
BRANCH   8   9
HETATM    9  C9  UNL     1      75.947   6.994  -0.583  1.00  0.00     0.000 C 
BRANCH   9  10
HETATM   10  C10 UNL     1      76.624   5.922   0.227  1.00  0.00     0.008 C 
BRANCH  10  11
HETATM   11  C11 UNL     1      78.055   6.179   0.492  1.00  0.00     0.086 C 
BRANCH  11  12
HETATM   12  C12 UNL     1      78.994   5.962  -0.619  1.00  0.00     0.135 C 
HETATM   13  N1  UNL     1      79.188   4.856  -1.212  1.00  0.00    -0.251 N 
ATOM     14  H1  UNL     1      78.657   4.041  -0.907  1.00  0.00     0.196 HD
BRANCH  12  15
HETATM   15  O1  UNL     1      79.759   7.053  -1.094  1.00  0.00    -0.348 OA
ATOM     16  H1  UNL     1      79.310   7.829  -1.409  1.00  0.00     0.219 HD
ENDBRANCH  12  15
BRANCH  13  17
HETATM   17  O2  UNL     1      80.070   4.710  -2.235  1.00  0.00    -0.288 OA
ATOM     18  H2  UNL     1      79.894   4.170  -2.997  1.00  0.00     0.244 HD
ENDBRANCH  13  17
ENDBRANCH  11  12
ENDBRANCH  10  11
ENDBRANCH   9  10
ENDBRANCH   8   9
ENDBRANCH   7   8
ENDBRANCH   6   7
ENDBRANCH   1   6
BRANCH   1  19
HETATM   19  N2  UNL     1      76.882   6.816  -6.186  1.00  0.00    -0.360 N 
ATOM     20  H2  UNL     1      76.233   6.303  -6.784  1.00  0.00     0.162 HD
BRANCH  19  21
HETATM   21  C13 UNL     1      78.182   6.398  -6.304  1.00  0.00     0.096 C 
HETATM   22  N3  UNL     1      78.481   5.167  -5.908  1.00  0.00    -0.318 N 
HETATM   23  C14 UNL     1      77.587   4.248  -5.378  1.00  0.00     0.213 C 
ATOM     24  H3  UNL     1      79.453   4.871  -6.001  1.00  0.00     0.170 HD
HETATM   25  N4  UNL     1      77.596   4.069  -3.941  1.00  0.00    -0.061 NA
HETATM   26  N5  UNL     1      76.750   3.534  -6.023  1.00  0.00    -0.241 N 
ATOM     27  H5  UNL     1      76.713   3.628  -7.039  1.00  0.00     0.197 HD
BRANCH  26  28
HETATM   28  O3  UNL     1      75.896   2.645  -5.422  1.00  0.00    -0.287 OA
ATOM     29  H3  UNL     1      76.019   2.319  -4.538  1.00  0.00     0.244 HD
ENDBRANCH  26  28
BRANCH  21  30
HETATM   30  C15 UNL     1      79.346   7.168  -6.828  1.00  0.00     0.148 A 
HETATM   31  C16 UNL     1      80.342   7.495  -5.816  1.00  0.00     0.033 A 
HETATM   32  C17 UNL     1      80.438   8.233  -4.701  1.00  0.00     0.082 C 
HETATM   33  N6  UNL     1      81.224   6.703  -6.481  1.00  0.00    -0.364 N 
HETATM   34 BR1  UNL     1      82.045   8.332  -3.686  1.00  0.00    -0.061 Br
HETATM   35  C18 UNL     1      80.426   6.377  -7.382  1.00  0.00    -0.000 A 
ATOM     36  H6  UNL     1      82.199   6.460  -6.304  1.00  0.00     0.165 HD
HETATM   37  C19 UNL     1      80.601   5.462  -8.601  1.00  0.00     0.064 C 
ENDBRANCH  21  30
ENDBRANCH  19  21
ENDBRANCH   1  19
BRANCH   1  38
HETATM   38  C20 UNL     1      76.459   9.166  -5.955  1.00  0.00     0.287 C 
HETATM   39  O4  UNL     1      75.706   9.757  -6.760  1.00  0.00    -0.262 OA
BRANCH  38  40
HETATM   40  O5  UNL     1      77.607   9.927  -5.600  1.00  0.00    -0.325 OA
HETATM   41  C21 UNL     1      78.232  10.780  -6.540  1.00  0.00     0.213 C 
ENDBRANCH  38  40
ENDBRANCH   1  38
TORSDOF 18
ENDMDL
MODEL 4
REMARK VINA RESULT: -6.231180315      2.770      5.669
REMARK  18 active torsions:
REMARK  status: ('A' for Active; 'I' for Inactive)
REMARK    1  A    between atoms: C2_2  and  C3_3 
REMARK    2  A    between atoms: C3_3  and  C4_4 
REMARK    3  A    between atoms: C4_4  and  C5_5 
REMARK    4  A    between atoms: C5_5  and  C6_6 
REMARK    5  A    between atoms: C5_5  and  N2_19 
REMARK    6  A    between atoms: C5_5  and  C20_38 
REMARK    7  A    between atoms: C6_6  and  C7_7 
REMARK    8  A    between atoms: C7_7  and  C8_8 
REMARK    9  A    between atoms: C8_8  and  C9_9 
REMARK   10  A    between atoms: C9_9  and  C10_10 
REMARK   11  A    between atoms: C10_10  and  C11_11 
REMARK   12  A    between atoms: C11_11  and  C12_12 
REMARK   13  A    between atoms: C12_12  and  O1_13 
REMARK   14  A    between atoms: N1_15  and  O2_17 
REMARK   15  A    between atoms: N2_19  and  C13_21 
REMARK   16  A    between atoms: C13_21  and  C15_30 
REMARK       I    between atoms: N3_22  and  C14_24 
REMARK   17  A    between atoms: N5_26  and  O3_28 
REMARK   18  A    between atoms: C20_38  and  O5_40 
ROOT
HETATM    1  C5  UNL     1      76.321   6.550  -4.165  1.00  0.00     0.119 C 
ENDROOT
BRANCH   1   2
HETATM    2  C4  UNL     1      75.552   7.237  -3.024  1.00  0.00     0.041 C 
BRANCH   2   3
HETATM    3  C3  UNL     1      76.012   6.931  -1.656  1.00  0.00     0.002 C 
BRANCH   3   4
HETATM    4  C2  UNL     1      75.381   7.588  -0.487  1.00  0.00    -0.004 C 
HETATM    5  C1  UNL     1      76.016   6.924   0.761  1.00  0.00     0.005 C 
ENDBRANCH   3   4
ENDBRANCH   2   3
ENDBRANCH   1   2
BRANCH   1   6
HETATM    6  C6  UNL     1      77.312   7.612  -4.664  1.00  0.00     0.041 C 
BRANCH   6   7
HETATM    7  C7  UNL     1      76.653   8.707  -5.411  1.00  0.00     0.003 C 
BRANCH   7   8
HETATM    8  C8  UNL     1      77.645   9.661  -6.047  1.00  0.00     0.000 C 
BRANCH   8   9
HETATM    9  C9  UNL     1      78.994   9.481  -5.388  1.00  0.00     0.000 C 
BRANCH   9  10
HETATM   10  C10 UNL     1      80.118   9.714  -6.361  1.00  0.00     0.008 C 
BRANCH  10  11
HETATM   11  C11 UNL     1      81.432   9.935  -5.723  1.00  0.00     0.086 C 
BRANCH  11  12
HETATM   12  C12 UNL     1      82.031   8.799  -5.006  1.00  0.00     0.135 C 
HETATM   13  N1  UNL     1      82.096   8.679  -3.743  1.00  0.00    -0.251 N 
ATOM     14  H1  UNL     1      81.705   9.421  -3.164  1.00  0.00     0.196 HD
BRANCH  12  15
HETATM   15  O1  UNL     1      82.588   7.733  -5.751  1.00  0.00    -0.348 OA
ATOM     16  H1  UNL     1      83.324   7.253  -5.391  1.00  0.00     0.219 HD
ENDBRANCH  12  15
BRANCH  13  17
HETATM   17  O2  UNL     1      82.661   7.606  -3.130  1.00  0.00    -0.288 OA
ATOM     18  H2  UNL     1      83.542   7.619  -2.773  1.00  0.00     0.244 HD
ENDBRANCH  13  17
ENDBRANCH  11  12
ENDBRANCH  10  11
ENDBRANCH   9  10
ENDBRANCH   8   9
ENDBRANCH   7   8
ENDBRANCH   6   7
ENDBRANCH   1   6
BRANCH   1  19
HETATM   19  N2  UNL     1      77.145   5.471  -3.696  1.00  0.00    -0.360 N 
ATOM     20  H2  UNL     1      76.827   5.070  -2.814  1.00  0.00     0.162 HD
BRANCH  19  21
HETATM   21  C13 UNL     1      78.273   4.872  -4.195  1.00  0.00     0.096 C 
HETATM   22  N3  UNL     1      79.382   4.922  -3.465  1.00  0.00    -0.318 N 
HETATM   23  C14 UNL     1      79.508   5.531  -2.226  1.00  0.00     0.213 C 
ATOM     24  H3  UNL     1      80.212   4.473  -3.850  1.00  0.00     0.170 HD
HETATM   25  N4  UNL     1      80.141   6.833  -2.189  1.00  0.00    -0.061 NA
HETATM   26  N5  UNL     1      79.125   5.066  -1.101  1.00  0.00    -0.241 N 
ATOM     27  H5  UNL     1      78.676   4.150  -1.083  1.00  0.00     0.197 HD
BRANCH  26  28
HETATM   28  O3  UNL     1      79.286   5.735   0.086  1.00  0.00    -0.287 OA
ATOM     29  H3  UNL     1      78.775   5.548   0.864  1.00  0.00     0.244 HD
ENDBRANCH  26  28
BRANCH  21  30
HETATM   30  C15 UNL     1      78.430   4.156  -5.492  1.00  0.00     0.148 A 
HETATM   31  C16 UNL     1      79.149   4.918  -6.505  1.00  0.00     0.033 A 
HETATM   32  C17 UNL     1      78.991   6.042  -7.218  1.00  0.00     0.082 C 
HETATM   33  N6  UNL     1      80.133   3.982  -6.458  1.00  0.00    -0.364 N 
HETATM   34 BR1  UNL     1      80.290   6.634  -8.478  1.00  0.00    -0.061 Br
HETATM   35  C18 UNL     1      79.578   3.277  -5.591  1.00  0.00    -0.000 A 
ATOM     36  H6  UNL     1      81.017   3.888  -6.958  1.00  0.00     0.165 HD
HETATM   37  C19 UNL     1      80.019   1.969  -4.922  1.00  0.00     0.064 C 
ENDBRANCH  21  30
ENDBRANCH  19  21
ENDBRANCH   1  19
BRANCH   1  38
HETATM   38  C20 UNL     1      75.367   6.096  -5.179  1.00  0.00     0.287 C 
HETATM   39  O4  UNL     1      75.607   5.918  -6.395  1.00  0.00    -0.262 OA
BRANCH  38  40
HETATM   40  O5  UNL     1      74.020   5.809  -4.827  1.00  0.00    -0.325 OA
HETATM   41  C21 UNL     1      72.952   6.163  -5.685  1.00  0.00     0.213 C 
ENDBRANCH  38  40
ENDBRANCH   1  38
TORSDOF 18
ENDMDL
MODEL 5
REMARK VINA RESULT: -6.184787972      2.984      4.872
REMARK  18 active torsions:
REMARK  status: ('A' for Active; 'I' for Inactive)
REMARK    1  A    between atoms: C2_2  and  C3_3 
REMARK    2  A    between atoms: C3_3  and  C4_4 
REMARK    3  A    between atoms: C4_4  and  C5_5 
REMARK    4  A    between atoms: C5_5  and  C6_6 
REMARK    5  A    between atoms: C5_5  and  N2_19 
REMARK    6  A    between atoms: C5_5  and  C20_38 
REMARK    7  A    between atoms: C6_6  and  C7_7 
REMARK    8  A    between atoms: C7_7  and  C8_8 
REMARK    9  A    between atoms: C8_8  and  C9_9 
REMARK   10  A    between atoms: C9_9  and  C10_10 
REMARK   11  A    between atoms: C10_10  and  C11_11 
REMARK   12  A    between atoms: C11_11  and  C12_12 
REMARK   13  A    between atoms: C12_12  and  O1_13 
REMARK   14  A    between atoms: N1_15  and  O2_17 
REMARK   15  A    between atoms: N2_19  and  C13_21 
REMARK   16  A    between atoms: C13_21  and  C15_30 
REMARK       I    between atoms: N3_22  and  C14_24 
REMARK   17  A    between atoms: N5_26  and  O3_28 
REMARK   18  A    between atoms: C20_38  and  O5_40 
ROOT
HETATM    1  C5  UNL     1      78.332   7.483  -5.461  1.00  0.00     0.119 C 
ENDROOT
BRANCH   1   2
HETATM    2  C4  UNL     1      78.874   6.682  -4.266  1.00  0.00     0.041 C 
BRANCH   2   3
HETATM    3  C3  UNL     1      79.370   7.475  -3.126  1.00  0.00     0.002 C 
BRANCH   3   4
HETATM    4  C2  UNL     1      79.336   6.919  -1.752  1.00  0.00    -0.004 C 
HETATM    5  C1  UNL     1      79.196   5.385  -1.923  1.00  0.00     0.005 C 
ENDBRANCH   3   4
ENDBRANCH   2   3
ENDBRANCH   1   2
BRANCH   1   6
HETATM    6  C6  UNL     1      76.887   6.993  -5.638  1.00  0.00     0.041 C 
BRANCH   6   7
HETATM    7  C7  UNL     1      76.339   6.365  -4.415  1.00  0.00     0.003 C 
BRANCH   7   8
HETATM    8  C8  UNL     1      75.049   7.013  -3.952  1.00  0.00     0.000 C 
BRANCH   8   9
HETATM    9  C9  UNL     1      75.281   7.664  -2.607  1.00  0.00     0.000 C 
BRANCH   9  10
HETATM   10  C10 UNL     1      75.726   6.660  -1.578  1.00  0.00     0.008 C 
BRANCH  10  11
HETATM   11  C11 UNL     1      75.617   7.136  -0.184  1.00  0.00     0.086 C 
BRANCH  11  12
HETATM   12  C12 UNL     1      76.146   6.259   0.871  1.00  0.00     0.135 C 
HETATM   13  N1  UNL     1      77.352   6.232   1.267  1.00  0.00    -0.251 N 
ATOM     14  H1  UNL     1      78.022   6.863   0.829  1.00  0.00     0.196 HD
BRANCH  12  15
HETATM   15  O1  UNL     1      75.268   5.361   1.522  1.00  0.00    -0.348 OA
ATOM     16  H1  UNL     1      75.387   5.190   2.449  1.00  0.00     0.219 HD
ENDBRANCH  12  15
BRANCH  13  17
HETATM   17  O2  UNL     1      77.790   5.400   2.248  1.00  0.00    -0.288 OA
ATOM     18  H2  UNL     1      78.593   4.897   2.179  1.00  0.00     0.244 HD
ENDBRANCH  13  17
ENDBRANCH  11  12
ENDBRANCH  10  11
ENDBRANCH   9  10
ENDBRANCH   8   9
ENDBRANCH   7   8
ENDBRANCH   6   7
ENDBRANCH   1   6
BRANCH   1  19
HETATM   19  N2  UNL     1      78.211   8.884  -5.170  1.00  0.00    -0.360 N 
ATOM     20  H2  UNL     1      77.965   9.078  -4.199  1.00  0.00     0.162 HD
BRANCH  19  21
HETATM   21  C13 UNL     1      78.358  10.013  -5.934  1.00  0.00     0.096 C 
HETATM   22  N3  UNL     1      79.460  10.737  -5.774  1.00  0.00    -0.318 N 
HETATM   23  C14 UNL     1      80.493  10.453  -4.893  1.00  0.00     0.213 C 
ATOM     24  H3  UNL     1      79.554  11.574  -6.348  1.00  0.00     0.170 HD
HETATM   25  N4  UNL     1      80.537  11.209  -3.658  1.00  0.00    -0.061 NA
HETATM   26  N5  UNL     1      81.421   9.592  -5.052  1.00  0.00    -0.241 N 
ATOM     27  H5  UNL     1      81.427   9.040  -5.910  1.00  0.00     0.197 HD
BRANCH  26  28
HETATM   28  O3  UNL     1      82.410   9.370  -4.128  1.00  0.00    -0.287 OA
ATOM     29  H3  UNL     1      82.776   8.512  -3.951  1.00  0.00     0.244 HD
ENDBRANCH  26  28
BRANCH  21  30
HETATM   30  C15 UNL     1      77.413  10.560  -6.949  1.00  0.00     0.148 A 
HETATM   31  C16 UNL     1      77.419   9.836  -8.212  1.00  0.00     0.033 A 
HETATM   32  C17 UNL     1      78.262   9.588  -9.225  1.00  0.00     0.082 C 
HETATM   33  N6  UNL     1      76.134   9.469  -7.967  1.00  0.00    -0.364 N 
HETATM   34 BR1  UNL     1      77.760   8.526 -10.724  1.00  0.00    -0.061 Br
HETATM   35  C18 UNL     1      76.054  10.065  -6.874  1.00  0.00    -0.000 A 
ATOM     36  H6  UNL     1      75.467   8.904  -8.492  1.00  0.00     0.165 HD
HETATM   37  C19 UNL     1      74.898  10.180  -5.871  1.00  0.00     0.064 C 
ENDBRANCH  21  30
ENDBRANCH  19  21
ENDBRANCH   1  19
BRANCH   1  38
HETATM   38  C20 UNL     1      79.191   7.248  -6.624  1.00  0.00     0.287 C 
HETATM   39  O4  UNL     1      80.373   7.636  -6.762  1.00  0.00    -0.262 OA
BRANCH  38  40
HETATM   40  O5  UNL     1      78.708   6.515  -7.743  1.00  0.00    -0.325 OA
HETATM   41  C21 UNL     1      79.601   5.845  -8.613  1.00  0.00     0.213 C 
ENDBRANCH  38  40
ENDBRANCH   1  38
TORSDOF 18
ENDMDL
