MODEL 1
REMARK VINA RESULT: -7.384284718      0.000      0.000
REMARK  15 active torsions:
REMARK  status: ('A' for Active; 'I' for Inactive)
REMARK    1  A    between atoms: C2_2  and  C3_3 
REMARK    2  A    between atoms: C3_3  and  N1_4 
REMARK    3  A    between atoms: N1_4  and  C4_6 
REMARK    4  A    between atoms: C5_9  and  C6_10 
REMARK    5  A    between atoms: C8_13  and  C9_14 
REMARK    6  A    between atoms: C9_14  and  C10_15 
REMARK    7  A    between atoms: C10_15  and  C11_16 
REMARK    8  A    between atoms: C11_16  and  N3_17 
REMARK    9  A    between atoms: N3_17  and  C12_18 
REMARK   10  A    between atoms: N3_17  and  C14_21 
REMARK   11  A    between atoms: C12_18  and  C13_19 
REMARK   12  A    between atoms: C15_24  and  N5_25 
REMARK   13  A    between atoms: N5_25  and  C16_27 
REMARK   14  A    between atoms: C16_27  and  C17_28 
REMARK   15  A    between atoms: C22_35  and  N7_36 
ROOT
HETATM    1  N3  UNL     1      76.331   6.578  -1.061  1.00  0.00    -0.216 N 
ENDROOT
BRANCH   1   2
HETATM    2  C11 UNL     1      75.079   6.913  -1.737  1.00  0.00     0.141 C 
BRANCH   2   3
HETATM    3  C10 UNL     1      75.267   7.510  -3.084  1.00  0.00     0.025 C 
BRANCH   3   4
HETATM    4  C9  UNL     1      74.417   6.970  -4.164  1.00  0.00     0.048 C 
BRANCH   4   5
HETATM    5  C8  UNL     1      75.179   6.499  -5.341  1.00  0.00    -0.017 A 
HETATM    6  S1  UNL     1      74.819   6.391  -6.995  1.00  0.00    -0.106 SA
HETATM    7  C7  UNL     1      76.294   5.762  -7.563  1.00  0.00     0.063 A 
HETATM    8  C6  UNL     1      77.044   5.650  -6.419  1.00  0.00    -0.001 A 
HETATM    9  C23 UNL     1      76.463   6.034  -5.264  1.00  0.00     0.028 A 
BRANCH   8  10
HETATM   10  C5  UNL     1      78.434   5.117  -6.520  1.00  0.00     0.061 A 
HETATM   11  N2  UNL     1      78.657   3.856  -6.144  1.00  0.00    -0.191 N 
HETATM   12  C4  UNL     1      79.882   3.258  -6.195  1.00  0.00     0.678 A 
ATOM     13  H2  UNL     1      77.868   3.310  -5.799  1.00  0.00     0.184 HD
HETATM   14  N9  UNL     1      80.884   4.017  -6.657  1.00  0.00    -0.202 N 
HETATM   15  C25 UNL     1      80.728   5.297  -7.054  1.00  0.00     0.108 A 
ATOM     16  H9  UNL     1      81.816   3.605  -6.712  1.00  0.00     0.183 HD
HETATM   17  C24 UNL     1      79.469   5.856  -6.982  1.00  0.00     0.048 A 
BRANCH  12  18
HETATM   18  N1  UNL     1      80.011   2.030  -5.805  1.00  0.00    -0.226 N 
ATOM     19  H1  UNL     1      79.298   1.349  -6.067  1.00  0.00     0.177 HD
BRANCH  18  20
HETATM   20  C3  UNL     1      81.129   1.598  -5.013  1.00  0.00     0.137 C 
BRANCH  20  21
HETATM   21  C2  UNL     1      82.047   0.705  -5.851  1.00  0.00     0.016 C 
HETATM   22  C1  UNL     1      83.436   1.260  -5.922  1.00  0.00     0.006 C 
ENDBRANCH  20  21
ENDBRANCH  18  20
ENDBRANCH  12  18
ENDBRANCH   8  10
ENDBRANCH   4   5
ENDBRANCH   3   4
ENDBRANCH   2   3
ENDBRANCH   1   2
BRANCH   1  23
HETATM   23  C12 UNL     1      76.445   6.830   0.364  1.00  0.00     0.156 C 
BRANCH  23  24
HETATM   24  C13 UNL     1      76.733   5.639   1.202  1.00  0.00     0.135 C 
HETATM   25 CL1  UNL     1      78.409   5.390   1.640  1.00  0.00    -0.129 Cl
ENDBRANCH  23  24
ENDBRANCH   1  23
BRANCH   1  26
HETATM   26  C14 UNL     1      77.464   6.037  -1.719  1.00  0.00     0.709 A 
HETATM   27  N4  UNL     1      78.405   6.829  -2.263  1.00  0.00    -0.021 N 
HETATM   28  C15 UNL     1      79.496   6.327  -2.893  1.00  0.00     0.707 A 
ATOM     29  H4  UNL     1      78.294   7.840  -2.200  1.00  0.00     0.203 HD
HETATM   30  N6  UNL     1      79.664   4.997  -2.989  1.00  0.00    -0.022 N 
HETATM   31  C22 UNL     1      78.738   4.193  -2.454  1.00  0.00     0.705 A 
ATOM     32  H6  UNL     1      80.481   4.609  -3.461  1.00  0.00     0.203 HD
HETATM   33  N8  UNL     1      77.666   4.714  -1.835  1.00  0.00    -0.022 N 
ATOM     34  H8  UNL     1      76.975   4.078  -1.436  1.00  0.00     0.203 HD
BRANCH  28  35
HETATM   35  N5  UNL     1      80.359   7.137  -3.389  1.00  0.00    -0.225 N 
ATOM     36  H5  UNL     1      81.190   6.785  -3.862  1.00  0.00     0.177 HD
BRANCH  35  37
HETATM   37  C16 UNL     1      80.130   8.552  -3.267  1.00  0.00     0.142 C 
BRANCH  37  38
HETATM   38  C17 UNL     1      80.075   9.245  -4.614  1.00  0.00     0.004 C 
HETATM   39  C18 UNL     1      78.728   9.030  -5.234  1.00  0.00     0.006 C 
HETATM   40  C19 UNL     1      78.496  10.266  -6.079  1.00  0.00     0.000 C 
HETATM   41  C20 UNL     1      79.222  11.390  -5.368  1.00  0.00     0.000 C 
HETATM   42  C21 UNL     1      80.248  10.733  -4.464  1.00  0.00     0.006 C 
ENDBRANCH  37  38
ENDBRANCH  35  37
ENDBRANCH  28  35
BRANCH  31  43
HETATM   43  N7  UNL     1      78.935   2.924  -2.568  1.00  0.00    -0.234 N 
ATOM     44  H72 UNL     1      79.007   2.453  -3.469  1.00  0.00     0.174 HD
ATOM     45  H71 UNL     1      79.018   2.393  -1.702  1.00  0.00     0.174 HD
ENDBRANCH  31  43
ENDBRANCH   1  26
TORSDOF 15
ENDMDL
MODEL 2
REMARK VINA RESULT: -6.899667140      1.522      2.056
REMARK  15 active torsions:
REMARK  status: ('A' for Active; 'I' for Inactive)
REMARK    1  A    between atoms: C2_2  and  C3_3 
REMARK    2  A    between atoms: C3_3  and  N1_4 
REMARK    3  A    between atoms: N1_4  and  C4_6 
REMARK    4  A    between atoms: C5_9  and  C6_10 
REMARK    5  A    between atoms: C8_13  and  C9_14 
REMARK    6  A    between atoms: C9_14  and  C10_15 
REMARK    7  A    between atoms: C10_15  and  C11_16 
REMARK    8  A    between atoms: C11_16  and  N3_17 
REMARK    9  A    between atoms: N3_17  and  C12_18 
REMARK   10  A    between atoms: N3_17  and  C14_21 
REMARK   11  A    between atoms: C12_18  and  C13_19 
REMARK   12  A    between atoms: C15_24  and  N5_25 
REMARK   13  A    between atoms: N5_25  and  C16_27 
REMARK   14  A    between atoms: C16_27  and  C17_28 
REMARK   15  A    between atoms: C22_35  and  N7_36 
ROOT
HETATM    1  N3  UNL     1      76.144   6.850  -1.514  1.00  0.00    -0.216 N 
ENDROOT
BRANCH   1   2
HETATM    2  C11 UNL     1      74.956   6.911  -2.363  1.00  0.00     0.141 C 
BRANCH   2   3
HETATM    3  C10 UNL     1      75.180   7.606  -3.657  1.00  0.00     0.025 C 
BRANCH   3   4
HETATM    4  C9  UNL     1      75.213   6.751  -4.861  1.00  0.00     0.048 C 
BRANCH   4   5
HETATM    5  C8  UNL     1      76.539   6.696  -5.513  1.00  0.00    -0.017 A 
HETATM    6  S1  UNL     1      77.493   7.848  -6.314  1.00  0.00    -0.106 SA
HETATM    7  C7  UNL     1      78.840   6.882  -6.696  1.00  0.00     0.063 A 
HETATM    8  C6  UNL     1      78.500   5.658  -6.176  1.00  0.00    -0.001 A 
HETATM    9  C23 UNL     1      77.304   5.563  -5.562  1.00  0.00     0.028 A 
BRANCH   8  10
HETATM   10  C5  UNL     1      79.460   4.524  -6.322  1.00  0.00     0.061 A 
HETATM   11  N2  UNL     1      80.515   4.688  -7.122  1.00  0.00    -0.191 N 
HETATM   12  C4  UNL     1      81.461   3.727  -7.332  1.00  0.00     0.678 A 
ATOM     13  H2  UNL     1      80.621   5.581  -7.603  1.00  0.00     0.184 HD
HETATM   14  N9  UNL     1      81.277   2.573  -6.676  1.00  0.00    -0.202 N 
HETATM   15  C25 UNL     1      80.233   2.342  -5.853  1.00  0.00     0.108 A 
ATOM     16  H9  UNL     1      81.964   1.830  -6.805  1.00  0.00     0.183 HD
HETATM   17  C24 UNL     1      79.304   3.346  -5.675  1.00  0.00     0.048 A 
BRANCH  12  18
HETATM   18  N1  UNL     1      82.452   3.967  -8.129  1.00  0.00    -0.226 N 
ATOM     19  H1  UNL     1      83.207   4.575  -7.811  1.00  0.00     0.177 HD
BRANCH  18  20
HETATM   20  C3  UNL     1      82.519   3.405  -9.449  1.00  0.00     0.137 C 
BRANCH  20  21
HETATM   21  C2  UNL     1      83.542   2.266  -9.479  1.00  0.00     0.016 C 
HETATM   22  C1  UNL     1      82.882   0.943  -9.721  1.00  0.00     0.006 C 
ENDBRANCH  20  21
ENDBRANCH  18  20
ENDBRANCH  12  18
ENDBRANCH   8  10
ENDBRANCH   4   5
ENDBRANCH   3   4
ENDBRANCH   2   3
ENDBRANCH   1   2
BRANCH   1  23
HETATM   23  C12 UNL     1      76.064   7.368  -0.161  1.00  0.00     0.156 C 
BRANCH  23  24
HETATM   24  C13 UNL     1      75.795   6.360   0.895  1.00  0.00     0.135 C 
HETATM   25 CL1  UNL     1      77.184   5.481   1.496  1.00  0.00    -0.129 Cl
ENDBRANCH  23  24
ENDBRANCH   1  23
BRANCH   1  26
HETATM   26  C14 UNL     1      77.393   6.330  -1.939  1.00  0.00     0.709 A 
HETATM   27  N4  UNL     1      78.356   7.130  -2.431  1.00  0.00    -0.021 N 
HETATM   28  C15 UNL     1      79.557   6.650  -2.839  1.00  0.00     0.707 A 
ATOM     29  H4  UNL     1      78.176   8.132  -2.500  1.00  0.00     0.203 HD
HETATM   30  N6  UNL     1      79.816   5.334  -2.759  1.00  0.00    -0.022 N 
HETATM   31  C22 UNL     1      78.870   4.522  -2.272  1.00  0.00     0.705 A 
ATOM     32  H6  UNL     1      80.716   4.961  -3.062  1.00  0.00     0.203 HD
HETATM   33  N8  UNL     1      77.689   5.021  -1.874  1.00  0.00    -0.022 N 
ATOM     34  H8  UNL     1      76.985   4.380  -1.507  1.00  0.00     0.203 HD
BRANCH  28  35
HETATM   35  N5  UNL     1      80.434   7.468  -3.297  1.00  0.00    -0.225 N 
ATOM     36  H5  UNL     1      81.140   7.152  -3.961  1.00  0.00     0.177 HD
BRANCH  35  37
HETATM   37  C16 UNL     1      80.402   8.836  -2.856  1.00  0.00     0.142 C 
BRANCH  37  38
HETATM   38  C17 UNL     1      80.936   9.792  -3.903  1.00  0.00     0.004 C 
HETATM   39  C18 UNL     1      81.394   9.016  -5.102  1.00  0.00     0.006 C 
HETATM   40  C19 UNL     1      81.179   9.958  -6.269  1.00  0.00     0.000 C 
HETATM   41  C20 UNL     1      79.985  10.812  -5.891  1.00  0.00     0.000 C 
HETATM   42  C21 UNL     1      79.859  10.728  -4.382  1.00  0.00     0.006 C 
ENDBRANCH  37  38
ENDBRANCH  35  37
ENDBRANCH  28  35
BRANCH  31  43
HETATM   43  N7  UNL     1      79.157   3.267  -2.212  1.00  0.00    -0.234 N 
ATOM     44  H72 UNL     1      79.824   2.819  -2.840  1.00  0.00     0.174 HD
ATOM     45  H71 UNL     1      78.681   2.721  -1.494  1.00  0.00     0.174 HD
ENDBRANCH  31  43
ENDBRANCH   1  26
TORSDOF 15
ENDMDL
MODEL 3
REMARK VINA RESULT: -6.863451637      2.565      5.393
REMARK  15 active torsions:
REMARK  status: ('A' for Active; 'I' for Inactive)
REMARK    1  A    between atoms: C2_2  and  C3_3 
REMARK    2  A    between atoms: C3_3  and  N1_4 
REMARK    3  A    between atoms: N1_4  and  C4_6 
REMARK    4  A    between atoms: C5_9  and  C6_10 
REMARK    5  A    between atoms: C8_13  and  C9_14 
REMARK    6  A    between atoms: C9_14  and  C10_15 
REMARK    7  A    between atoms: C10_15  and  C11_16 
REMARK    8  A    between atoms: C11_16  and  N3_17 
REMARK    9  A    between atoms: N3_17  and  C12_18 
REMARK   10  A    between atoms: N3_17  and  C14_21 
REMARK   11  A    between atoms: C12_18  and  C13_19 
REMARK   12  A    between atoms: C15_24  and  N5_25 
REMARK   13  A    between atoms: N5_25  and  C16_27 
REMARK   14  A    between atoms: C16_27  and  C17_28 
REMARK   15  A    between atoms: C22_35  and  N7_36 
ROOT
HETATM    1  N3  UNL     1      79.033   9.541  -6.206  1.00  0.00    -0.216 N 
ENDROOT
BRANCH   1   2
HETATM    2  C11 UNL     1      78.694   8.994  -7.518  1.00  0.00     0.141 C 
BRANCH   2   3
HETATM    3  C10 UNL     1      79.637   7.949  -7.994  1.00  0.00     0.025 C 
BRANCH   3   4
HETATM    4  C9  UNL     1      79.032   6.688  -8.466  1.00  0.00     0.048 C 
BRANCH   4   5
HETATM    5  C8  UNL     1      78.517   5.832  -7.376  1.00  0.00    -0.017 A 
HETATM    6  S1  UNL     1      76.976   5.600  -6.706  1.00  0.00    -0.106 SA
HETATM    7  C7  UNL     1      77.353   4.425  -5.534  1.00  0.00     0.063 A 
HETATM    8  C6  UNL     1      78.702   4.243  -5.702  1.00  0.00    -0.001 A 
HETATM    9  C23 UNL     1      79.306   4.975  -6.659  1.00  0.00     0.028 A 
BRANCH   8  10
HETATM   10  C5  UNL     1      79.409   3.262  -4.825  1.00  0.00     0.061 A 
HETATM   11  N2  UNL     1      80.477   2.631  -5.316  1.00  0.00    -0.191 N 
HETATM   12  C4  UNL     1      81.205   1.718  -4.610  1.00  0.00     0.678 A 
ATOM     13  H2  UNL     1      80.765   2.842  -6.271  1.00  0.00     0.184 HD
HETATM   14  N9  UNL     1      80.788   1.478  -3.360  1.00  0.00    -0.202 N 
HETATM   15  C25 UNL     1      79.717   2.081  -2.804  1.00  0.00     0.108 A 
ATOM     16  H9  UNL     1      81.307   0.803  -2.799  1.00  0.00     0.183 HD
HETATM   17  C24 UNL     1      79.013   2.996  -3.560  1.00  0.00     0.048 A 
BRANCH  12  18
HETATM   18  N1  UNL     1      82.226   1.147  -5.165  1.00  0.00    -0.226 N 
ATOM     19  H1  UNL     1      82.605   0.296  -4.749  1.00  0.00     0.177 HD
BRANCH  18  20
HETATM   20  C3  UNL     1      82.841   1.676  -6.350  1.00  0.00     0.137 C 
BRANCH  20  21
HETATM   21  C2  UNL     1      84.099   0.872  -6.688  1.00  0.00     0.016 C 
HETATM   22  C1  UNL     1      84.875   0.523  -5.456  1.00  0.00     0.006 C 
ENDBRANCH  20  21
ENDBRANCH  18  20
ENDBRANCH  12  18
ENDBRANCH   8  10
ENDBRANCH   4   5
ENDBRANCH   3   4
ENDBRANCH   2   3
ENDBRANCH   1   2
BRANCH   1  23
HETATM   23  C12 UNL     1      78.920  10.972  -5.995  1.00  0.00     0.156 C 
BRANCH  23  24
HETATM   24  C13 UNL     1      79.756  11.817  -6.884  1.00  0.00     0.135 C 
HETATM   25 CL1  UNL     1      79.385  13.527  -6.897  1.00  0.00    -0.129 Cl
ENDBRANCH  23  24
ENDBRANCH   1  23
BRANCH   1  26
HETATM   26  C14 UNL     1      79.494   8.757  -5.118  1.00  0.00     0.709 A 
HETATM   27  N4  UNL     1      78.661   7.957  -4.427  1.00  0.00    -0.021 N 
HETATM   28  C15 UNL     1      79.086   7.199  -3.386  1.00  0.00     0.707 A 
ATOM     29  H4  UNL     1      77.678   7.921  -4.695  1.00  0.00     0.203 HD
HETATM   30  N6  UNL     1      80.377   7.231  -3.013  1.00  0.00    -0.022 N 
HETATM   31  C22 UNL     1      81.220   8.022  -3.689  1.00  0.00     0.705 A 
ATOM     32  H6  UNL     1      80.708   6.665  -2.232  1.00  0.00     0.203 HD
HETATM   33  N8  UNL     1      80.776   8.763  -4.717  1.00  0.00    -0.022 N 
ATOM     34  H8  UNL     1      81.440   9.357  -5.214  1.00  0.00     0.203 HD
BRANCH  28  35
HETATM   35  N5  UNL     1      78.241   6.455  -2.769  1.00  0.00    -0.225 N 
ATOM     36  H5  UNL     1      78.534   5.572  -2.353  1.00  0.00     0.177 HD
BRANCH  35  37
HETATM   37  C16 UNL     1      76.874   6.891  -2.676  1.00  0.00     0.142 C 
BRANCH  37  38
HETATM   38  C17 UNL     1      76.179   6.349  -1.443  1.00  0.00     0.004 C 
HETATM   39  C18 UNL     1      77.195   5.746  -0.520  1.00  0.00     0.006 C 
HETATM   40  C19 UNL     1      76.612   5.940   0.865  1.00  0.00     0.000 C 
HETATM   41  C20 UNL     1      75.799   7.217   0.792  1.00  0.00     0.000 C 
HETATM   42  C21 UNL     1      75.500   7.451  -0.676  1.00  0.00     0.006 C 
ENDBRANCH  37  38
ENDBRANCH  35  37
ENDBRANCH  28  35
BRANCH  31  43
HETATM   43  N7  UNL     1      82.449   8.025  -3.301  1.00  0.00    -0.234 N 
ATOM     44  H72 UNL     1      83.036   8.859  -3.325  1.00  0.00     0.174 HD
ATOM     45  H71 UNL     1      82.825   7.141  -2.959  1.00  0.00     0.174 HD
ENDBRANCH  31  43
ENDBRANCH   1  26
TORSDOF 15
ENDMDL
MODEL 4
REMARK VINA RESULT: -6.778270215      2.418      3.836
REMARK  15 active torsions:
REMARK  status: ('A' for Active; 'I' for Inactive)
REMARK    1  A    between atoms: C2_2  and  C3_3 
REMARK    2  A    between atoms: C3_3  and  N1_4 
REMARK    3  A    between atoms: N1_4  and  C4_6 
REMARK    4  A    between atoms: C5_9  and  C6_10 
REMARK    5  A    between atoms: C8_13  and  C9_14 
REMARK    6  A    between atoms: C9_14  and  C10_15 
REMARK    7  A    between atoms: C10_15  and  C11_16 
REMARK    8  A    between atoms: C11_16  and  N3_17 
REMARK    9  A    between atoms: N3_17  and  C12_18 
REMARK   10  A    between atoms: N3_17  and  C14_21 
REMARK   11  A    between atoms: C12_18  and  C13_19 
REMARK   12  A    between atoms: C15_24  and  N5_25 
REMARK   13  A    between atoms: N5_25  and  C16_27 
REMARK   14  A    between atoms: C16_27  and  C17_28 
REMARK   15  A    between atoms: C22_35  and  N7_36 
ROOT
HETATM    1  N3  UNL     1      75.251   7.760  -4.636  1.00  0.00    -0.216 N 
ENDROOT
BRANCH   1   2
HETATM    2  C11 UNL     1      74.077   7.071  -5.166  1.00  0.00     0.141 C 
BRANCH   2   3
HETATM    3  C10 UNL     1      74.329   5.655  -5.539  1.00  0.00     0.025 C 
BRANCH   3   4
HETATM    4  C9  UNL     1      75.078   5.432  -6.792  1.00  0.00     0.048 C 
BRANCH   4   5
HETATM    5  C8  UNL     1      76.533   5.261  -6.592  1.00  0.00    -0.017 A 
HETATM    6  S1  UNL     1      77.897   6.042  -7.229  1.00  0.00    -0.106 SA
HETATM    7  C7  UNL     1      79.119   5.189  -6.408  1.00  0.00     0.063 A 
HETATM    8  C6  UNL     1      78.412   4.297  -5.641  1.00  0.00    -0.001 A 
HETATM    9  C23 UNL     1      77.068   4.335  -5.738  1.00  0.00     0.028 A 
BRANCH   8  10
HETATM   10  C5  UNL     1      79.163   3.352  -4.763  1.00  0.00     0.061 A 
HETATM   11  N2  UNL     1      80.223   2.723  -5.273  1.00  0.00    -0.191 N 
HETATM   12  C4  UNL     1      80.989   1.841  -4.567  1.00  0.00     0.678 A 
ATOM     13  H2  UNL     1      80.475   2.911  -6.243  1.00  0.00     0.184 HD
HETATM   14  N9  UNL     1      80.617   1.629  -3.298  1.00  0.00    -0.202 N 
HETATM   15  C25 UNL     1      79.557   2.232  -2.722  1.00  0.00     0.108 A 
ATOM     16  H9  UNL     1      81.166   0.977  -2.737  1.00  0.00     0.183 HD
HETATM   17  C24 UNL     1      78.814   3.115  -3.478  1.00  0.00     0.048 A 
BRANCH  12  18
HETATM   18  N1  UNL     1      81.999   1.269  -5.141  1.00  0.00    -0.226 N 
ATOM     19  H1  UNL     1      82.387   0.420  -4.731  1.00  0.00     0.177 HD
BRANCH  18  20
HETATM   20  C3  UNL     1      82.591   1.797  -6.339  1.00  0.00     0.137 C 
BRANCH  20  21
HETATM   21  C2  UNL     1      83.797   0.945  -6.743  1.00  0.00     0.016 C 
HETATM   22  C1  UNL     1      84.661   0.622  -5.563  1.00  0.00     0.006 C 
ENDBRANCH  20  21
ENDBRANCH  18  20
ENDBRANCH  12  18
ENDBRANCH   8  10
ENDBRANCH   4   5
ENDBRANCH   3   4
ENDBRANCH   2   3
ENDBRANCH   1   2
BRANCH   1  23
HETATM   23  C12 UNL     1      75.814   8.865  -5.390  1.00  0.00     0.156 C 
BRANCH  23  24
HETATM   24  C13 UNL     1      75.090  10.156  -5.268  1.00  0.00     0.135 C 
HETATM   25 CL1  UNL     1      73.749  10.396  -6.366  1.00  0.00    -0.129 Cl
ENDBRANCH  23  24
ENDBRANCH   1  23
BRANCH   1  26
HETATM   26  C14 UNL     1      75.900   7.400  -3.428  1.00  0.00     0.709 A 
HETATM   27  N4  UNL     1      77.231   7.211  -3.375  1.00  0.00    -0.021 N 
HETATM   28  C15 UNL     1      77.867   6.870  -2.226  1.00  0.00     0.707 A 
ATOM     29  H4  UNL     1      77.780   7.329  -4.226  1.00  0.00     0.203 HD
HETATM   30  N6  UNL     1      77.166   6.708  -1.092  1.00  0.00    -0.022 N 
HETATM   31  C22 UNL     1      75.840   6.890  -1.126  1.00  0.00     0.705 A 
ATOM     32  H6  UNL     1      77.634   6.451  -0.222  1.00  0.00     0.203 HD
HETATM   33  N8  UNL     1      75.232   7.229  -2.275  1.00  0.00    -0.022 N 
ATOM     34  H8  UNL     1      74.221   7.362  -2.272  1.00  0.00     0.203 HD
BRANCH  28  35
HETATM   35  N5  UNL     1      79.140   6.707  -2.243  1.00  0.00    -0.225 N 
ATOM     36  H5  UNL     1      79.624   6.322  -1.432  1.00  0.00     0.177 HD
BRANCH  35  37
HETATM   37  C16 UNL     1      79.871   7.077  -3.425  1.00  0.00     0.142 C 
BRANCH  37  38
HETATM   38  C17 UNL     1      80.415   8.490  -3.347  1.00  0.00     0.004 C 
HETATM   39  C18 UNL     1      81.908   8.459  -3.487  1.00  0.00     0.006 C 
HETATM   40  C19 UNL     1      82.255   9.783  -4.137  1.00  0.00     0.000 C 
HETATM   41  C20 UNL     1      81.067  10.135  -5.009  1.00  0.00     0.000 C 
HETATM   42  C21 UNL     1      79.893   9.334  -4.478  1.00  0.00     0.006 C 
ENDBRANCH  37  38
ENDBRANCH  35  37
ENDBRANCH  28  35
BRANCH  31  43
HETATM   43  N7  UNL     1      75.203   6.725  -0.018  1.00  0.00    -0.234 N 
ATOM     44  H72 UNL     1      74.268   7.099   0.146  1.00  0.00     0.174 HD
ATOM     45  H71 UNL     1      75.678   6.193   0.711  1.00  0.00     0.174 HD
ENDBRANCH  31  43
ENDBRANCH   1  26
TORSDOF 15
ENDMDL
MODEL 5
REMARK VINA RESULT: -6.749223048      2.836      6.851
REMARK  15 active torsions:
REMARK  status: ('A' for Active; 'I' for Inactive)
REMARK    1  A    between atoms: C2_2  and  C3_3 
REMARK    2  A    between atoms: C3_3  and  N1_4 
REMARK    3  A    between atoms: N1_4  and  C4_6 
REMARK    4  A    between atoms: C5_9  and  C6_10 
REMARK    5  A    between atoms: C8_13  and  C9_14 
REMARK    6  A    between atoms: C9_14  and  C10_15 
REMARK    7  A    between atoms: C10_15  and  C11_16 
REMARK    8  A    between atoms: C11_16  and  N3_17 
REMARK    9  A    between atoms: N3_17  and  C12_18 
REMARK   10  A    between atoms: N3_17  and  C14_21 
REMARK   11  A    between atoms: C12_18  and  C13_19 
REMARK   12  A    between atoms: C15_24  and  N5_25 
REMARK   13  A    between atoms: N5_25  and  C16_27 
REMARK   14  A    between atoms: C16_27  and  C17_28 
REMARK   15  A    between atoms: C22_35  and  N7_36 
ROOT
HETATM    1  N3  UNL     1      81.092   2.187  -5.972  1.00  0.00    -0.216 N 
ENDROOT
BRANCH   1   2
HETATM    2  C11 UNL     1      81.537   2.611  -7.298  1.00  0.00     0.141 C 
BRANCH   2   3
HETATM    3  C10 UNL     1      81.660   4.085  -7.446  1.00  0.00     0.025 C 
BRANCH   3   4
HETATM    4  C9  UNL     1      80.967   4.686  -8.603  1.00  0.00     0.048 C 
BRANCH   4   5
HETATM    5  C8  UNL     1      80.064   5.799  -8.241  1.00  0.00    -0.017 A 
HETATM    6  S1  UNL     1      79.877   7.384  -8.817  1.00  0.00    -0.106 SA
HETATM    7  C7  UNL     1      78.594   7.895  -7.824  1.00  0.00     0.063 A 
HETATM    8  C6  UNL     1      78.341   6.790  -7.052  1.00  0.00    -0.001 A 
HETATM    9  C23 UNL     1      79.105   5.701  -7.269  1.00  0.00     0.028 A 
BRANCH   8  10
HETATM   10  C5  UNL     1      77.253   6.860  -6.032  1.00  0.00     0.061 A 
HETATM   11  N2  UNL     1      76.114   6.209  -6.276  1.00  0.00    -0.191 N 
HETATM   12  C4  UNL     1      75.053   6.196  -5.419  1.00  0.00     0.678 A 
ATOM     13  H2  UNL     1      76.033   5.692  -7.152  1.00  0.00     0.184 HD
HETATM   14  N9  UNL     1      75.210   6.887  -4.283  1.00  0.00    -0.202 N 
HETATM   15  C25 UNL     1      76.334   7.567  -3.975  1.00  0.00     0.108 A 
ATOM     16  H9  UNL     1      74.439   6.901  -3.615  1.00  0.00     0.183 HD
HETATM   17  C24 UNL     1      77.379   7.549  -4.875  1.00  0.00     0.048 A 
BRANCH  12  18
HETATM   18  N1  UNL     1      73.981   5.542  -5.738  1.00  0.00    -0.226 N 
ATOM     19  H1  UNL     1      74.073   4.619  -6.161  1.00  0.00     0.177 HD
BRANCH  18  20
HETATM   20  C3  UNL     1      72.668   6.078  -5.511  1.00  0.00     0.137 C 
BRANCH  20  21
HETATM   21  C2  UNL     1      72.291   7.032  -6.648  1.00  0.00     0.016 C 
HETATM   22  C1  UNL     1      72.264   8.455  -6.184  1.00  0.00     0.006 C 
ENDBRANCH  20  21
ENDBRANCH  18  20
ENDBRANCH  12  18
ENDBRANCH   8  10
ENDBRANCH   4   5
ENDBRANCH   3   4
ENDBRANCH   2   3
ENDBRANCH   1   2
BRANCH   1  23
HETATM   23  C12 UNL     1      81.902   1.235  -5.234  1.00  0.00     0.156 C 
BRANCH  23  24
HETATM   24  C13 UNL     1      83.334   1.179  -5.621  1.00  0.00     0.135 C 
HETATM   25 CL1  UNL     1      84.158  -0.335  -5.315  1.00  0.00    -0.129 Cl
ENDBRANCH  23  24
ENDBRANCH   1  23
BRANCH   1  26
HETATM   26  C14 UNL     1      79.893   2.632  -5.361  1.00  0.00     0.709 A 
HETATM   27  N4  UNL     1      79.892   3.178  -4.131  1.00  0.00    -0.021 N 
HETATM   28  C15 UNL     1      78.754   3.612  -3.534  1.00  0.00     0.707 A 
ATOM     29  H4  UNL     1      80.777   3.268  -3.632  1.00  0.00     0.203 HD
HETATM   30  N6  UNL     1      77.577   3.503  -4.171  1.00  0.00    -0.022 N 
HETATM   31  C22 UNL     1      77.558   2.962  -5.395  1.00  0.00     0.705 A 
ATOM     32  H6  UNL     1      76.715   3.827  -3.732  1.00  0.00     0.203 HD
HETATM   33  N8  UNL     1      78.698   2.540  -5.967  1.00  0.00    -0.022 N 
ATOM     34  H8  UNL     1      78.654   2.131  -6.900  1.00  0.00     0.203 HD
BRANCH  28  35
HETATM   35  N5  UNL     1      78.823   4.126  -2.360  1.00  0.00    -0.225 N 
ATOM     36  H5  UNL     1      78.656   3.553  -1.533  1.00  0.00     0.177 HD
BRANCH  35  37
HETATM   37  C16 UNL     1      79.138   5.523  -2.232  1.00  0.00     0.142 C 
BRANCH  37  38
HETATM   38  C17 UNL     1      78.448   6.164  -1.045  1.00  0.00     0.004 C 
HETATM   39  C18 UNL     1      77.034   5.673  -0.963  1.00  0.00     0.006 C 
HETATM   40  C19 UNL     1      76.704   5.711   0.516  1.00  0.00     0.000 C 
HETATM   41  C20 UNL     1      78.012   5.448   1.234  1.00  0.00     0.000 C 
HETATM   42  C21 UNL     1      79.116   5.771   0.246  1.00  0.00     0.006 C 
ENDBRANCH  37  38
ENDBRANCH  35  37
ENDBRANCH  28  35
BRANCH  31  43
HETATM   43  N7  UNL     1      76.409   2.874  -5.974  1.00  0.00    -0.234 N 
ATOM     44  H72 UNL     1      75.534   2.780  -5.458  1.00  0.00     0.174 HD
ATOM     45  H71 UNL     1      76.404   2.904  -6.993  1.00  0.00     0.174 HD
ENDBRANCH  31  43
ENDBRANCH   1  26
TORSDOF 15
ENDMDL
