MODEL 1
REMARK VINA RESULT: -6.804936381      0.000      0.000
REMARK  16 active torsions:
REMARK  status: ('A' for Active; 'I' for Inactive)
REMARK    1  A    between atoms: C4_8  and  C5_9 
REMARK    2  A    between atoms: C5_9  and  C6_10 
REMARK    3  A    between atoms: C6_10  and  C7_11 
REMARK    4  A    between atoms: C7_11  and  C8_12 
REMARK    5  A    between atoms: C8_12  and  N3_13 
REMARK    6  A    between atoms: N3_13  and  C9_15 
REMARK    7  A    between atoms: C9_15  and  N4_17 
REMARK    8  A    between atoms: N4_17  and  C10_19 
REMARK    9  A    between atoms: C15_25  and  O1_26 
REMARK   10  A    between atoms: O1_26  and  C16_27 
REMARK   11  A    between atoms: C16_27  and  C17_28 
REMARK   12  A    between atoms: C17_28  and  O2_29 
REMARK   13  A    between atoms: O2_29  and  C18_30 
REMARK   14  A    between atoms: C18_30  and  C19_31 
REMARK   15  A    between atoms: C19_31  and  N5_32 
REMARK   16  A    between atoms: N5_32  and  C20_34 
ROOT
HETATM    1  C9  UNL     1      79.316   7.223  -3.625  1.00  0.00     0.172 C 
HETATM    2  S1  UNL     1      80.486   8.199  -3.071  1.00  0.00    -0.041 SA
ENDROOT
BRANCH   1   3
HETATM    3  N3  UNL     1      79.753   6.329  -4.692  1.00  0.00    -0.367 N 
ATOM      4  H3  UNL     1      80.729   6.304  -4.987  1.00  0.00     0.161 HD
BRANCH   3   5
HETATM    5  C8  UNL     1      78.779   5.491  -5.312  1.00  0.00     0.122 C 
BRANCH   5   6
HETATM    6  C7  UNL     1      78.648   4.114  -4.795  1.00  0.00     0.020 C 
BRANCH   6   7
HETATM    7  C6  UNL     1      79.160   2.980  -5.604  1.00  0.00     0.009 C 
BRANCH   7   8
HETATM    8  C5  UNL     1      80.177   3.306  -6.624  1.00  0.00     0.076 C 
BRANCH   8   9
HETATM    9  C4  UNL     1      81.445   2.489  -6.403  1.00  0.00     0.084 A 
HETATM   10  N2  UNL     1      81.742   1.738  -5.331  1.00  0.00    -0.328 N 
HETATM   11  C3  UNL     1      82.945   1.158  -5.480  1.00  0.00     0.161 A 
ATOM     12  H2  UNL     1      81.138   1.623  -4.516  1.00  0.00     0.169 HD
HETATM   13  N1  UNL     1      83.905   0.358  -4.982  1.00  0.00    -0.323 N 
HETATM   14  C21 UNL     1      83.439   1.559  -6.703  1.00  0.00     0.195 A 
HETATM   15  C2  UNL     1      84.934   0.264  -5.841  1.00  0.00     0.123 A 
ATOM     16  H1  UNL     1      83.859  -0.113  -4.079  1.00  0.00     0.169 HD
HETATM   17  C1  UNL     1      86.201  -0.534  -5.654  1.00  0.00     0.098 C 
HETATM   18  O3  UNL     1      84.615   1.006  -6.871  1.00  0.00    -0.277 OA
HETATM   19  N7  UNL     1      82.489   2.376  -7.239  1.00  0.00    -0.323 N 
ATOM     20  H7  UNL     1      82.562   2.836  -8.147  1.00  0.00     0.169 HD
ENDBRANCH   8   9
ENDBRANCH   7   8
ENDBRANCH   6   7
ENDBRANCH   5   6
ENDBRANCH   3   5
ENDBRANCH   1   3
BRANCH   1  21
HETATM   21  N4  UNL     1      77.988   7.199  -3.202  1.00  0.00    -0.331 N 
ATOM     22  H4  UNL     1      77.287   7.448  -3.900  1.00  0.00     0.168 HD
BRANCH  21  23
HETATM   23  C10 UNL     1      77.500   6.868  -1.915  1.00  0.00     0.069 A 
HETATM   24  C11 UNL     1      78.229   6.353  -0.903  1.00  0.00     0.056 A 
HETATM   25  C12 UNL     1      77.647   6.023   0.314  1.00  0.00     0.036 A 
HETATM   26 CL1  UNL     1      78.639   5.355   1.604  1.00  0.00    -0.084 Cl
HETATM   27  C13 UNL     1      76.305   6.219   0.507  1.00  0.00     0.026 A 
HETATM   28  C14 UNL     1      75.543   6.743  -0.511  1.00  0.00     0.041 A 
HETATM   29  C15 UNL     1      76.108   7.064  -1.695  1.00  0.00     0.095 A 
BRANCH  29  30
HETATM   30  O1  UNL     1      75.364   7.581  -2.695  1.00  0.00    -0.347 OA
BRANCH  30  31
HETATM   31  C16 UNL     1      74.589   7.087  -3.697  1.00  0.00     0.201 C 
BRANCH  31  32
HETATM   32  C17 UNL     1      74.929   7.451  -5.104  1.00  0.00     0.194 C 
BRANCH  32  33
HETATM   33  O2  UNL     1      76.084   8.231  -5.186  1.00  0.00    -0.387 OA
BRANCH  33  34
HETATM   34  C18 UNL     1      76.516   8.338  -6.513  1.00  0.00     0.187 C 
BRANCH  34  35
HETATM   35  C19 UNL     1      77.890   8.900  -6.622  1.00  0.00     0.148 C 
BRANCH  35  36
HETATM   36  N5  UNL     1      78.007  10.121  -5.871  1.00  0.00    -0.367 N 
ATOM     37  H5  UNL     1      77.165  10.483  -5.421  1.00  0.00     0.161 HD
BRANCH  36  38
HETATM   38  C20 UNL     1      79.207  10.859  -5.710  1.00  0.00     0.181 C 
HETATM   39  N6  UNL     1      79.255  12.085  -4.977  1.00  0.00    -0.070 NA
HETATM   40  S2  UNL     1      80.600  10.340  -6.377  1.00  0.00    -0.044 SA
ENDBRANCH  36  38
ENDBRANCH  35  36
ENDBRANCH  34  35
ENDBRANCH  33  34
ENDBRANCH  32  33
ENDBRANCH  31  32
ENDBRANCH  30  31
ENDBRANCH  29  30
ENDBRANCH  21  23
ENDBRANCH   1  21
TORSDOF 16
ENDMDL
MODEL 2
REMARK VINA RESULT: -6.772545069      2.222      3.103
REMARK  16 active torsions:
REMARK  status: ('A' for Active; 'I' for Inactive)
REMARK    1  A    between atoms: C4_8  and  C5_9 
REMARK    2  A    between atoms: C5_9  and  C6_10 
REMARK    3  A    between atoms: C6_10  and  C7_11 
REMARK    4  A    between atoms: C7_11  and  C8_12 
REMARK    5  A    between atoms: C8_12  and  N3_13 
REMARK    6  A    between atoms: N3_13  and  C9_15 
REMARK    7  A    between atoms: C9_15  and  N4_17 
REMARK    8  A    between atoms: N4_17  and  C10_19 
REMARK    9  A    between atoms: C15_25  and  O1_26 
REMARK   10  A    between atoms: O1_26  and  C16_27 
REMARK   11  A    between atoms: C16_27  and  C17_28 
REMARK   12  A    between atoms: C17_28  and  O2_29 
REMARK   13  A    between atoms: O2_29  and  C18_30 
REMARK   14  A    between atoms: C18_30  and  C19_31 
REMARK   15  A    between atoms: C19_31  and  N5_32 
REMARK   16  A    between atoms: N5_32  and  C20_34 
ROOT
HETATM    1  C9  UNL     1      75.211   6.925  -4.408  1.00  0.00     0.172 C 
HETATM    2  S1  UNL     1      73.625   6.781  -4.103  1.00  0.00    -0.041 SA
ENDROOT
BRANCH   1   3
HETATM    3  N3  UNL     1      75.624   6.314  -5.667  1.00  0.00    -0.367 N 
ATOM      4  H3  UNL     1      75.342   6.716  -6.561  1.00  0.00     0.161 HD
BRANCH   3   5
HETATM    5  C8  UNL     1      76.434   5.141  -5.613  1.00  0.00     0.122 C 
BRANCH   5   6
HETATM    6  C7  UNL     1      77.832   5.264  -6.071  1.00  0.00     0.020 C 
BRANCH   6   7
HETATM    7  C6  UNL     1      78.892   4.471  -5.401  1.00  0.00     0.009 C 
BRANCH   7   8
HETATM    8  C5  UNL     1      78.804   3.003  -5.543  1.00  0.00     0.076 C 
BRANCH   8   9
HETATM    9  C4  UNL     1      80.195   2.382  -5.603  1.00  0.00     0.084 A 
HETATM   10  N2  UNL     1      80.664   1.382  -4.840  1.00  0.00    -0.328 N 
HETATM   11  C3  UNL     1      81.933   1.092  -5.171  1.00  0.00     0.161 A 
ATOM     12  H2  UNL     1      80.131   0.908  -4.110  1.00  0.00     0.169 HD
HETATM   13  N1  UNL     1      83.034   0.345  -4.967  1.00  0.00    -0.323 N 
HETATM   14  C21 UNL     1      82.291   1.948  -6.192  1.00  0.00     0.195 A 
HETATM   15  C2  UNL     1      84.017   0.710  -5.806  1.00  0.00     0.123 A 
ATOM     16  H1  UNL     1      83.111  -0.395  -4.270  1.00  0.00     0.169 HD
HETATM   17  C1  UNL     1      85.402   0.118  -5.893  1.00  0.00     0.098 C 
HETATM   18  O3  UNL     1      83.529   1.684  -6.533  1.00  0.00    -0.277 OA
HETATM   19  N7  UNL     1      81.197   2.724  -6.429  1.00  0.00    -0.323 N 
ATOM     20  H7  UNL     1      81.147   3.461  -7.133  1.00  0.00     0.169 HD
ENDBRANCH   8   9
ENDBRANCH   7   8
ENDBRANCH   6   7
ENDBRANCH   5   6
ENDBRANCH   3   5
ENDBRANCH   1   3
BRANCH   1  21
HETATM   21  N4  UNL     1      76.161   7.529  -3.586  1.00  0.00    -0.331 N 
ATOM     22  H4  UNL     1      76.473   8.460  -3.863  1.00  0.00     0.168 HD
BRANCH  21  23
HETATM   23  C10 UNL     1      76.742   6.999  -2.409  1.00  0.00     0.069 A 
HETATM   24  C11 UNL     1      76.068   6.533  -1.337  1.00  0.00     0.056 A 
HETATM   25  C12 UNL     1      76.734   6.069  -0.209  1.00  0.00     0.036 A 
HETATM   26 CL1  UNL     1      75.812   5.470   1.164  1.00  0.00    -0.084 Cl
HETATM   27  C13 UNL     1      78.102   6.079  -0.169  1.00  0.00     0.026 A 
HETATM   28  C14 UNL     1      78.809   6.551  -1.251  1.00  0.00     0.041 A 
HETATM   29  C15 UNL     1      78.163   7.001  -2.347  1.00  0.00     0.095 A 
BRANCH  29  30
HETATM   30  O1  UNL     1      78.854   7.462  -3.412  1.00  0.00    -0.347 OA
BRANCH  30  31
HETATM   31  C16 UNL     1      80.153   7.464  -3.811  1.00  0.00     0.201 C 
BRANCH  31  32
HETATM   32  C17 UNL     1      81.052   8.541  -3.300  1.00  0.00     0.194 C 
BRANCH  32  33
HETATM   33  O2  UNL     1      80.477   9.809  -3.411  1.00  0.00    -0.387 OA
BRANCH  33  34
HETATM   34  C18 UNL     1      80.785  10.385  -4.649  1.00  0.00     0.187 C 
BRANCH  34  35
HETATM   35  C19 UNL     1      79.570  10.808  -5.398  1.00  0.00     0.148 C 
BRANCH  35  36
HETATM   36  N5  UNL     1      79.364  12.227  -5.283  1.00  0.00    -0.367 N 
ATOM     37  H5  UNL     1      79.322  12.625  -4.344  1.00  0.00     0.161 HD
BRANCH  36  38
HETATM   38  C20 UNL     1      79.214  13.113  -6.380  1.00  0.00     0.181 C 
HETATM   39  N6  UNL     1      79.451  14.518  -6.262  1.00  0.00    -0.070 NA
HETATM   40  S2  UNL     1      78.744  12.562  -7.838  1.00  0.00    -0.044 SA
ENDBRANCH  36  38
ENDBRANCH  35  36
ENDBRANCH  34  35
ENDBRANCH  33  34
ENDBRANCH  32  33
ENDBRANCH  31  32
ENDBRANCH  30  31
ENDBRANCH  29  30
ENDBRANCH  21  23
ENDBRANCH   1  21
TORSDOF 16
ENDMDL
MODEL 3
REMARK VINA RESULT: -6.730312647      3.311      6.058
REMARK  16 active torsions:
REMARK  status: ('A' for Active; 'I' for Inactive)
REMARK    1  A    between atoms: C4_8  and  C5_9 
REMARK    2  A    between atoms: C5_9  and  C6_10 
REMARK    3  A    between atoms: C6_10  and  C7_11 
REMARK    4  A    between atoms: C7_11  and  C8_12 
REMARK    5  A    between atoms: C8_12  and  N3_13 
REMARK    6  A    between atoms: N3_13  and  C9_15 
REMARK    7  A    between atoms: C9_15  and  N4_17 
REMARK    8  A    between atoms: N4_17  and  C10_19 
REMARK    9  A    between atoms: C15_25  and  O1_26 
REMARK   10  A    between atoms: O1_26  and  C16_27 
REMARK   11  A    between atoms: C16_27  and  C17_28 
REMARK   12  A    between atoms: C17_28  and  O2_29 
REMARK   13  A    between atoms: O2_29  and  C18_30 
REMARK   14  A    between atoms: C18_30  and  C19_31 
REMARK   15  A    between atoms: C19_31  and  N5_32 
REMARK   16  A    between atoms: N5_32  and  C20_34 
ROOT
HETATM    1  C9  UNL     1      80.166   4.919  -7.304  1.00  0.00     0.172 C 
HETATM    2  S1  UNL     1      80.122   5.913  -8.585  1.00  0.00    -0.041 SA
ENDROOT
BRANCH   1   3
HETATM    3  N3  UNL     1      80.577   3.558  -7.632  1.00  0.00    -0.367 N 
ATOM      4  H3  UNL     1      80.282   3.117  -8.502  1.00  0.00     0.161 HD
BRANCH   3   5
HETATM    5  C8  UNL     1      81.404   2.862  -6.700  1.00  0.00     0.122 C 
BRANCH   5   6
HETATM    6  C7  UNL     1      80.787   1.749  -5.952  1.00  0.00     0.020 C 
BRANCH   6   7
HETATM    7  C6  UNL     1      79.788   2.045  -4.896  1.00  0.00     0.009 C 
BRANCH   7   8
HETATM    8  C5  UNL     1      80.323   2.414  -3.569  1.00  0.00     0.076 C 
BRANCH   8   9
HETATM    9  C4  UNL     1      79.421   3.438  -2.889  1.00  0.00     0.084 A 
HETATM   10  N2  UNL     1      79.811   4.517  -2.191  1.00  0.00    -0.328 N 
HETATM   11  C3  UNL     1      78.744   5.195  -1.736  1.00  0.00     0.161 A 
ATOM     12  H2  UNL     1      80.782   4.784  -2.028  1.00  0.00     0.169 HD
HETATM   13  N1  UNL     1      78.255   6.242  -1.048  1.00  0.00    -0.323 N 
HETATM   14  C21 UNL     1      77.622   4.518  -2.163  1.00  0.00     0.195 A 
HETATM   15  C2  UNL     1      76.912   6.221  -1.045  1.00  0.00     0.123 A 
ATOM     16  H1  UNL     1      78.825   6.954  -0.591  1.00  0.00     0.169 HD
HETATM   17  C1  UNL     1      75.991   7.217  -0.384  1.00  0.00     0.098 C 
HETATM   18  O3  UNL     1      76.565   5.161  -1.731  1.00  0.00    -0.277 OA
HETATM   19  N7  UNL     1      78.079   3.445  -2.868  1.00  0.00    -0.323 N 
ATOM     20  H7  UNL     1      77.485   2.745  -3.315  1.00  0.00     0.169 HD
ENDBRANCH   8   9
ENDBRANCH   7   8
ENDBRANCH   6   7
ENDBRANCH   5   6
ENDBRANCH   3   5
ENDBRANCH   1   3
BRANCH   1  21
HETATM   21  N4  UNL     1      79.827   5.244  -5.992  1.00  0.00    -0.331 N 
ATOM     22  H4  UNL     1      80.507   4.993  -5.274  1.00  0.00     0.168 HD
BRANCH  21  23
HETATM   23  C10 UNL     1      78.647   5.884  -5.540  1.00  0.00     0.069 A 
HETATM   24  C11 UNL     1      77.385   5.512  -5.838  1.00  0.00     0.056 A 
HETATM   25  C12 UNL     1      76.290   6.232  -5.377  1.00  0.00     0.036 A 
HETATM   26 CL1  UNL     1      74.663   5.708  -5.791  1.00  0.00    -0.084 Cl
HETATM   27  C13 UNL     1      76.480   7.346  -4.603  1.00  0.00     0.026 A 
HETATM   28  C14 UNL     1      77.759   7.742  -4.287  1.00  0.00     0.041 A 
HETATM   29  C15 UNL     1      78.823   7.043  -4.735  1.00  0.00     0.095 A 
BRANCH  29  30
HETATM   30  O1  UNL     1      80.080   7.428  -4.424  1.00  0.00    -0.347 OA
BRANCH  30  31
HETATM   31  C16 UNL     1      80.688   8.025  -3.366  1.00  0.00     0.201 C 
BRANCH  31  32
HETATM   32  C17 UNL     1      81.842   8.935  -3.629  1.00  0.00     0.194 C 
BRANCH  32  33
HETATM   33  O2  UNL     1      81.540   9.914  -4.578  1.00  0.00    -0.387 OA
BRANCH  33  34
HETATM   34  C18 UNL     1      80.407  10.642  -4.194  1.00  0.00     0.187 C 
BRANCH  34  35
HETATM   35  C19 UNL     1      79.542  11.001  -5.351  1.00  0.00     0.148 C 
BRANCH  35  36
HETATM   36  N5  UNL     1      79.201  12.398  -5.323  1.00  0.00    -0.367 N 
ATOM     37  H5  UNL     1      78.913  12.798  -4.429  1.00  0.00     0.161 HD
BRANCH  36  38
HETATM   38  C20 UNL     1      79.234  13.260  -6.449  1.00  0.00     0.181 C 
HETATM   39  N6  UNL     1      79.587  14.641  -6.340  1.00  0.00    -0.070 NA
HETATM   40  S2  UNL     1      78.852  12.709  -7.933  1.00  0.00    -0.044 SA
ENDBRANCH  36  38
ENDBRANCH  35  36
ENDBRANCH  34  35
ENDBRANCH  33  34
ENDBRANCH  32  33
ENDBRANCH  31  32
ENDBRANCH  30  31
ENDBRANCH  29  30
ENDBRANCH  21  23
ENDBRANCH   1  21
TORSDOF 16
ENDMDL
MODEL 4
REMARK VINA RESULT: -6.640549874      2.949      5.255
REMARK  16 active torsions:
REMARK  status: ('A' for Active; 'I' for Inactive)
REMARK    1  A    between atoms: C4_8  and  C5_9 
REMARK    2  A    between atoms: C5_9  and  C6_10 
REMARK    3  A    between atoms: C6_10  and  C7_11 
REMARK    4  A    between atoms: C7_11  and  C8_12 
REMARK    5  A    between atoms: C8_12  and  N3_13 
REMARK    6  A    between atoms: N3_13  and  C9_15 
REMARK    7  A    between atoms: C9_15  and  N4_17 
REMARK    8  A    between atoms: N4_17  and  C10_19 
REMARK    9  A    between atoms: C15_25  and  O1_26 
REMARK   10  A    between atoms: O1_26  and  C16_27 
REMARK   11  A    between atoms: C16_27  and  C17_28 
REMARK   12  A    between atoms: C17_28  and  O2_29 
REMARK   13  A    between atoms: O2_29  and  C18_30 
REMARK   14  A    between atoms: C18_30  and  C19_31 
REMARK   15  A    between atoms: C19_31  and  N5_32 
REMARK   16  A    between atoms: N5_32  and  C20_34 
ROOT
HETATM    1  C9  UNL     1      80.315   7.686  -4.587  1.00  0.00     0.172 C 
HETATM    2  S1  UNL     1      80.654   8.558  -3.263  1.00  0.00    -0.041 SA
ENDROOT
BRANCH   1   3
HETATM    3  N3  UNL     1      81.087   8.078  -5.761  1.00  0.00    -0.367 N 
ATOM      4  H3  UNL     1      81.985   7.640  -5.968  1.00  0.00     0.161 HD
BRANCH   3   5
HETATM    5  C8  UNL     1      80.552   9.090  -6.613  1.00  0.00     0.122 C 
BRANCH   5   6
HETATM    6  C7  UNL     1      79.728   8.644  -7.754  1.00  0.00     0.020 C 
BRANCH   6   7
HETATM    7  C6  UNL     1      80.153   7.461  -8.542  1.00  0.00     0.009 C 
BRANCH   7   8
HETATM    8  C5  UNL     1      79.382   6.218  -8.330  1.00  0.00     0.076 C 
BRANCH   8   9
HETATM    9  C4  UNL     1      80.308   5.063  -7.968  1.00  0.00     0.084 A 
HETATM   10  N2  UNL     1      81.527   4.819  -8.476  1.00  0.00    -0.328 N 
HETATM   11  C3  UNL     1      82.055   3.714  -7.923  1.00  0.00     0.161 A 
ATOM     12  H2  UNL     1      81.988   5.393  -9.182  1.00  0.00     0.169 HD
HETATM   13  N1  UNL     1      83.081   2.848  -7.839  1.00  0.00    -0.323 N 
HETATM   14  C21 UNL     1      81.129   3.230  -7.022  1.00  0.00     0.195 A 
HETATM   15  C2  UNL     1      82.814   1.884  -6.943  1.00  0.00     0.123 A 
ATOM     16  H1  UNL     1      83.942   2.914  -8.381  1.00  0.00     0.169 HD
HETATM   17  C1  UNL     1      83.707   0.729  -6.561  1.00  0.00     0.098 C 
HETATM   18  O3  UNL     1      81.623   2.149  -6.469  1.00  0.00    -0.277 OA
HETATM   19  N7  UNL     1      80.070   4.085  -7.079  1.00  0.00    -0.323 N 
ATOM     20  H7  UNL     1      79.218   3.995  -6.526  1.00  0.00     0.169 HD
ENDBRANCH   8   9
ENDBRANCH   7   8
ENDBRANCH   6   7
ENDBRANCH   5   6
ENDBRANCH   3   5
ENDBRANCH   1   3
BRANCH   1  21
HETATM   21  N4  UNL     1      79.370   6.667  -4.688  1.00  0.00    -0.331 N 
ATOM     22  H4  UNL     1      79.706   5.719  -4.514  1.00  0.00     0.168 HD
BRANCH  21  23
HETATM   23  C10 UNL     1      77.995   6.795  -5.003  1.00  0.00     0.069 A 
HETATM   24  C11 UNL     1      77.310   7.955  -5.082  1.00  0.00     0.056 A 
HETATM   25  C12 UNL     1      75.948   7.973  -5.359  1.00  0.00     0.036 A 
HETATM   26 CL1  UNL     1      75.097   9.510  -5.452  1.00  0.00    -0.084 Cl
HETATM   27  C13 UNL     1      75.274   6.798  -5.558  1.00  0.00     0.026 A 
HETATM   28  C14 UNL     1      75.954   5.605  -5.482  1.00  0.00     0.041 A 
HETATM   29  C15 UNL     1      77.277   5.586  -5.213  1.00  0.00     0.095 A 
BRANCH  29  30
HETATM   30  O1  UNL     1      77.948   4.417  -5.141  1.00  0.00    -0.347 OA
BRANCH  30  31
HETATM   31  C16 UNL     1      78.077   3.416  -4.231  1.00  0.00     0.201 C 
BRANCH  31  32
HETATM   32  C17 UNL     1      78.855   3.683  -2.985  1.00  0.00     0.194 C 
BRANCH  32  33
HETATM   33  O2  UNL     1      78.275   4.684  -2.203  1.00  0.00    -0.387 OA
BRANCH  33  34
HETATM   34  C18 UNL     1      79.242   5.320  -1.416  1.00  0.00     0.187 C 
BRANCH  34  35
HETATM   35  C19 UNL     1      78.652   6.022  -0.243  1.00  0.00     0.148 C 
BRANCH  35  36
HETATM   36  N5  UNL     1      77.508   5.309   0.259  1.00  0.00    -0.367 N 
ATOM     37  H5  UNL     1      77.629   4.323   0.491  1.00  0.00     0.161 HD
BRANCH  36  38
HETATM   38  C20 UNL     1      76.224   5.878   0.456  1.00  0.00     0.181 C 
HETATM   39  N6  UNL     1      75.344   5.433   1.490  1.00  0.00    -0.070 NA
HETATM   40  S2  UNL     1      75.684   7.071  -0.513  1.00  0.00    -0.044 SA
ENDBRANCH  36  38
ENDBRANCH  35  36
ENDBRANCH  34  35
ENDBRANCH  33  34
ENDBRANCH  32  33
ENDBRANCH  31  32
ENDBRANCH  30  31
ENDBRANCH  29  30
ENDBRANCH  21  23
ENDBRANCH   1  21
TORSDOF 16
ENDMDL
MODEL 5
REMARK VINA RESULT: -6.632530514      4.058      8.838
REMARK  16 active torsions:
REMARK  status: ('A' for Active; 'I' for Inactive)
REMARK    1  A    between atoms: C4_8  and  C5_9 
REMARK    2  A    between atoms: C5_9  and  C6_10 
REMARK    3  A    between atoms: C6_10  and  C7_11 
REMARK    4  A    between atoms: C7_11  and  C8_12 
REMARK    5  A    between atoms: C8_12  and  N3_13 
REMARK    6  A    between atoms: N3_13  and  C9_15 
REMARK    7  A    between atoms: C9_15  and  N4_17 
REMARK    8  A    between atoms: N4_17  and  C10_19 
REMARK    9  A    between atoms: C15_25  and  O1_26 
REMARK   10  A    between atoms: O1_26  and  C16_27 
REMARK   11  A    between atoms: C16_27  and  C17_28 
REMARK   12  A    between atoms: C17_28  and  O2_29 
REMARK   13  A    between atoms: O2_29  and  C18_30 
REMARK   14  A    between atoms: C18_30  and  C19_31 
REMARK   15  A    between atoms: C19_31  and  N5_32 
REMARK   16  A    between atoms: N5_32  and  C20_34 
ROOT
HETATM    1  C9  UNL     1      80.626   7.493  -5.591  1.00  0.00     0.172 C 
HETATM    2  S1  UNL     1      80.515   7.700  -7.195  1.00  0.00    -0.041 SA
ENDROOT
BRANCH   1   3
HETATM    3  N3  UNL     1      81.858   8.021  -5.014  1.00  0.00    -0.367 N 
ATOM      4  H3  UNL     1      82.662   7.414  -4.851  1.00  0.00     0.161 HD
BRANCH   3   5
HETATM    5  C8  UNL     1      81.907   9.408  -4.684  1.00  0.00     0.122 C 
BRANCH   5   6
HETATM    6  C7  UNL     1      80.826   9.935  -3.827  1.00  0.00     0.020 C 
BRANCH   6   7
HETATM    7  C6  UNL     1      80.081  11.145  -4.254  1.00  0.00     0.009 C 
BRANCH   7   8
HETATM    8  C5  UNL     1      79.270  11.019  -5.483  1.00  0.00     0.076 C 
BRANCH   8   9
HETATM    9  C4  UNL     1      79.564  12.166  -6.444  1.00  0.00     0.084 A 
HETATM   10  N2  UNL     1      80.142  12.075  -7.652  1.00  0.00    -0.328 N 
HETATM   11  C3  UNL     1      80.241  13.289  -8.219  1.00  0.00     0.161 A 
ATOM     12  H2  UNL     1      80.462  11.206  -8.081  1.00  0.00     0.169 HD
HETATM   13  N1  UNL     1      80.628  14.042  -9.265  1.00  0.00    -0.323 N 
HETATM   14  C21 UNL     1      79.703  14.197  -7.331  1.00  0.00     0.195 A 
HETATM   15  C2  UNL     1      80.348  15.338  -9.044  1.00  0.00     0.123 A 
ATOM     16  H1  UNL     1      81.072  13.680 -10.108  1.00  0.00     0.169 HD
HETATM   17  C1  UNL     1      80.625  16.495  -9.972  1.00  0.00     0.098 C 
HETATM   18  O3  UNL     1      79.789  15.391  -7.862  1.00  0.00    -0.277 OA
HETATM   19  N7  UNL     1      79.299  13.468  -6.253  1.00  0.00    -0.323 N 
ATOM     20  H7  UNL     1      78.857  13.857  -5.419  1.00  0.00     0.169 HD
ENDBRANCH   8   9
ENDBRANCH   7   8
ENDBRANCH   6   7
ENDBRANCH   5   6
ENDBRANCH   3   5
ENDBRANCH   1   3
BRANCH   1  21
HETATM   21  N4  UNL     1      79.696   6.853  -4.772  1.00  0.00    -0.331 N 
ATOM     22  H4  UNL     1      80.066   6.392  -3.942  1.00  0.00     0.168 HD
BRANCH  21  23
HETATM   23  C10 UNL     1      78.295   6.771  -4.962  1.00  0.00     0.069 A 
HETATM   24  C11 UNL     1      77.435   7.810  -4.949  1.00  0.00     0.056 A 
HETATM   25  C12 UNL     1      76.067   7.620  -5.104  1.00  0.00     0.036 A 
HETATM   26 CL1  UNL     1      74.985   9.006  -5.081  1.00  0.00    -0.084 Cl
HETATM   27  C13 UNL     1      75.567   6.357  -5.276  1.00  0.00     0.026 A 
HETATM   28  C14 UNL     1      76.426   5.284  -5.292  1.00  0.00     0.041 A 
HETATM   29  C15 UNL     1      77.755   5.467  -5.141  1.00  0.00     0.095 A 
BRANCH  29  30
HETATM   30  O1  UNL     1      78.602   4.416  -5.160  1.00  0.00    -0.347 OA
BRANCH  30  31
HETATM   31  C16 UNL     1      78.892   3.376  -4.334  1.00  0.00     0.201 C 
BRANCH  31  32
HETATM   32  C17 UNL     1      78.813   3.596  -2.860  1.00  0.00     0.194 C 
BRANCH  32  33
HETATM   33  O2  UNL     1      79.715   4.567  -2.419  1.00  0.00    -0.387 OA
BRANCH  33  34
HETATM   34  C18 UNL     1      79.157   5.328  -1.385  1.00  0.00     0.187 C 
BRANCH  34  35
HETATM   35  C19 UNL     1      77.684   5.488  -1.526  1.00  0.00     0.148 C 
BRANCH  35  36
HETATM   36  N5  UNL     1      77.038   5.455  -0.241  1.00  0.00    -0.367 N 
ATOM     37  H5  UNL     1      77.353   4.753   0.429  1.00  0.00     0.161 HD
BRANCH  36  38
HETATM   38  C20 UNL     1      75.994   6.326   0.161  1.00  0.00     0.181 C 
HETATM   39  N6  UNL     1      75.376   6.233   1.447  1.00  0.00    -0.070 NA
HETATM   40  S2  UNL     1      75.435   7.478  -0.846  1.00  0.00    -0.044 SA
ENDBRANCH  36  38
ENDBRANCH  35  36
ENDBRANCH  34  35
ENDBRANCH  33  34
ENDBRANCH  32  33
ENDBRANCH  31  32
ENDBRANCH  30  31
ENDBRANCH  29  30
ENDBRANCH  21  23
ENDBRANCH   1  21
TORSDOF 16
ENDMDL
