MODEL 1
REMARK VINA RESULT: -6.298106838      0.000      0.000
REMARK  16 active torsions:
REMARK  status: ('A' for Active; 'I' for Inactive)
REMARK    1  A    between atoms: C2_2  and  N1_3 
REMARK    2  A    between atoms: C2_2  and  O4_32 
REMARK       I    between atoms: N1_3  and  C3_5 
REMARK    3  A    between atoms: C3_5  and  C4_7 
REMARK    4  A    between atoms: C4_7  and  C6_9 
REMARK    5  A    between atoms: C4_7  and  N3_16 
REMARK    6  A    between atoms: C6_9  and  C7_10 
REMARK    7  A    between atoms: C7_10  and  C8_11 
REMARK    8  A    between atoms: C8_11  and  N2_12 
REMARK    9  A    between atoms: N3_16  and  O2_17 
REMARK       I    between atoms: N3_16  and  C9_19 
REMARK       I    between atoms: C9_19  and  N4_21 
REMARK   10  A    between atoms: N4_21  and  C10_23 
REMARK   11  A    between atoms: C10_23  and  C11_24 
REMARK   12  A    between atoms: C11_24  and  C12_25 
REMARK   13  A    between atoms: C12_25  and  C13_26 
REMARK   14  A    between atoms: C13_26  and  C14_28 
REMARK   15  A    between atoms: O4_32  and  C17_33 
REMARK   16  A    between atoms: C17_33  and  C18_35 
ROOT
HETATM    1  C4  UNL     1     -12.987   8.894  42.732  1.00  0.00     0.141 C 
HETATM    2  C5  UNL     1     -13.979   9.691  43.520  1.00  0.00     0.052 C 
ENDROOT
BRANCH   1   3
HETATM    3  C3  UNL     1     -11.792   8.601  43.594  1.00  0.00     0.250 C 
HETATM    4  N1  UNL     1     -11.576   9.202  44.840  1.00  0.00    -0.332 N 
ATOM      5  H1  UNL     1     -12.265   9.874  45.178  1.00  0.00     0.165 HD
HETATM    6  O1  UNL     1     -10.960   7.773  43.155  1.00  0.00    -0.271 OA
BRANCH   4   7
HETATM    7  C2  UNL     1     -10.433   8.922  45.668  1.00  0.00     0.228 C 
HETATM    8  C1  UNL     1      -9.871  10.260  46.183  1.00  0.00     0.063 C 
BRANCH   7   9
HETATM    9  O4  UNL     1     -10.709   8.157  46.795  1.00  0.00    -0.295 OA
BRANCH   9  10
HETATM   10  C17 UNL     1     -11.943   7.607  47.136  1.00  0.00     0.265 C 
HETATM   11  O5  UNL     1     -12.298   6.601  46.472  1.00  0.00    -0.265 OA
BRANCH  10  12
HETATM   12  C18 UNL     1     -12.806   8.135  48.195  1.00  0.00     0.085 C 
HETATM   13  C19 UNL     1     -13.017   9.627  48.094  1.00  0.00     0.014 C 
HETATM   14  C20 UNL     1     -14.272   9.977  47.349  1.00  0.00     0.001 C 
HETATM   15  C21 UNL     1     -15.458   9.610  48.229  1.00  0.00     0.000 C 
HETATM   16  C22 UNL     1     -15.066   8.398  49.057  1.00  0.00     0.001 C 
HETATM   17  C23 UNL     1     -14.164   7.473  48.238  1.00  0.00     0.014 C 
ENDBRANCH  10  12
ENDBRANCH   9  10
ENDBRANCH   7   9
ENDBRANCH   4   7
ENDBRANCH   1   3
BRANCH   1  18
HETATM   18  C6  UNL     1     -12.548   9.668  41.508  1.00  0.00     0.045 C 
BRANCH  18  19
HETATM   19  C7  UNL     1     -13.579  10.595  40.964  1.00  0.00     0.030 C 
BRANCH  19  20
HETATM   20  C8  UNL     1     -13.365  10.745  39.466  1.00  0.00     0.230 C 
BRANCH  20  21
HETATM   21  N2  UNL     1     -12.799   9.561  38.879  1.00  0.00    -0.079 N 
ATOM     22  H23 UNL     1     -11.974   9.783  38.322  1.00  0.00     0.274 HD
ATOM     23  H22 UNL     1     -12.361   8.970  39.587  1.00  0.00     0.274 HD
ATOM     24  H21 UNL     1     -13.483   9.037  38.333  1.00  0.00     0.274 HD
ENDBRANCH  20  21
ENDBRANCH  19  20
ENDBRANCH  18  19
ENDBRANCH   1  18
BRANCH   1  25
HETATM   25  N3  UNL     1     -13.527   7.641  42.325  1.00  0.00    -0.191 N 
HETATM   26  C9  UNL     1     -14.268   6.766  43.125  1.00  0.00     0.343 C 
HETATM   27  O3  UNL     1     -14.743   5.688  42.582  1.00  0.00    -0.245 OA
HETATM   28  N4  UNL     1     -14.573   6.917  44.496  1.00  0.00    -0.341 N 
ATOM     29  H4  UNL     1     -14.248   7.723  45.031  1.00  0.00     0.164 HD
BRANCH  25  30
HETATM   30  O2  UNL     1     -13.306   7.242  41.025  1.00  0.00    -0.282 OA
ATOM     31  H2  UNL     1     -13.097   6.328  40.874  1.00  0.00     0.245 HD
ENDBRANCH  25  30
BRANCH  28  32
HETATM   32  C10 UNL     1     -15.384   5.851  45.118  1.00  0.00     0.124 C 
BRANCH  32  33
HETATM   33  C11 UNL     1     -16.804   6.339  45.316  1.00  0.00     0.022 C 
BRANCH  33  34
HETATM   34  C12 UNL     1     -17.259   6.217  46.726  1.00  0.00     0.041 C 
BRANCH  34  35
HETATM   35  C13 UNL     1     -18.486   6.969  47.120  1.00  0.00     0.192 C 
HETATM   36  F1  UNL     1     -18.056   8.348  47.060  1.00  0.00    -0.247 F 
BRANCH  35  37
HETATM   37  C14 UNL     1     -18.923   6.818  48.539  1.00  0.00     0.060 C 
HETATM   38  C15 UNL     1     -18.717   7.967  49.458  1.00  0.00     0.035 C 
HETATM   39  C16 UNL     1     -18.141   5.627  49.130  1.00  0.00     0.035 C 
HETATM   40 CL1  UNL     1     -20.645   6.270  48.575  1.00  0.00    -0.117 Cl
ENDBRANCH  35  37
ENDBRANCH  34  35
ENDBRANCH  33  34
ENDBRANCH  32  33
ENDBRANCH  28  32
ENDBRANCH   1  25
TORSDOF 16
ENDMDL
MODEL 2
REMARK VINA RESULT: -6.157398063      2.840      6.262
REMARK  16 active torsions:
REMARK  status: ('A' for Active; 'I' for Inactive)
REMARK    1  A    between atoms: C2_2  and  N1_3 
REMARK    2  A    between atoms: C2_2  and  O4_32 
REMARK       I    between atoms: N1_3  and  C3_5 
REMARK    3  A    between atoms: C3_5  and  C4_7 
REMARK    4  A    between atoms: C4_7  and  C6_9 
REMARK    5  A    between atoms: C4_7  and  N3_16 
REMARK    6  A    between atoms: C6_9  and  C7_10 
REMARK    7  A    between atoms: C7_10  and  C8_11 
REMARK    8  A    between atoms: C8_11  and  N2_12 
REMARK    9  A    between atoms: N3_16  and  O2_17 
REMARK       I    between atoms: N3_16  and  C9_19 
REMARK       I    between atoms: C9_19  and  N4_21 
REMARK   10  A    between atoms: N4_21  and  C10_23 
REMARK   11  A    between atoms: C10_23  and  C11_24 
REMARK   12  A    between atoms: C11_24  and  C12_25 
REMARK   13  A    between atoms: C12_25  and  C13_26 
REMARK   14  A    between atoms: C13_26  and  C14_28 
REMARK   15  A    between atoms: O4_32  and  C17_33 
REMARK   16  A    between atoms: C17_33  and  C18_35 
ROOT
HETATM    1  C4  UNL     1     -13.149   9.373  48.031  1.00  0.00     0.141 C 
HETATM    2  C5  UNL     1     -13.266   7.882  48.110  1.00  0.00     0.052 C 
ENDROOT
BRANCH   1   3
HETATM    3  C3  UNL     1     -12.058   9.732  47.062  1.00  0.00     0.250 C 
HETATM    4  N1  UNL     1     -11.890   9.101  45.824  1.00  0.00    -0.332 N 
ATOM      5  H1  UNL     1     -12.541   8.359  45.568  1.00  0.00     0.165 HD
HETATM    6  O1  UNL     1     -11.271  10.647  47.401  1.00  0.00    -0.271 OA
BRANCH   4   7
HETATM    7  C2  UNL     1     -10.848   9.445  44.894  1.00  0.00     0.228 C 
HETATM    8  C1  UNL     1     -10.049   8.169  44.571  1.00  0.00     0.063 C 
BRANCH   7   9
HETATM    9  O4  UNL     1     -11.299   9.938  43.675  1.00  0.00    -0.295 OA
BRANCH   9  10
HETATM   10  C17 UNL     1     -12.626  10.184  43.326  1.00  0.00     0.265 C 
HETATM   11  O5  UNL     1     -13.187  11.130  43.934  1.00  0.00    -0.265 OA
BRANCH  10  12
HETATM   12  C18 UNL     1     -13.359   9.414  42.319  1.00  0.00     0.085 C 
HETATM   13  C19 UNL     1     -13.884  10.270  41.191  1.00  0.00     0.014 C 
HETATM   14  C20 UNL     1     -12.952  10.299  40.015  1.00  0.00     0.001 C 
HETATM   15  C21 UNL     1     -13.000   8.933  39.344  1.00  0.00     0.000 C 
HETATM   16  C22 UNL     1     -13.252   7.893  40.423  1.00  0.00     0.001 C 
HETATM   17  C23 UNL     1     -12.540   8.296  41.715  1.00  0.00     0.014 C 
ENDBRANCH  10  12
ENDBRANCH   9  10
ENDBRANCH   7   9
ENDBRANCH   4   7
ENDBRANCH   1   3
BRANCH   1  18
HETATM   18  C6  UNL     1     -12.821   9.945  49.394  1.00  0.00     0.045 C 
BRANCH  18  19
HETATM   19  C7  UNL     1     -12.182   8.978  50.329  1.00  0.00     0.030 C 
BRANCH  19  20
HETATM   20  C8  UNL     1     -11.126   9.707  51.145  1.00  0.00     0.230 C 
BRANCH  20  21
HETATM   21  N2  UNL     1     -10.405  10.671  50.359  1.00  0.00    -0.079 N 
ATOM     22  H23 UNL     1      -9.922  10.225  49.579  1.00  0.00     0.274 HD
ATOM     23  H22 UNL     1     -11.042  11.269  49.832  1.00  0.00     0.274 HD
ATOM     24  H21 UNL     1      -9.762  11.224  50.925  1.00  0.00     0.274 HD
ENDBRANCH  20  21
ENDBRANCH  19  20
ENDBRANCH  18  19
ENDBRANCH   1  18
BRANCH   1  25
HETATM   25  N3  UNL     1     -14.349   9.967  47.549  1.00  0.00    -0.191 N 
HETATM   26  C9  UNL     1     -15.647   9.494  47.768  1.00  0.00     0.343 C 
HETATM   27  O3  UNL     1     -16.641  10.190  47.310  1.00  0.00    -0.245 OA
HETATM   28  N4  UNL     1     -16.019   8.312  48.446  1.00  0.00    -0.341 N 
ATOM     29  H4  UNL     1     -15.322   7.682  48.844  1.00  0.00     0.164 HD
BRANCH  25  30
HETATM   30  O2  UNL     1     -14.236  11.116  46.798  1.00  0.00    -0.282 OA
ATOM     31  H2  UNL     1     -14.929  11.762  46.872  1.00  0.00     0.245 HD
ENDBRANCH  25  30
BRANCH  28  32
HETATM   32  C10 UNL     1     -17.466   8.034  48.551  1.00  0.00     0.124 C 
BRANCH  32  33
HETATM   33  C11 UNL     1     -17.771   6.682  47.942  1.00  0.00     0.022 C 
BRANCH  33  34
HETATM   34  C12 UNL     1     -17.339   6.582  46.524  1.00  0.00     0.041 C 
BRANCH  34  35
HETATM   35  C13 UNL     1     -16.449   5.443  46.154  1.00  0.00     0.192 C 
HETATM   36  F1  UNL     1     -15.531   5.373  47.268  1.00  0.00    -0.247 F 
BRANCH  35  37
HETATM   37  C14 UNL     1     -15.543   5.667  44.988  1.00  0.00     0.060 C 
HETATM   38  C15 UNL     1     -14.759   6.928  44.949  1.00  0.00     0.035 C 
HETATM   39  C16 UNL     1     -16.422   5.648  43.721  1.00  0.00     0.035 C 
HETATM   40 CL1  UNL     1     -14.462   4.234  44.792  1.00  0.00    -0.117 Cl
ENDBRANCH  35  37
ENDBRANCH  34  35
ENDBRANCH  33  34
ENDBRANCH  32  33
ENDBRANCH  28  32
ENDBRANCH   1  25
TORSDOF 16
ENDMDL
MODEL 3
REMARK VINA RESULT: -6.146426404      2.184      3.851
REMARK  16 active torsions:
REMARK  status: ('A' for Active; 'I' for Inactive)
REMARK    1  A    between atoms: C2_2  and  N1_3 
REMARK    2  A    between atoms: C2_2  and  O4_32 
REMARK       I    between atoms: N1_3  and  C3_5 
REMARK    3  A    between atoms: C3_5  and  C4_7 
REMARK    4  A    between atoms: C4_7  and  C6_9 
REMARK    5  A    between atoms: C4_7  and  N3_16 
REMARK    6  A    between atoms: C6_9  and  C7_10 
REMARK    7  A    between atoms: C7_10  and  C8_11 
REMARK    8  A    between atoms: C8_11  and  N2_12 
REMARK    9  A    between atoms: N3_16  and  O2_17 
REMARK       I    between atoms: N3_16  and  C9_19 
REMARK       I    between atoms: C9_19  and  N4_21 
REMARK   10  A    between atoms: N4_21  and  C10_23 
REMARK   11  A    between atoms: C10_23  and  C11_24 
REMARK   12  A    between atoms: C11_24  and  C12_25 
REMARK   13  A    between atoms: C12_25  and  C13_26 
REMARK   14  A    between atoms: C13_26  and  C14_28 
REMARK   15  A    between atoms: O4_32  and  C17_33 
REMARK   16  A    between atoms: C17_33  and  C18_35 
ROOT
HETATM    1  C4  UNL     1     -12.175   7.854  43.159  1.00  0.00     0.141 C 
HETATM    2  C5  UNL     1     -10.910   7.477  42.453  1.00  0.00     0.052 C 
ENDROOT
BRANCH   1   3
HETATM    3  C3  UNL     1     -12.424   9.325  42.977  1.00  0.00     0.250 C 
HETATM    4  N1  UNL     1     -13.677   9.922  43.159  1.00  0.00    -0.332 N 
ATOM      5  H1  UNL     1     -14.461   9.327  43.429  1.00  0.00     0.165 HD
HETATM    6  O1  UNL     1     -11.445  10.034  42.645  1.00  0.00    -0.271 OA
BRANCH   4   7
HETATM    7  C2  UNL     1     -13.917  11.330  42.988  1.00  0.00     0.228 C 
HETATM    8  C1  UNL     1     -15.004  11.505  41.911  1.00  0.00     0.063 C 
BRANCH   7   9
HETATM    9  O4  UNL     1     -14.387  11.980  44.123  1.00  0.00    -0.295 OA
BRANCH   9  10
HETATM   10  C17 UNL     1     -13.702  12.135  45.327  1.00  0.00     0.265 C 
HETATM   11  O5  UNL     1     -12.727  12.928  45.306  1.00  0.00    -0.265 OA
BRANCH  10  12
HETATM   12  C18 UNL     1     -14.060  11.437  46.564  1.00  0.00     0.085 C 
HETATM   13  C19 UNL     1     -15.288  10.571  46.417  1.00  0.00     0.014 C 
HETATM   14  C20 UNL     1     -14.946   9.145  46.098  1.00  0.00     0.001 C 
HETATM   15  C21 UNL     1     -14.338   8.518  47.344  1.00  0.00     0.000 C 
HETATM   16  C22 UNL     1     -13.587   9.605  48.094  1.00  0.00     0.001 C 
HETATM   17  C23 UNL     1     -12.941  10.574  47.102  1.00  0.00     0.014 C 
ENDBRANCH  10  12
ENDBRANCH   9  10
ENDBRANCH   7   9
ENDBRANCH   4   7
ENDBRANCH   1   3
BRANCH   1  18
HETATM   18  C6  UNL     1     -12.063   7.542  44.636  1.00  0.00     0.045 C 
BRANCH  18  19
HETATM   19  C7  UNL     1     -10.850   8.105  45.293  1.00  0.00     0.030 C 
BRANCH  19  20
HETATM   20  C8  UNL     1     -10.731   7.519  46.691  1.00  0.00     0.230 C 
BRANCH  20  21
HETATM   21  N2  UNL     1     -11.277   6.192  46.770  1.00  0.00    -0.079 N 
ATOM     22  H23 UNL     1     -11.793   5.954  45.923  1.00  0.00     0.274 HD
ATOM     23  H22 UNL     1     -10.543   5.486  46.715  1.00  0.00     0.274 HD
ATOM     24  H21 UNL     1     -11.852   6.062  47.602  1.00  0.00     0.274 HD
ENDBRANCH  20  21
ENDBRANCH  19  20
ENDBRANCH  18  19
ENDBRANCH   1  18
BRANCH   1  25
HETATM   25  N3  UNL     1     -13.300   7.170  42.620  1.00  0.00    -0.191 N 
HETATM   26  C9  UNL     1     -14.074   6.211  43.280  1.00  0.00     0.343 C 
HETATM   27  O3  UNL     1     -15.108   5.724  42.667  1.00  0.00    -0.245 OA
HETATM   28  N4  UNL     1     -13.859   5.688  44.575  1.00  0.00    -0.341 N 
ATOM     29  H4  UNL     1     -13.073   5.991  45.150  1.00  0.00     0.164 HD
BRANCH  25  30
HETATM   30  O2  UNL     1     -13.673   7.472  41.328  1.00  0.00    -0.282 OA
ATOM     31  H2  UNL     1     -13.854   8.382  41.123  1.00  0.00     0.245 HD
ENDBRANCH  25  30
BRANCH  28  32
HETATM   32  C10 UNL     1     -14.828   4.682  45.055  1.00  0.00     0.124 C 
BRANCH  32  33
HETATM   33  C11 UNL     1     -15.246   5.011  46.473  1.00  0.00     0.022 C 
BRANCH  33  34
HETATM   34  C12 UNL     1     -16.606   5.608  46.545  1.00  0.00     0.041 C 
BRANCH  34  35
HETATM   35  C13 UNL     1     -17.100   6.034  47.887  1.00  0.00     0.192 C 
HETATM   36  F1  UNL     1     -17.708   4.831  48.407  1.00  0.00    -0.247 F 
BRANCH  35  37
HETATM   37  C14 UNL     1     -18.230   7.009  47.892  1.00  0.00     0.060 C 
HETATM   38  C15 UNL     1     -19.522   6.574  48.483  1.00  0.00     0.035 C 
HETATM   39  C16 UNL     1     -18.513   7.382  46.423  1.00  0.00     0.035 C 
HETATM   40 CL1  UNL     1     -17.675   8.558  48.638  1.00  0.00    -0.117 Cl
ENDBRANCH  35  37
ENDBRANCH  34  35
ENDBRANCH  33  34
ENDBRANCH  32  33
ENDBRANCH  28  32
ENDBRANCH   1  25
TORSDOF 16
ENDMDL
MODEL 4
REMARK VINA RESULT: -6.099352237      3.118      4.606
REMARK  16 active torsions:
REMARK  status: ('A' for Active; 'I' for Inactive)
REMARK    1  A    between atoms: C2_2  and  N1_3 
REMARK    2  A    between atoms: C2_2  and  O4_32 
REMARK       I    between atoms: N1_3  and  C3_5 
REMARK    3  A    between atoms: C3_5  and  C4_7 
REMARK    4  A    between atoms: C4_7  and  C6_9 
REMARK    5  A    between atoms: C4_7  and  N3_16 
REMARK    6  A    between atoms: C6_9  and  C7_10 
REMARK    7  A    between atoms: C7_10  and  C8_11 
REMARK    8  A    between atoms: C8_11  and  N2_12 
REMARK    9  A    between atoms: N3_16  and  O2_17 
REMARK       I    between atoms: N3_16  and  C9_19 
REMARK       I    between atoms: C9_19  and  N4_21 
REMARK   10  A    between atoms: N4_21  and  C10_23 
REMARK   11  A    between atoms: C10_23  and  C11_24 
REMARK   12  A    between atoms: C11_24  and  C12_25 
REMARK   13  A    between atoms: C12_25  and  C13_26 
REMARK   14  A    between atoms: C13_26  and  C14_28 
REMARK   15  A    between atoms: O4_32  and  C17_33 
REMARK   16  A    between atoms: C17_33  and  C18_35 
ROOT
HETATM    1  C4  UNL     1     -12.905   8.310  42.647  1.00  0.00     0.141 C 
HETATM    2  C5  UNL     1     -14.066   9.016  43.276  1.00  0.00     0.052 C 
ENDROOT
BRANCH   1   3
HETATM    3  C3  UNL     1     -11.648   8.671  43.388  1.00  0.00     0.250 C 
HETATM    4  N1  UNL     1     -10.951   7.771  44.203  1.00  0.00    -0.332 N 
ATOM      5  H1  UNL     1     -11.316   6.824  44.299  1.00  0.00     0.165 HD
HETATM    6  O1  UNL     1     -11.221   9.842  43.253  1.00  0.00    -0.271 OA
BRANCH   4   7
HETATM    7  C2  UNL     1      -9.746   8.113  44.910  1.00  0.00     0.228 C 
HETATM    8  C1  UNL     1     -10.129   8.990  46.117  1.00  0.00     0.063 C 
BRANCH   7   9
HETATM    9  O4  UNL     1      -9.049   7.027  45.426  1.00  0.00    -0.295 OA
BRANCH   9  10
HETATM   10  C17 UNL     1      -8.152   6.218  44.731  1.00  0.00     0.265 C 
HETATM   11  O5  UNL     1      -8.168   6.331  43.479  1.00  0.00    -0.265 OA
BRANCH  10  12
HETATM   12  C18 UNL     1      -7.230   5.282  45.377  1.00  0.00     0.085 C 
HETATM   13  C19 UNL     1      -7.417   5.208  46.874  1.00  0.00     0.014 C 
HETATM   14  C20 UNL     1      -8.326   4.084  47.280  1.00  0.00     0.001 C 
HETATM   15  C21 UNL     1      -7.584   2.775  47.051  1.00  0.00     0.000 C 
HETATM   16  C22 UNL     1      -6.664   2.964  45.857  1.00  0.00     0.001 C 
HETATM   17  C23 UNL     1      -7.327   3.878  44.824  1.00  0.00     0.014 C 
ENDBRANCH  10  12
ENDBRANCH   9  10
ENDBRANCH   7   9
ENDBRANCH   4   7
ENDBRANCH   1   3
BRANCH   1  18
HETATM   18  C6  UNL     1     -12.769   8.718  41.196  1.00  0.00     0.045 C 
BRANCH  18  19
HETATM   19  C7  UNL     1     -13.522   9.950  40.830  1.00  0.00     0.030 C 
BRANCH  19  20
HETATM   20  C8  UNL     1     -13.141  10.357  39.415  1.00  0.00     0.230 C 
BRANCH  20  21
HETATM   21  N2  UNL     1     -12.676   9.242  38.637  1.00  0.00    -0.079 N 
ATOM     22  H23 UNL     1     -13.136   9.208  37.728  1.00  0.00     0.274 HD
ATOM     23  H22 UNL     1     -11.714   9.384  38.326  1.00  0.00     0.274 HD
ATOM     24  H21 UNL     1     -12.776   8.357  39.135  1.00  0.00     0.274 HD
ENDBRANCH  20  21
ENDBRANCH  19  20
ENDBRANCH  18  19
ENDBRANCH   1  18
BRANCH   1  25
HETATM   25  N3  UNL     1     -13.046   6.896  42.726  1.00  0.00    -0.191 N 
HETATM   26  C9  UNL     1     -14.100   6.207  43.334  1.00  0.00     0.343 C 
HETATM   27  O3  UNL     1     -14.111   4.912  43.264  1.00  0.00    -0.245 OA
HETATM   28  N4  UNL     1     -15.189   6.767  44.039  1.00  0.00    -0.341 N 
ATOM     29  H4  UNL     1     -15.283   7.775  44.164  1.00  0.00     0.164 HD
BRANCH  25  30
HETATM   30  O2  UNL     1     -12.061   6.123  42.152  1.00  0.00    -0.282 OA
ATOM     31  H2  UNL     1     -12.197   5.827  41.259  1.00  0.00     0.245 HD
ENDBRANCH  25  30
BRANCH  28  32
HETATM   32  C10 UNL     1     -16.183   5.822  44.587  1.00  0.00     0.124 C 
BRANCH  32  33
HETATM   33  C11 UNL     1     -16.560   6.235  45.994  1.00  0.00     0.022 C 
BRANCH  33  34
HETATM   34  C12 UNL     1     -15.549   5.821  47.002  1.00  0.00     0.041 C 
BRANCH  34  35
HETATM   35  C13 UNL     1     -15.053   6.865  47.947  1.00  0.00     0.192 C 
HETATM   36  F1  UNL     1     -15.829   8.028  47.583  1.00  0.00    -0.247 F 
BRANCH  35  37
HETATM   37  C14 UNL     1     -13.647   7.323  47.741  1.00  0.00     0.060 C 
HETATM   38  C15 UNL     1     -12.844   7.668  48.942  1.00  0.00     0.035 C 
HETATM   39  C16 UNL     1     -13.708   8.591  46.865  1.00  0.00     0.035 C 
HETATM   40 CL1  UNL     1     -12.776   6.121  46.711  1.00  0.00    -0.117 Cl
ENDBRANCH  35  37
ENDBRANCH  34  35
ENDBRANCH  33  34
ENDBRANCH  32  33
ENDBRANCH  28  32
ENDBRANCH   1  25
TORSDOF 16
ENDMDL
MODEL 5
REMARK VINA RESULT: -6.084782924      2.874      4.313
REMARK  16 active torsions:
REMARK  status: ('A' for Active; 'I' for Inactive)
REMARK    1  A    between atoms: C2_2  and  N1_3 
REMARK    2  A    between atoms: C2_2  and  O4_32 
REMARK       I    between atoms: N1_3  and  C3_5 
REMARK    3  A    between atoms: C3_5  and  C4_7 
REMARK    4  A    between atoms: C4_7  and  C6_9 
REMARK    5  A    between atoms: C4_7  and  N3_16 
REMARK    6  A    between atoms: C6_9  and  C7_10 
REMARK    7  A    between atoms: C7_10  and  C8_11 
REMARK    8  A    between atoms: C8_11  and  N2_12 
REMARK    9  A    between atoms: N3_16  and  O2_17 
REMARK       I    between atoms: N3_16  and  C9_19 
REMARK       I    between atoms: C9_19  and  N4_21 
REMARK   10  A    between atoms: N4_21  and  C10_23 
REMARK   11  A    between atoms: C10_23  and  C11_24 
REMARK   12  A    between atoms: C11_24  and  C12_25 
REMARK   13  A    between atoms: C12_25  and  C13_26 
REMARK   14  A    between atoms: C13_26  and  C14_28 
REMARK   15  A    between atoms: O4_32  and  C17_33 
REMARK   16  A    between atoms: C17_33  and  C18_35 
ROOT
HETATM    1  C4  UNL     1     -12.795   8.474  43.290  1.00  0.00     0.141 C 
HETATM    2  C5  UNL     1     -14.098   9.161  43.557  1.00  0.00     0.052 C 
ENDROOT
BRANCH   1   3
HETATM    3  C3  UNL     1     -11.910   8.605  44.498  1.00  0.00     0.250 C 
HETATM    4  N1  UNL     1     -11.757   7.592  45.451  1.00  0.00    -0.332 N 
ATOM      5  H1  UNL     1     -12.273   6.722  45.320  1.00  0.00     0.165 HD
HETATM    6  O1  UNL     1     -11.288   9.684  44.636  1.00  0.00    -0.271 OA
BRANCH   4   7
HETATM    7  C2  UNL     1     -10.909   7.714  46.607  1.00  0.00     0.228 C 
HETATM    8  C1  UNL     1     -11.805   7.771  47.858  1.00  0.00     0.063 C 
BRANCH   7   9
HETATM    9  O4  UNL     1     -10.039   6.648  46.802  1.00  0.00    -0.295 OA
BRANCH   9  10
HETATM   10  C17 UNL     1      -8.823   6.447  46.151  1.00  0.00     0.265 C 
HETATM   11  O5  UNL     1      -8.680   7.048  45.057  1.00  0.00    -0.265 OA
BRANCH  10  12
HETATM   12  C18 UNL     1      -7.750   5.597  46.673  1.00  0.00     0.085 C 
HETATM   13  C19 UNL     1      -7.922   4.142  46.308  1.00  0.00     0.014 C 
HETATM   14  C20 UNL     1      -7.165   3.772  45.065  1.00  0.00     0.001 C 
HETATM   15  C21 UNL     1      -5.681   3.778  45.400  1.00  0.00     0.000 C 
HETATM   16  C22 UNL     1      -5.447   4.842  46.460  1.00  0.00     0.001 C 
HETATM   17  C23 UNL     1      -6.375   6.033  46.219  1.00  0.00     0.014 C 
ENDBRANCH  10  12
ENDBRANCH   9  10
ENDBRANCH   7   9
ENDBRANCH   4   7
ENDBRANCH   1   3
BRANCH   1  18
HETATM   18  C6  UNL     1     -12.110   9.100  42.094  1.00  0.00     0.045 C 
BRANCH  18  19
HETATM   19  C7  UNL     1     -13.036   9.758  41.129  1.00  0.00     0.030 C 
BRANCH  19  20
HETATM   20  C8  UNL     1     -13.239   8.836  39.936  1.00  0.00     0.230 C 
BRANCH  20  21
HETATM   21  N2  UNL     1     -12.683   9.383  38.729  1.00  0.00    -0.079 N 
ATOM     22  H23 UNL     1     -12.436   8.646  38.069  1.00  0.00     0.274 HD
ATOM     23  H22 UNL     1     -13.396   9.861  38.177  1.00  0.00     0.274 HD
ATOM     24  H21 UNL     1     -11.888   9.995  38.914  1.00  0.00     0.274 HD
ENDBRANCH  20  21
ENDBRANCH  19  20
ENDBRANCH  18  19
ENDBRANCH   1  18
BRANCH   1  25
HETATM   25  N3  UNL     1     -12.975   7.083  43.051  1.00  0.00    -0.191 N 
HETATM   26  C9  UNL     1     -14.004   6.287  43.564  1.00  0.00     0.343 C 
HETATM   27  O3  UNL     1     -14.061   5.043  43.199  1.00  0.00    -0.245 OA
HETATM   28  N4  UNL     1     -15.021   6.684  44.461  1.00  0.00    -0.341 N 
ATOM     29  H4  UNL     1     -15.074   7.636  44.822  1.00  0.00     0.164 HD
BRANCH  25  30
HETATM   30  O2  UNL     1     -12.058   6.450  42.241  1.00  0.00    -0.282 OA
ATOM     31  H2  UNL     1     -11.834   6.869  41.418  1.00  0.00     0.245 HD
ENDBRANCH  25  30
BRANCH  28  32
HETATM   32  C10 UNL     1     -16.002   5.651  44.851  1.00  0.00     0.124 C 
BRANCH  32  33
HETATM   33  C11 UNL     1     -15.651   5.103  46.219  1.00  0.00     0.022 C 
BRANCH  33  34
HETATM   34  C12 UNL     1     -15.473   6.173  47.235  1.00  0.00     0.041 C 
BRANCH  34  35
HETATM   35  C13 UNL     1     -16.613   6.437  48.162  1.00  0.00     0.192 C 
HETATM   36  F1  UNL     1     -17.471   5.293  47.956  1.00  0.00    -0.247 F 
BRANCH  35  37
HETATM   37  C14 UNL     1     -17.496   7.586  47.807  1.00  0.00     0.060 C 
HETATM   38  C15 UNL     1     -18.553   7.363  46.787  1.00  0.00     0.035 C 
HETATM   39  C16 UNL     1     -16.586   8.709  47.270  1.00  0.00     0.035 C 
HETATM   40 CL1  UNL     1     -18.202   8.282  49.318  1.00  0.00    -0.117 Cl
ENDBRANCH  35  37
ENDBRANCH  34  35
ENDBRANCH  33  34
ENDBRANCH  32  33
ENDBRANCH  28  32
ENDBRANCH   1  25
TORSDOF 16
ENDMDL
