MODEL 1
REMARK VINA RESULT: -7.462331103      0.000      0.000
REMARK  14 active torsions:
REMARK  status: ('A' for Active; 'I' for Inactive)
REMARK    1  A    between atoms: C2_2  and  O1_3 
REMARK    2  A    between atoms: C2_2  and  C3_5 
REMARK    3  A    between atoms: C3_5  and  N1_6 
REMARK    4  A    between atoms: C3_5  and  C15_20 
REMARK       I    between atoms: N1_6  and  C4_8 
REMARK    5  A    between atoms: C4_8  and  C5_10 
REMARK    6  A    between atoms: C5_10  and  C6_11 
REMARK    7  A    between atoms: C6_11  and  C7_12 
REMARK    8  A    between atoms: C7_12  and  C8_13 
REMARK    9  A    between atoms: C8_13  and  C9_14 
REMARK   10  A    between atoms: C15_20  and  O3_21 
REMARK   11  A    between atoms: C15_20  and  C16_23 
REMARK   12  A    between atoms: C16_23  and  N2_24 
REMARK   13  A    between atoms: C19_27  and  N3_28 
REMARK   14  A    between atoms: N3_28  and  C20_30 
ROOT
HETATM    1  C20 UNL     1     -18.709   6.960  48.587  1.00  0.00     0.178 C 
HETATM    2  C21 UNL     1     -20.030   6.472  48.290  1.00  0.00     0.104 C 
HETATM    3  N4  UNL     1     -21.095   6.064  48.078  1.00  0.00    -0.191 NA
ENDROOT
BRANCH   1   4
HETATM    4  N3  UNL     1     -17.726   6.842  47.603  1.00  0.00    -0.385 N 
ATOM      5  H3  UNL     1     -17.816   7.401  46.754  1.00  0.00     0.160 HD
BRANCH   4   6
HETATM    6  C19 UNL     1     -16.621   5.989  47.732  1.00  0.00     0.093 C 
HETATM    7  C18 UNL     1     -15.577   6.321  48.747  1.00  0.00     0.056 C 
HETATM    8  C17 UNL     1     -14.870   7.582  48.318  1.00  0.00     0.274 C 
HETATM    9  N2  UNL     1     -14.079   7.348  47.106  1.00  0.00     0.091 N 
HETATM   10  C27 UNL     1     -14.450   6.151  46.442  1.00  0.00     0.284 C 
HETATM   11  C22 UNL     1     -15.934   5.861  46.372  1.00  0.00     0.012 C 
HETATM   12  C23 UNL     1     -16.083   4.438  45.888  1.00  0.00     0.019 C 
HETATM   13  C26 UNL     1     -16.595   6.643  45.291  1.00  0.00     0.092 C 
HETATM   14  C24 UNL     1     -15.656   4.565  44.441  1.00  0.00     0.080 C 
HETATM   15  C25 UNL     1     -16.282   5.860  44.014  1.00  0.00     0.244 C 
HETATM   16  F1  UNL     1     -15.440   6.539  43.188  1.00  0.00    -0.206 F 
HETATM   17  F2  UNL     1     -17.496   5.527  43.405  1.00  0.00    -0.206 F 
BRANCH   9  18
HETATM   18  C16 UNL     1     -12.673   7.364  47.421  1.00  0.00     0.306 C 
BRANCH  18  19
HETATM   19  C15 UNL     1     -11.823   7.918  46.348  1.00  0.00     0.171 C 
BRANCH  19  20
HETATM   20  C3  UNL     1     -11.540   9.410  46.475  1.00  0.00     0.143 C 
BRANCH  20  21
HETATM   21  C2  UNL     1     -10.123   9.673  46.034  1.00  0.00     0.139 C 
HETATM   22  C1  UNL     1      -9.560  10.902  46.740  1.00  0.00     0.041 C 
BRANCH  21  23
HETATM   23  O1  UNL     1      -9.969   9.773  44.659  1.00  0.00    -0.394 OA
ATOM     24  H1  UNL     1     -10.560   9.185  44.205  1.00  0.00     0.210 HD
ENDBRANCH  21  23
ENDBRANCH  20  21
BRANCH  20  25
HETATM   25  N1  UNL     1     -12.509  10.081  45.662  1.00  0.00    -0.351 N 
HETATM   26  C4  UNL     1     -13.621  10.800  46.164  1.00  0.00     0.218 C 
HETATM   27  O2  UNL     1     -13.769  10.860  47.403  1.00  0.00    -0.274 OA
ATOM     28  H1  UNL     1     -12.389  10.039  44.650  1.00  0.00     0.163 HD
BRANCH  26  29
HETATM   29  C5  UNL     1     -14.602  11.467  45.285  1.00  0.00     0.103 C 
BRANCH  29  30
HETATM   30  C6  UNL     1     -14.061  12.041  44.033  1.00  0.00     0.009 C 
BRANCH  30  31
HETATM   31  C7  UNL     1     -14.593  11.515  42.746  1.00  0.00     0.001 C 
BRANCH  31  32
HETATM   32  C8  UNL     1     -14.094  10.126  42.506  1.00  0.00     0.004 C 
BRANCH  32  33
HETATM   33  C9  UNL     1     -12.810  10.002  41.775  1.00  0.00    -0.014 C 
HETATM   34  C10 UNL     1     -12.088   8.707  42.165  1.00  0.00     0.004 C 
HETATM   35  C11 UNL     1     -12.817   7.577  41.484  1.00  0.00     0.000 C 
HETATM   36  C12 UNL     1     -12.805   7.709  40.012  1.00  0.00     0.000 C 
HETATM   37  C13 UNL     1     -13.169   9.042  39.467  1.00  0.00     0.000 C 
HETATM   38  C14 UNL     1     -12.843  10.210  40.322  1.00  0.00     0.004 C 
ENDBRANCH  32  33
ENDBRANCH  31  32
ENDBRANCH  30  31
ENDBRANCH  29  30
ENDBRANCH  26  29
ENDBRANCH  20  25
ENDBRANCH  19  20
BRANCH  19  39
HETATM   39  O3  UNL     1     -10.724   7.198  45.949  1.00  0.00    -0.392 OA
ATOM     40  H3  UNL     1     -10.865   6.258  45.983  1.00  0.00     0.210 HD
ENDBRANCH  19  39
ENDBRANCH  18  19
ENDBRANCH   9  18
ENDBRANCH   4   6
ENDBRANCH   1   4
TORSDOF 14
ENDMDL
MODEL 2
REMARK VINA RESULT: -7.436599437      1.385      2.920
REMARK  14 active torsions:
REMARK  status: ('A' for Active; 'I' for Inactive)
REMARK    1  A    between atoms: C2_2  and  O1_3 
REMARK    2  A    between atoms: C2_2  and  C3_5 
REMARK    3  A    between atoms: C3_5  and  N1_6 
REMARK    4  A    between atoms: C3_5  and  C15_20 
REMARK       I    between atoms: N1_6  and  C4_8 
REMARK    5  A    between atoms: C4_8  and  C5_10 
REMARK    6  A    between atoms: C5_10  and  C6_11 
REMARK    7  A    between atoms: C6_11  and  C7_12 
REMARK    8  A    between atoms: C7_12  and  C8_13 
REMARK    9  A    between atoms: C8_13  and  C9_14 
REMARK   10  A    between atoms: C15_20  and  O3_21 
REMARK   11  A    between atoms: C15_20  and  C16_23 
REMARK   12  A    between atoms: C16_23  and  N2_24 
REMARK   13  A    between atoms: C19_27  and  N3_28 
REMARK   14  A    between atoms: N3_28  and  C20_30 
ROOT
HETATM    1  C20 UNL     1     -18.592   6.860  48.405  1.00  0.00     0.178 C 
HETATM    2  C21 UNL     1     -19.980   6.529  48.218  1.00  0.00     0.104 C 
HETATM    3  N4  UNL     1     -21.098   6.248  48.096  1.00  0.00    -0.191 NA
ENDROOT
BRANCH   1   4
HETATM    4  N3  UNL     1     -17.703   6.587  47.365  1.00  0.00    -0.385 N 
ATOM      5  H3  UNL     1     -18.079   6.425  46.431  1.00  0.00     0.160 HD
BRANCH   4   6
HETATM    6  C19 UNL     1     -16.315   6.525  47.550  1.00  0.00     0.093 C 
HETATM    7  C18 UNL     1     -15.611   7.727  48.087  1.00  0.00     0.056 C 
HETATM    8  C17 UNL     1     -15.676   8.826  47.058  1.00  0.00     0.274 C 
HETATM    9  N2  UNL     1     -14.875   8.483  45.879  1.00  0.00     0.091 N 
HETATM   10  C27 UNL     1     -14.551   7.103  45.829  1.00  0.00     0.284 C 
HETATM   11  C22 UNL     1     -15.655   6.146  46.222  1.00  0.00     0.012 C 
HETATM   12  C23 UNL     1     -15.026   4.781  46.368  1.00  0.00     0.019 C 
HETATM   13  C26 UNL     1     -16.624   5.939  45.110  1.00  0.00     0.092 C 
HETATM   14  C24 UNL     1     -14.722   4.433  44.927  1.00  0.00     0.080 C 
HETATM   15  C25 UNL     1     -15.936   4.924  44.195  1.00  0.00     0.244 C 
HETATM   16  F1  UNL     1     -15.577   5.470  43.001  1.00  0.00    -0.206 F 
HETATM   17  F2  UNL     1     -16.785   3.822  44.060  1.00  0.00    -0.206 F 
BRANCH   9  18
HETATM   18  C16 UNL     1     -13.692   9.306  45.827  1.00  0.00     0.306 C 
BRANCH  18  19
HETATM   19  C15 UNL     1     -13.192   9.724  47.152  1.00  0.00     0.171 C 
BRANCH  19  20
HETATM   20  C3  UNL     1     -11.781   9.248  47.472  1.00  0.00     0.143 C 
BRANCH  20  21
HETATM   21  C2  UNL     1     -11.815   8.457  48.755  1.00  0.00     0.139 C 
HETATM   22  C1  UNL     1     -11.991   6.970  48.466  1.00  0.00     0.041 C 
BRANCH  21  23
HETATM   23  O1  UNL     1     -12.760   8.904  49.667  1.00  0.00    -0.394 OA
ATOM     24  H1  UNL     1     -12.642   9.826  49.860  1.00  0.00     0.210 HD
ENDBRANCH  21  23
ENDBRANCH  20  21
BRANCH  20  25
HETATM   25  N1  UNL     1     -11.347   8.470  46.351  1.00  0.00    -0.351 N 
HETATM   26  C4  UNL     1     -10.543   8.961  45.294  1.00  0.00     0.218 C 
HETATM   27  O2  UNL     1     -10.179  10.154  45.340  1.00  0.00    -0.274 OA
ATOM     28  H1  UNL     1     -11.638   7.493  46.312  1.00  0.00     0.163 HD
BRANCH  26  29
HETATM   29  C5  UNL     1     -10.130   8.122  44.151  1.00  0.00     0.103 C 
BRANCH  29  30
HETATM   30  C6  UNL     1     -10.942   8.260  42.922  1.00  0.00     0.009 C 
BRANCH  30  31
HETATM   31  C7  UNL     1     -12.291   7.630  42.913  1.00  0.00     0.001 C 
BRANCH  31  32
HETATM   32  C8  UNL     1     -13.274   8.514  42.212  1.00  0.00     0.004 C 
BRANCH  32  33
HETATM   33  C9  UNL     1     -12.859   9.921  41.996  1.00  0.00    -0.014 C 
HETATM   34  C10 UNL     1     -12.816  10.248  40.499  1.00  0.00     0.004 C 
HETATM   35  C11 UNL     1     -14.245  10.387  40.039  1.00  0.00     0.000 C 
HETATM   36  C12 UNL     1     -14.959  11.470  40.747  1.00  0.00     0.000 C 
HETATM   37  C13 UNL     1     -14.824  11.490  42.227  1.00  0.00     0.000 C 
HETATM   38  C14 UNL     1     -13.555  10.952  42.776  1.00  0.00     0.004 C 
ENDBRANCH  32  33
ENDBRANCH  31  32
ENDBRANCH  30  31
ENDBRANCH  29  30
ENDBRANCH  26  29
ENDBRANCH  20  25
ENDBRANCH  19  20
BRANCH  19  39
HETATM   39  O3  UNL     1     -13.428  11.013  47.561  1.00  0.00    -0.392 OA
ATOM     40  H3  UNL     1     -13.964  11.504  46.949  1.00  0.00     0.210 HD
ENDBRANCH  19  39
ENDBRANCH  18  19
ENDBRANCH   9  18
ENDBRANCH   4   6
ENDBRANCH   1   4
TORSDOF 14
ENDMDL
MODEL 3
REMARK VINA RESULT: -7.308461540      2.925      6.587
REMARK  14 active torsions:
REMARK  status: ('A' for Active; 'I' for Inactive)
REMARK    1  A    between atoms: C2_2  and  O1_3 
REMARK    2  A    between atoms: C2_2  and  C3_5 
REMARK    3  A    between atoms: C3_5  and  N1_6 
REMARK    4  A    between atoms: C3_5  and  C15_20 
REMARK       I    between atoms: N1_6  and  C4_8 
REMARK    5  A    between atoms: C4_8  and  C5_10 
REMARK    6  A    between atoms: C5_10  and  C6_11 
REMARK    7  A    between atoms: C6_11  and  C7_12 
REMARK    8  A    between atoms: C7_12  and  C8_13 
REMARK    9  A    between atoms: C8_13  and  C9_14 
REMARK   10  A    between atoms: C15_20  and  O3_21 
REMARK   11  A    between atoms: C15_20  and  C16_23 
REMARK   12  A    between atoms: C16_23  and  N2_24 
REMARK   13  A    between atoms: C19_27  and  N3_28 
REMARK   14  A    between atoms: N3_28  and  C20_30 
ROOT
HETATM    1  C20 UNL     1     -10.994  11.041  47.908  1.00  0.00     0.178 C 
HETATM    2  C21 UNL     1     -10.210  10.835  46.719  1.00  0.00     0.104 C 
HETATM    3  N4  UNL     1      -9.579  10.701  45.756  1.00  0.00    -0.191 NA
ENDROOT
BRANCH   1   4
HETATM    4  N3  UNL     1     -12.109  10.228  48.112  1.00  0.00    -0.385 N 
ATOM      5  H3  UNL     1     -12.408  10.038  49.069  1.00  0.00     0.160 HD
BRANCH   4   6
HETATM    6  C19 UNL     1     -12.837   9.659  47.057  1.00  0.00     0.093 C 
HETATM    7  C18 UNL     1     -14.108  10.315  46.630  1.00  0.00     0.056 C 
HETATM    8  C17 UNL     1     -15.122  10.172  47.737  1.00  0.00     0.274 C 
HETATM    9  N2  UNL     1     -15.521   8.771  47.899  1.00  0.00     0.091 N 
HETATM   10  C27 UNL     1     -14.622   7.877  47.263  1.00  0.00     0.284 C 
HETATM   11  C22 UNL     1     -13.151   8.202  47.401  1.00  0.00     0.012 C 
HETATM   12  C23 UNL     1     -12.408   7.308  46.436  1.00  0.00     0.019 C 
HETATM   13  C26 UNL     1     -12.615   7.770  48.721  1.00  0.00     0.092 C 
HETATM   14  C24 UNL     1     -12.559   5.956  47.101  1.00  0.00     0.080 C 
HETATM   15  C25 UNL     1     -12.369   6.269  48.556  1.00  0.00     0.244 C 
HETATM   16  F1  UNL     1     -13.218   5.522  49.313  1.00  0.00    -0.206 F 
HETATM   17  F2  UNL     1     -11.022   6.021  48.837  1.00  0.00    -0.206 F 
BRANCH   9  18
HETATM   18  C16 UNL     1     -16.871   8.583  47.433  1.00  0.00     0.306 C 
BRANCH  18  19
HETATM   19  C15 UNL     1     -17.748   7.885  48.395  1.00  0.00     0.171 C 
BRANCH  19  20
HETATM   20  C3  UNL     1     -18.441   6.650  47.834  1.00  0.00     0.143 C 
BRANCH  20  21
HETATM   21  C2  UNL     1     -19.915   6.744  48.133  1.00  0.00     0.139 C 
HETATM   22  C1  UNL     1     -20.356   5.595  49.034  1.00  0.00     0.041 C 
BRANCH  21  23
HETATM   23  O1  UNL     1     -20.716   6.828  47.004  1.00  0.00    -0.394 OA
ATOM     24  H1  UNL     1     -20.246   6.543  46.229  1.00  0.00     0.210 HD
ENDBRANCH  21  23
ENDBRANCH  20  21
BRANCH  20  25
HETATM   25  N1  UNL     1     -18.159   6.623  46.431  1.00  0.00    -0.351 N 
HETATM   26  C4  UNL     1     -17.205   5.776  45.817  1.00  0.00     0.218 C 
HETATM   27  O2  UNL     1     -16.565   4.990  46.547  1.00  0.00    -0.274 OA
ATOM     28  H1  UNL     1     -18.683   7.260  45.830  1.00  0.00     0.163 HD
BRANCH  26  29
HETATM   29  C5  UNL     1     -16.940   5.792  44.365  1.00  0.00     0.103 C 
BRANCH  29  30
HETATM   30  C6  UNL     1     -15.820   4.942  43.904  1.00  0.00     0.009 C 
BRANCH  30  31
HETATM   31  C7  UNL     1     -14.463   5.552  43.861  1.00  0.00     0.001 C 
BRANCH  31  32
HETATM   32  C8  UNL     1     -14.448   6.726  42.936  1.00  0.00     0.004 C 
BRANCH  32  33
HETATM   33  C9  UNL     1     -13.263   7.614  43.014  1.00  0.00    -0.014 C 
HETATM   34  C10 UNL     1     -12.395   7.469  41.758  1.00  0.00     0.004 C 
HETATM   35  C11 UNL     1     -13.112   8.189  40.644  1.00  0.00     0.000 C 
HETATM   36  C12 UNL     1     -13.300   9.626  40.935  1.00  0.00     0.000 C 
HETATM   37  C13 UNL     1     -13.837   9.960  42.280  1.00  0.00     0.000 C 
HETATM   38  C14 UNL     1     -13.498   9.017  43.374  1.00  0.00     0.004 C 
ENDBRANCH  32  33
ENDBRANCH  31  32
ENDBRANCH  30  31
ENDBRANCH  29  30
ENDBRANCH  26  29
ENDBRANCH  20  25
ENDBRANCH  19  20
BRANCH  19  39
HETATM   39  O3  UNL     1     -17.296   7.709  49.679  1.00  0.00    -0.392 OA
ATOM     40  H3  UNL     1     -17.734   8.272  50.307  1.00  0.00     0.210 HD
ENDBRANCH  19  39
ENDBRANCH  18  19
ENDBRANCH   9  18
ENDBRANCH   4   6
ENDBRANCH   1   4
TORSDOF 14
ENDMDL
MODEL 4
REMARK VINA RESULT: -7.264148170      2.896      6.616
REMARK  14 active torsions:
REMARK  status: ('A' for Active; 'I' for Inactive)
REMARK    1  A    between atoms: C2_2  and  O1_3 
REMARK    2  A    between atoms: C2_2  and  C3_5 
REMARK    3  A    between atoms: C3_5  and  N1_6 
REMARK    4  A    between atoms: C3_5  and  C15_20 
REMARK       I    between atoms: N1_6  and  C4_8 
REMARK    5  A    between atoms: C4_8  and  C5_10 
REMARK    6  A    between atoms: C5_10  and  C6_11 
REMARK    7  A    between atoms: C6_11  and  C7_12 
REMARK    8  A    between atoms: C7_12  and  C8_13 
REMARK    9  A    between atoms: C8_13  and  C9_14 
REMARK   10  A    between atoms: C15_20  and  O3_21 
REMARK   11  A    between atoms: C15_20  and  C16_23 
REMARK   12  A    between atoms: C16_23  and  N2_24 
REMARK   13  A    between atoms: C19_27  and  N3_28 
REMARK   14  A    between atoms: N3_28  and  C20_30 
ROOT
HETATM    1  C20 UNL     1     -13.689  11.140  39.529  1.00  0.00     0.178 C 
HETATM    2  C21 UNL     1     -12.812  11.960  38.736  1.00  0.00     0.104 C 
HETATM    3  N4  UNL     1     -12.110  12.602  38.072  1.00  0.00    -0.191 NA
ENDROOT
BRANCH   1   4
HETATM    4  N3  UNL     1     -13.251  10.734  40.790  1.00  0.00    -0.385 N 
ATOM      5  H3  UNL     1     -12.251  10.752  40.989  1.00  0.00     0.160 HD
BRANCH   4   6
HETATM    6  C19 UNL     1     -14.127  10.302  41.795  1.00  0.00     0.093 C 
HETATM    7  C18 UNL     1     -14.907  11.326  42.553  1.00  0.00     0.056 C 
HETATM    8  C17 UNL     1     -13.952  12.140  43.388  1.00  0.00     0.274 C 
HETATM    9  N2  UNL     1     -13.369  11.324  44.457  1.00  0.00     0.091 N 
HETATM   10  C27 UNL     1     -13.544   9.934  44.230  1.00  0.00     0.284 C 
HETATM   11  C22 UNL     1     -13.345   9.462  42.807  1.00  0.00     0.012 C 
HETATM   12  C23 UNL     1     -13.845   8.038  42.740  1.00  0.00     0.019 C 
HETATM   13  C26 UNL     1     -11.901   9.315  42.473  1.00  0.00     0.092 C 
HETATM   14  C24 UNL     1     -12.780   7.307  43.530  1.00  0.00     0.080 C 
HETATM   15  C25 UNL     1     -11.510   7.966  43.079  1.00  0.00     0.244 C 
HETATM   16  F1  UNL     1     -10.653   8.103  44.127  1.00  0.00    -0.206 F 
HETATM   17  F2  UNL     1     -10.996   7.167  42.053  1.00  0.00    -0.206 F 
BRANCH   9  18
HETATM   18  C16 UNL     1     -13.905  11.723  45.734  1.00  0.00     0.306 C 
BRANCH  18  19
HETATM   19  C15 UNL     1     -12.894  11.818  46.807  1.00  0.00     0.171 C 
BRANCH  19  20
HETATM   20  C3  UNL     1     -11.943  10.630  46.883  1.00  0.00     0.143 C 
BRANCH  20  21
HETATM   21  C2  UNL     1     -10.551  11.142  47.153  1.00  0.00     0.139 C 
HETATM   22  C1  UNL     1      -9.532  10.415  46.283  1.00  0.00     0.041 C 
BRANCH  21  23
HETATM   23  O1  UNL     1     -10.185  11.101  48.491  1.00  0.00    -0.394 OA
ATOM     24  H1  UNL     1     -10.670  11.740  48.998  1.00  0.00     0.210 HD
ENDBRANCH  21  23
ENDBRANCH  20  21
BRANCH  20  25
HETATM   25  N1  UNL     1     -12.433   9.778  47.923  1.00  0.00    -0.351 N 
HETATM   26  C4  UNL     1     -12.363   8.363  47.904  1.00  0.00     0.218 C 
HETATM   27  O2  UNL     1     -11.831   7.817  46.916  1.00  0.00    -0.274 OA
ATOM     28  H1  UNL     1     -12.864  10.221  48.735  1.00  0.00     0.163 HD
BRANCH  26  29
HETATM   29  C5  UNL     1     -12.894   7.524  48.997  1.00  0.00     0.103 C 
BRANCH  29  30
HETATM   30  C6  UNL     1     -14.130   6.771  48.689  1.00  0.00     0.009 C 
BRANCH  30  31
HETATM   31  C7  UNL     1     -15.187   7.468  47.905  1.00  0.00     0.001 C 
BRANCH  31  32
HETATM   32  C8  UNL     1     -15.221   6.952  46.502  1.00  0.00     0.004 C 
BRANCH  32  33
HETATM   33  C9  UNL     1     -15.816   5.608  46.307  1.00  0.00    -0.014 C 
HETATM   34  C10 UNL     1     -16.965   5.667  45.295  1.00  0.00     0.004 C 
HETATM   35  C11 UNL     1     -16.341   5.811  43.930  1.00  0.00     0.000 C 
HETATM   36  C12 UNL     1     -15.463   4.671  43.593  1.00  0.00     0.000 C 
HETATM   37  C13 UNL     1     -14.486   4.262  44.636  1.00  0.00     0.000 C 
HETATM   38  C14 UNL     1     -14.893   4.498  46.043  1.00  0.00     0.004 C 
ENDBRANCH  32  33
ENDBRANCH  31  32
ENDBRANCH  30  31
ENDBRANCH  29  30
ENDBRANCH  26  29
ENDBRANCH  20  25
ENDBRANCH  19  20
BRANCH  19  39
HETATM   39  O3  UNL     1     -12.264  13.022  47.004  1.00  0.00    -0.392 OA
ATOM     40  H3  UNL     1     -12.821  13.666  47.426  1.00  0.00     0.210 HD
ENDBRANCH  19  39
ENDBRANCH  18  19
ENDBRANCH   9  18
ENDBRANCH   4   6
ENDBRANCH   1   4
TORSDOF 14
ENDMDL
MODEL 5
REMARK VINA RESULT: -7.251051361      2.846      6.367
REMARK  14 active torsions:
REMARK  status: ('A' for Active; 'I' for Inactive)
REMARK    1  A    between atoms: C2_2  and  O1_3 
REMARK    2  A    between atoms: C2_2  and  C3_5 
REMARK    3  A    between atoms: C3_5  and  N1_6 
REMARK    4  A    between atoms: C3_5  and  C15_20 
REMARK       I    between atoms: N1_6  and  C4_8 
REMARK    5  A    between atoms: C4_8  and  C5_10 
REMARK    6  A    between atoms: C5_10  and  C6_11 
REMARK    7  A    between atoms: C6_11  and  C7_12 
REMARK    8  A    between atoms: C7_12  and  C8_13 
REMARK    9  A    between atoms: C8_13  and  C9_14 
REMARK   10  A    between atoms: C15_20  and  O3_21 
REMARK   11  A    between atoms: C15_20  and  C16_23 
REMARK   12  A    between atoms: C16_23  and  N2_24 
REMARK   13  A    between atoms: C19_27  and  N3_28 
REMARK   14  A    between atoms: N3_28  and  C20_30 
ROOT
HETATM    1  C20 UNL     1      -9.860   5.829  47.139  1.00  0.00     0.178 C 
HETATM    2  C21 UNL     1      -9.648   4.619  47.888  1.00  0.00     0.104 C 
HETATM    3  N4  UNL     1      -9.462   3.632  48.468  1.00  0.00    -0.191 NA
ENDROOT
BRANCH   1   4
HETATM    4  N3  UNL     1     -11.148   6.365  47.101  1.00  0.00    -0.385 N 
ATOM      5  H3  UNL     1     -11.688   6.278  46.240  1.00  0.00     0.160 HD
BRANCH   4   6
HETATM    6  C19 UNL     1     -11.730   7.018  48.196  1.00  0.00     0.093 C 
HETATM    7  C18 UNL     1     -12.616   6.234  49.107  1.00  0.00     0.056 C 
HETATM    8  C17 UNL     1     -13.864   5.848  48.355  1.00  0.00     0.274 C 
HETATM    9  N2  UNL     1     -14.677   7.031  48.053  1.00  0.00     0.091 N 
HETATM   10  C27 UNL     1     -13.948   8.238  48.201  1.00  0.00     0.284 C 
HETATM   11  C22 UNL     1     -12.524   8.224  47.688  1.00  0.00     0.012 C 
HETATM   12  C23 UNL     1     -11.861   9.484  48.190  1.00  0.00     0.019 C 
HETATM   13  C26 UNL     1     -12.471   8.395  46.210  1.00  0.00     0.092 C 
HETATM   14  C24 UNL     1     -12.550  10.542  47.354  1.00  0.00     0.080 C 
HETATM   15  C25 UNL     1     -12.636   9.902  45.999  1.00  0.00     0.244 C 
HETATM   16  F1  UNL     1     -13.820  10.212  45.407  1.00  0.00    -0.206 F 
HETATM   17  F2  UNL     1     -11.527  10.358  45.280  1.00  0.00    -0.206 F 
BRANCH   9  18
HETATM   18  C16 UNL     1     -15.870   7.031  48.862  1.00  0.00     0.306 C 
BRANCH  18  19
HETATM   19  C15 UNL     1     -17.062   7.568  48.175  1.00  0.00     0.171 C 
BRANCH  19  20
HETATM   20  C3  UNL     1     -17.969   6.507  47.565  1.00  0.00     0.143 C 
BRANCH  20  21
HETATM   21  C2  UNL     1     -19.399   6.840  47.904  1.00  0.00     0.139 C 
HETATM   22  C1  UNL     1     -19.936   5.886  48.966  1.00  0.00     0.041 C 
BRANCH  21  23
HETATM   23  O1  UNL     1     -20.243   6.888  46.804  1.00  0.00    -0.394 OA
ATOM     24  H1  UNL     1     -20.209   7.739  46.383  1.00  0.00     0.210 HD
ENDBRANCH  21  23
ENDBRANCH  20  21
BRANCH  20  25
HETATM   25  N1  UNL     1     -17.716   6.512  46.156  1.00  0.00    -0.351 N 
HETATM   26  C4  UNL     1     -16.883   5.584  45.484  1.00  0.00     0.218 C 
HETATM   27  O2  UNL     1     -16.332   4.693  46.164  1.00  0.00    -0.274 OA
ATOM     28  H1  UNL     1     -18.168   7.235  45.596  1.00  0.00     0.163 HD
BRANCH  26  29
HETATM   29  C5  UNL     1     -16.642   5.637  44.028  1.00  0.00     0.103 C 
BRANCH  29  30
HETATM   30  C6  UNL     1     -15.290   5.234  43.583  1.00  0.00     0.009 C 
BRANCH  30  31
HETATM   31  C7  UNL     1     -14.182   6.209  43.772  1.00  0.00     0.001 C 
BRANCH  31  32
HETATM   32  C8  UNL     1     -14.352   7.376  42.852  1.00  0.00     0.004 C 
BRANCH  32  33
HETATM   33  C9  UNL     1     -13.147   8.204  42.606  1.00  0.00    -0.014 C 
HETATM   34  C10 UNL     1     -12.245   7.546  41.554  1.00  0.00     0.004 C 
HETATM   35  C11 UNL     1     -12.908   7.753  40.217  1.00  0.00     0.000 C 
HETATM   36  C12 UNL     1     -13.067   9.185  39.886  1.00  0.00     0.000 C 
HETATM   37  C13 UNL     1     -13.636  10.048  40.953  1.00  0.00     0.000 C 
HETATM   38  C14 UNL     1     -13.356   9.634  42.349  1.00  0.00     0.004 C 
ENDBRANCH  32  33
ENDBRANCH  31  32
ENDBRANCH  30  31
ENDBRANCH  29  30
ENDBRANCH  26  29
ENDBRANCH  20  25
ENDBRANCH  19  20
BRANCH  19  39
HETATM   39  O3  UNL     1     -17.759   8.586  48.778  1.00  0.00    -0.392 OA
ATOM     40  H3  UNL     1     -17.422   9.447  48.559  1.00  0.00     0.210 HD
ENDBRANCH  19  39
ENDBRANCH  18  19
ENDBRANCH   9  18
ENDBRANCH   4   6
ENDBRANCH   1   4
TORSDOF 14
ENDMDL
