MODEL 1
REMARK VINA RESULT: -6.223672776      0.000      0.000
REMARK  16 active torsions:
REMARK  status: ('A' for Active; 'I' for Inactive)
REMARK    1  A    between atoms: C2_2  and  C3_3 
REMARK    2  A    between atoms: C3_3  and  C4_4 
REMARK    3  A    between atoms: C4_4  and  O1_5 
REMARK    4  A    between atoms: O1_5  and  C5_6 
REMARK    5  A    between atoms: C8_9  and  C9_10 
REMARK    6  A    between atoms: C10_11  and  O2_12 
REMARK    7  A    between atoms: C11_14  and  O3_15 
REMARK    8  A    between atoms: C12_17  and  O4_18 
REMARK    9  A    between atoms: N1_21  and  C14_22 
REMARK   10  A    between atoms: C14_22  and  C15_23 
REMARK   11  A    between atoms: C15_23  and  C16_24 
REMARK   12  A    between atoms: C16_24  and  C17_25 
REMARK   13  A    between atoms: C17_25  and  C18_26 
REMARK   14  A    between atoms: C21_29  and  C22_30 
REMARK   15  A    between atoms: C21_29  and  C24_32 
REMARK   16  A    between atoms: C24_32  and  O5_33 
ROOT
HETATM    1  C9  UNL     1     -13.966   9.808  43.334  1.00  0.00     0.287 C 
HETATM    2  C10 UNL     1     -14.373  11.036  42.625  1.00  0.00     0.187 C 
HETATM    3  C11 UNL     1     -14.633  10.777  41.171  1.00  0.00     0.179 C 
HETATM    4  C12 UNL     1     -13.356  10.288  40.564  1.00  0.00     0.177 C 
HETATM    5  C13 UNL     1     -12.372   9.789  41.584  1.00  0.00     0.307 C 
HETATM    6  N1  UNL     1     -12.967   8.972  42.635  1.00  0.00     0.102 N 
ENDROOT
BRANCH   1   7
HETATM    7  C8  UNL     1     -13.599  10.009  44.766  1.00  0.00    -0.022 A 
HETATM    8  C7  UNL     1     -12.359   9.675  45.260  1.00  0.00     0.012 A 
HETATM    9  C6  UNL     1     -12.025   9.861  46.597  1.00  0.00     0.037 A 
HETATM   10  C5  UNL     1     -12.913  10.388  47.502  1.00  0.00     0.070 A 
HETATM   11  C26 UNL     1     -14.174  10.729  47.004  1.00  0.00     0.037 A 
HETATM   12  C25 UNL     1     -14.488  10.539  45.679  1.00  0.00     0.012 A 
BRANCH  10  13
HETATM   13  O1  UNL     1     -12.641  10.598  48.847  1.00  0.00    -0.334 OA
BRANCH  13  14
HETATM   14  C4  UNL     1     -12.939   9.741  49.903  1.00  0.00     0.139 A 
HETATM   15  C27 UNL     1     -11.714   9.499  50.815  1.00  0.00     0.127 A 
HETATM   16  C28 UNL     1     -12.309   8.397  50.015  1.00  0.00     0.278 A 
HETATM   17  F1  UNL     1     -12.971   7.426  50.761  1.00  0.00    -0.203 F 
HETATM   18  F2  UNL     1     -11.505   7.864  49.055  1.00  0.00    -0.203 F 
BRANCH  14  19
HETATM   19  C3  UNL     1     -14.205   9.906  50.718  1.00  0.00     0.045 C 
BRANCH  19  20
HETATM   20  C2  UNL     1     -15.450   9.520  49.986  1.00  0.00    -0.001 C 
HETATM   21  C1  UNL     1     -16.211   8.418  50.715  1.00  0.00     0.005 C 
ENDBRANCH  19  20
ENDBRANCH  14  19
ENDBRANCH  13  14
ENDBRANCH  10  13
ENDBRANCH   1   7
BRANCH   2  22
HETATM   22  O2  UNL     1     -13.564  12.145  42.798  1.00  0.00    -0.390 OA
ATOM     23  H2  UNL     1     -13.892  12.823  43.378  1.00  0.00     0.210 HD
ENDBRANCH   2  22
BRANCH   6  24
HETATM   24  C14 UNL     1     -13.642   7.866  42.025  1.00  0.00     0.273 C 
BRANCH  24  25
HETATM   25  C15 UNL     1     -13.922   6.644  42.814  1.00  0.00     0.030 C 
BRANCH  25  26
HETATM   26  C16 UNL     1     -15.317   6.212  43.012  1.00  0.00     0.002 C 
BRANCH  26  27
HETATM   27  C17 UNL     1     -15.872   6.174  44.396  1.00  0.00     0.005 C 
BRANCH  27  28
HETATM   28  C18 UNL     1     -15.198   6.925  45.456  1.00  0.00    -0.004 C 
HETATM   29  C19 UNL     1     -16.009   7.421  46.602  1.00  0.00     0.006 C 
HETATM   30  C20 UNL     1     -14.849   7.026  47.532  1.00  0.00     0.012 C 
HETATM   31  C21 UNL     1     -14.406   6.085  46.466  1.00  0.00    -0.016 C 
BRANCH  31  32
HETATM   32  C22 UNL     1     -12.931   6.191  46.139  1.00  0.00     0.007 C 
HETATM   33  C23 UNL     1     -12.049   5.707  47.243  1.00  0.00     0.006 C 
ENDBRANCH  31  32
BRANCH  31  34
HETATM   34  C24 UNL     1     -14.935   4.694  46.530  1.00  0.00     0.173 C 
BRANCH  34  35
HETATM   35  O5  UNL     1     -14.090   3.768  45.906  1.00  0.00    -0.400 OA
ATOM     36  H5  UNL     1     -13.180   4.042  45.909  1.00  0.00     0.209 HD
ENDBRANCH  34  35
ENDBRANCH  31  34
ENDBRANCH  27  28
ENDBRANCH  26  27
ENDBRANCH  25  26
ENDBRANCH  24  25
ENDBRANCH   6  24
BRANCH   3  37
HETATM   37  O3  UNL     1     -15.023  12.011  40.607  1.00  0.00    -0.390 OA
ATOM     38  H3  UNL     1     -15.332  11.822  39.730  1.00  0.00     0.210 HD
ENDBRANCH   3  37
BRANCH   4  39
HETATM   39  O4  UNL     1     -12.760  11.405  39.920  1.00  0.00    -0.391 OA
ATOM     40  H4  UNL     1     -12.319  11.904  40.597  1.00  0.00     0.210 HD
ENDBRANCH   4  39
TORSDOF 16
ENDMDL
MODEL 2
REMARK VINA RESULT: -5.944232881      3.077      5.961
REMARK  16 active torsions:
REMARK  status: ('A' for Active; 'I' for Inactive)
REMARK    1  A    between atoms: C2_2  and  C3_3 
REMARK    2  A    between atoms: C3_3  and  C4_4 
REMARK    3  A    between atoms: C4_4  and  O1_5 
REMARK    4  A    between atoms: O1_5  and  C5_6 
REMARK    5  A    between atoms: C8_9  and  C9_10 
REMARK    6  A    between atoms: C10_11  and  O2_12 
REMARK    7  A    between atoms: C11_14  and  O3_15 
REMARK    8  A    between atoms: C12_17  and  O4_18 
REMARK    9  A    between atoms: N1_21  and  C14_22 
REMARK   10  A    between atoms: C14_22  and  C15_23 
REMARK   11  A    between atoms: C15_23  and  C16_24 
REMARK   12  A    between atoms: C16_24  and  C17_25 
REMARK   13  A    between atoms: C17_25  and  C18_26 
REMARK   14  A    between atoms: C21_29  and  C22_30 
REMARK   15  A    between atoms: C21_29  and  C24_32 
REMARK   16  A    between atoms: C24_32  and  O5_33 
ROOT
HETATM    1  C9  UNL     1     -13.318  10.085  47.560  1.00  0.00     0.287 C 
HETATM    2  C10 UNL     1     -12.105  10.242  48.385  1.00  0.00     0.187 C 
HETATM    3  C11 UNL     1     -11.074  11.090  47.702  1.00  0.00     0.179 C 
HETATM    4  C12 UNL     1     -10.689  10.398  46.432  1.00  0.00     0.177 C 
HETATM    5  C13 UNL     1     -11.691   9.367  45.997  1.00  0.00     0.307 C 
HETATM    6  N1  UNL     1     -13.080   9.792  46.130  1.00  0.00     0.102 N 
ENDROOT
BRANCH   1   7
HETATM    7  C8  UNL     1     -14.350   9.175  48.136  1.00  0.00    -0.022 A 
HETATM    8  C7  UNL     1     -15.081   9.509  49.253  1.00  0.00     0.012 A 
HETATM    9  C6  UNL     1     -16.038   8.653  49.787  1.00  0.00     0.037 A 
HETATM   10  C5  UNL     1     -16.310   7.427  49.233  1.00  0.00     0.070 A 
HETATM   11  C26 UNL     1     -15.568   7.084  48.098  1.00  0.00     0.037 A 
HETATM   12  C25 UNL     1     -14.626   7.942  47.582  1.00  0.00     0.012 A 
BRANCH  10  13
HETATM   13  O1  UNL     1     -17.251   6.529  49.718  1.00  0.00    -0.334 OA
BRANCH  13  14
HETATM   14  C4  UNL     1     -18.635   6.627  49.600  1.00  0.00     0.139 A 
HETATM   15  C27 UNL     1     -19.260   5.329  49.041  1.00  0.00     0.127 A 
HETATM   16  C28 UNL     1     -19.306   6.599  48.272  1.00  0.00     0.278 A 
HETATM   17  F1  UNL     1     -20.571   7.173  48.168  1.00  0.00    -0.203 F 
HETATM   18  F2  UNL     1     -18.631   6.600  47.091  1.00  0.00    -0.203 F 
BRANCH  14  19
HETATM   19  C3  UNL     1     -19.481   7.207  50.715  1.00  0.00     0.045 C 
BRANCH  19  20
HETATM   20  C2  UNL     1     -19.652   8.689  50.636  1.00  0.00    -0.001 C 
HETATM   21  C1  UNL     1     -21.113   9.096  50.796  1.00  0.00     0.005 C 
ENDBRANCH  19  20
ENDBRANCH  14  19
ENDBRANCH  13  14
ENDBRANCH  10  13
ENDBRANCH   1   7
BRANCH   2  22
HETATM   22  O2  UNL     1     -11.544   9.080  48.885  1.00  0.00    -0.390 OA
ATOM     23  H2  UNL     1     -10.654   8.888  48.614  1.00  0.00     0.210 HD
ENDBRANCH   2  22
BRANCH   6  24
HETATM   24  C14 UNL     1     -13.261  10.998  45.379  1.00  0.00     0.273 C 
BRANCH  24  25
HETATM   25  C15 UNL     1     -14.468  11.172  44.540  1.00  0.00     0.030 C 
BRANCH  25  26
HETATM   26  C16 UNL     1     -14.328  11.253  43.075  1.00  0.00     0.002 C 
BRANCH  26  27
HETATM   27  C17 UNL     1     -13.267  10.445  42.405  1.00  0.00     0.005 C 
BRANCH  27  28
HETATM   28  C18 UNL     1     -13.659   9.368  41.495  1.00  0.00    -0.004 C 
HETATM   29  C19 UNL     1     -13.015   9.301  40.153  1.00  0.00     0.006 C 
HETATM   30  C20 UNL     1     -12.946   7.773  40.315  1.00  0.00     0.012 C 
HETATM   31  C21 UNL     1     -13.041   7.994  41.786  1.00  0.00    -0.016 C 
BRANCH  31  32
HETATM   32  C22 UNL     1     -14.081   7.124  42.463  1.00  0.00     0.007 C 
HETATM   33  C23 UNL     1     -13.933   7.083  43.949  1.00  0.00     0.006 C 
ENDBRANCH  31  32
BRANCH  31  34
HETATM   34  C24 UNL     1     -11.761   8.135  42.532  1.00  0.00     0.173 C 
BRANCH  34  35
HETATM   35  O5  UNL     1     -10.909   7.038  42.354  1.00  0.00    -0.400 OA
ATOM     36  H5  UNL     1     -10.159   7.242  41.807  1.00  0.00     0.209 HD
ENDBRANCH  34  35
ENDBRANCH  31  34
ENDBRANCH  27  28
ENDBRANCH  26  27
ENDBRANCH  25  26
ENDBRANCH  24  25
ENDBRANCH   6  24
BRANCH   3  37
HETATM   37  O3  UNL     1      -9.977  11.177  48.586  1.00  0.00    -0.390 OA
ATOM     38  H3  UNL     1      -9.366  11.792  48.198  1.00  0.00     0.210 HD
ENDBRANCH   3  37
BRANCH   4  39
HETATM   39  O4  UNL     1      -9.473   9.714  46.698  1.00  0.00    -0.391 OA
ATOM     40  H4  UNL     1      -8.979   9.716  45.887  1.00  0.00     0.210 HD
ENDBRANCH   4  39
TORSDOF 16
ENDMDL
MODEL 3
REMARK VINA RESULT: -5.918579835      3.029      6.990
REMARK  16 active torsions:
REMARK  status: ('A' for Active; 'I' for Inactive)
REMARK    1  A    between atoms: C2_2  and  C3_3 
REMARK    2  A    between atoms: C3_3  and  C4_4 
REMARK    3  A    between atoms: C4_4  and  O1_5 
REMARK    4  A    between atoms: O1_5  and  C5_6 
REMARK    5  A    between atoms: C8_9  and  C9_10 
REMARK    6  A    between atoms: C10_11  and  O2_12 
REMARK    7  A    between atoms: C11_14  and  O3_15 
REMARK    8  A    between atoms: C12_17  and  O4_18 
REMARK    9  A    between atoms: N1_21  and  C14_22 
REMARK   10  A    between atoms: C14_22  and  C15_23 
REMARK   11  A    between atoms: C15_23  and  C16_24 
REMARK   12  A    between atoms: C16_24  and  C17_25 
REMARK   13  A    between atoms: C17_25  and  C18_26 
REMARK   14  A    between atoms: C21_29  and  C22_30 
REMARK   15  A    between atoms: C21_29  and  C24_32 
REMARK   16  A    between atoms: C24_32  and  O5_33 
ROOT
HETATM    1  C9  UNL     1     -13.086   8.695  47.048  1.00  0.00     0.287 C 
HETATM    2  C10 UNL     1     -11.854   8.074  47.572  1.00  0.00     0.187 C 
HETATM    3  C11 UNL     1     -12.007   7.660  49.004  1.00  0.00     0.179 C 
HETATM    4  C12 UNL     1     -12.286   8.893  49.804  1.00  0.00     0.177 C 
HETATM    5  C13 UNL     1     -12.758  10.046  48.964  1.00  0.00     0.307 C 
HETATM    6  N1  UNL     1     -13.732   9.679  47.943  1.00  0.00     0.102 N 
ENDROOT
BRANCH   1   7
HETATM    7  C8  UNL     1     -12.976   9.218  45.655  1.00  0.00    -0.022 A 
HETATM    8  C7  UNL     1     -13.958   9.994  45.083  1.00  0.00     0.012 A 
HETATM    9  C6  UNL     1     -13.851  10.474  43.783  1.00  0.00     0.037 A 
HETATM   10  C5  UNL     1     -12.760  10.204  42.994  1.00  0.00     0.070 A 
HETATM   11  C26 UNL     1     -11.760   9.416  43.573  1.00  0.00     0.037 A 
HETATM   12  C25 UNL     1     -11.881   8.949  44.860  1.00  0.00     0.012 A 
BRANCH  10  13
HETATM   13  O1  UNL     1     -12.593  10.653  41.692  1.00  0.00    -0.334 OA
BRANCH  13  14
HETATM   14  C4  UNL     1     -13.442  10.419  40.613  1.00  0.00     0.139 A 
HETATM   15  C27 UNL     1     -13.494  11.624  39.646  1.00  0.00     0.127 A 
HETATM   16  C28 UNL     1     -14.691  11.206  40.421  1.00  0.00     0.278 A 
HETATM   17  F1  UNL     1     -15.710  10.638  39.660  1.00  0.00    -0.203 F 
HETATM   18  F2  UNL     1     -15.154  12.110  41.326  1.00  0.00    -0.203 F 
BRANCH  14  19
HETATM   19  C3  UNL     1     -13.409   9.108  39.854  1.00  0.00     0.045 C 
BRANCH  19  20
HETATM   20  C2  UNL     1     -13.506   7.901  40.729  1.00  0.00    -0.001 C 
HETATM   21  C1  UNL     1     -12.150   7.227  40.909  1.00  0.00     0.005 C 
ENDBRANCH  19  20
ENDBRANCH  14  19
ENDBRANCH  13  14
ENDBRANCH  10  13
ENDBRANCH   1   7
BRANCH   2  22
HETATM   22  O2  UNL     1     -10.678   8.778  47.378  1.00  0.00    -0.390 OA
ATOM     23  H2  UNL     1      -9.882   8.263  47.314  1.00  0.00     0.210 HD
ENDBRANCH   2  22
BRANCH   6  24
HETATM   24  C14 UNL     1     -14.849   9.050  48.584  1.00  0.00     0.273 C 
BRANCH  24  25
HETATM   25  C15 UNL     1     -16.181   9.076  47.938  1.00  0.00     0.030 C 
BRANCH  25  26
HETATM   26  C16 UNL     1     -16.752   7.827  47.402  1.00  0.00     0.002 C 
BRANCH  26  27
HETATM   27  C17 UNL     1     -16.357   7.381  46.035  1.00  0.00     0.005 C 
BRANCH  27  28
HETATM   28  C18 UNL     1     -16.592   5.991  45.643  1.00  0.00    -0.004 C 
HETATM   29  C19 UNL     1     -17.427   5.723  44.438  1.00  0.00     0.006 C 
HETATM   30  C20 UNL     1     -16.440   4.604  44.062  1.00  0.00     0.012 C 
HETATM   31  C21 UNL     1     -15.434   5.301  44.910  1.00  0.00    -0.016 C 
BRANCH  31  32
HETATM   32  C22 UNL     1     -14.720   4.383  45.881  1.00  0.00     0.007 C 
HETATM   33  C23 UNL     1     -13.543   5.027  46.540  1.00  0.00     0.006 C 
ENDBRANCH  31  32
BRANCH  31  34
HETATM   34  C24 UNL     1     -14.560   6.302  44.238  1.00  0.00     0.173 C 
BRANCH  34  35
HETATM   35  O5  UNL     1     -13.616   5.710  43.390  1.00  0.00    -0.400 OA
ATOM     36  H5  UNL     1     -12.722   5.907  43.643  1.00  0.00     0.209 HD
ENDBRANCH  34  35
ENDBRANCH  31  34
ENDBRANCH  27  28
ENDBRANCH  26  27
ENDBRANCH  25  26
ENDBRANCH  24  25
ENDBRANCH   6  24
BRANCH   3  37
HETATM   37  O3  UNL     1     -10.780   7.074  49.386  1.00  0.00    -0.390 OA
ATOM     38  H3  UNL     1     -10.882   6.797  50.288  1.00  0.00     0.210 HD
ENDBRANCH   3  37
BRANCH   4  39
HETATM   39  O4  UNL     1     -11.052   9.282  50.392  1.00  0.00    -0.391 OA
ATOM     40  H4  UNL     1     -10.423   9.340  49.684  1.00  0.00     0.210 HD
ENDBRANCH   4  39
TORSDOF 16
ENDMDL
MODEL 4
REMARK VINA RESULT: -5.899103575      3.297      5.150
REMARK  16 active torsions:
REMARK  status: ('A' for Active; 'I' for Inactive)
REMARK    1  A    between atoms: C2_2  and  C3_3 
REMARK    2  A    between atoms: C3_3  and  C4_4 
REMARK    3  A    between atoms: C4_4  and  O1_5 
REMARK    4  A    between atoms: O1_5  and  C5_6 
REMARK    5  A    between atoms: C8_9  and  C9_10 
REMARK    6  A    between atoms: C10_11  and  O2_12 
REMARK    7  A    between atoms: C11_14  and  O3_15 
REMARK    8  A    between atoms: C12_17  and  O4_18 
REMARK    9  A    between atoms: N1_21  and  C14_22 
REMARK   10  A    between atoms: C14_22  and  C15_23 
REMARK   11  A    between atoms: C15_23  and  C16_24 
REMARK   12  A    between atoms: C16_24  and  C17_25 
REMARK   13  A    between atoms: C17_25  and  C18_26 
REMARK   14  A    between atoms: C21_29  and  C22_30 
REMARK   15  A    between atoms: C21_29  and  C24_32 
REMARK   16  A    between atoms: C24_32  and  O5_33 
ROOT
HETATM    1  C9  UNL     1     -12.680   8.743  45.178  1.00  0.00     0.287 C 
HETATM    2  C10 UNL     1     -12.846  10.087  45.764  1.00  0.00     0.187 C 
HETATM    3  C11 UNL     1     -14.043  10.794  45.201  1.00  0.00     0.179 C 
HETATM    4  C12 UNL     1     -13.826  10.949  43.729  1.00  0.00     0.177 C 
HETATM    5  C13 UNL     1     -12.774  10.023  43.188  1.00  0.00     0.307 C 
HETATM    6  N1  UNL     1     -12.851   8.664  43.711  1.00  0.00     0.102 N 
ENDROOT
BRANCH   1   7
HETATM    7  C8  UNL     1     -11.454   8.018  45.621  1.00  0.00    -0.022 A 
HETATM    8  C7  UNL     1     -10.275   8.071  44.914  1.00  0.00     0.012 A 
HETATM    9  C6  UNL     1      -9.137   7.388  45.331  1.00  0.00     0.037 A 
HETATM   10  C5  UNL     1      -9.124   6.623  46.471  1.00  0.00     0.070 A 
HETATM   11  C26 UNL     1     -10.321   6.568  47.192  1.00  0.00     0.037 A 
HETATM   12  C25 UNL     1     -11.436   7.248  46.766  1.00  0.00     0.012 A 
BRANCH  10  13
HETATM   13  O1  UNL     1      -8.023   5.920  46.939  1.00  0.00    -0.334 OA
BRANCH  13  14
HETATM   14  C4  UNL     1      -7.729   4.578  46.710  1.00  0.00     0.139 A 
HETATM   15  C27 UNL     1      -6.253   4.370  46.305  1.00  0.00     0.127 A 
HETATM   16  C28 UNL     1      -7.359   4.084  45.356  1.00  0.00     0.278 A 
HETATM   17  F1  UNL     1      -7.556   2.733  45.078  1.00  0.00    -0.203 F 
HETATM   18  F2  UNL     1      -7.395   4.860  44.239  1.00  0.00    -0.203 F 
BRANCH  14  19
HETATM   19  C3  UNL     1      -8.194   3.496  47.663  1.00  0.00     0.045 C 
BRANCH  19  20
HETATM   20  C2  UNL     1      -8.264   3.936  49.090  1.00  0.00    -0.001 C 
HETATM   21  C1  UNL     1      -9.698   3.932  49.609  1.00  0.00     0.005 C 
ENDBRANCH  19  20
ENDBRANCH  14  19
ENDBRANCH  13  14
ENDBRANCH  10  13
ENDBRANCH   1   7
BRANCH   2  22
HETATM   22  O2  UNL     1     -11.731  10.907  45.753  1.00  0.00    -0.390 OA
ATOM     23  H2  UNL     1     -11.641  11.490  45.008  1.00  0.00     0.210 HD
ENDBRANCH   2  22
BRANCH   6  24
HETATM   24  C14 UNL     1     -14.155   8.141  43.430  1.00  0.00     0.273 C 
BRANCH  24  25
HETATM   25  C15 UNL     1     -14.297   6.878  42.671  1.00  0.00     0.030 C 
BRANCH  25  26
HETATM   26  C16 UNL     1     -15.149   5.802  43.207  1.00  0.00     0.002 C 
BRANCH  26  27
HETATM   27  C17 UNL     1     -15.983   6.073  44.414  1.00  0.00     0.005 C 
BRANCH  27  28
HETATM   28  C18 UNL     1     -15.668   5.385  45.667  1.00  0.00    -0.004 C 
HETATM   29  C19 UNL     1     -14.238   5.218  46.047  1.00  0.00     0.006 C 
HETATM   30  C20 UNL     1     -14.635   5.540  47.498  1.00  0.00     0.012 C 
HETATM   31  C21 UNL     1     -15.841   6.217  46.944  1.00  0.00    -0.016 C 
BRANCH  31  32
HETATM   32  C22 UNL     1     -17.131   5.807  47.624  1.00  0.00     0.007 C 
HETATM   33  C23 UNL     1     -18.237   6.792  47.427  1.00  0.00     0.006 C 
ENDBRANCH  31  32
BRANCH  31  34
HETATM   34  C24 UNL     1     -15.724   7.672  46.650  1.00  0.00     0.173 C 
BRANCH  34  35
HETATM   35  O5  UNL     1     -15.354   8.421  47.773  1.00  0.00    -0.400 OA
ATOM     36  H5  UNL     1     -15.216   7.882  48.544  1.00  0.00     0.209 HD
ENDBRANCH  34  35
ENDBRANCH  31  34
ENDBRANCH  27  28
ENDBRANCH  26  27
ENDBRANCH  25  26
ENDBRANCH  24  25
ENDBRANCH   6  24
BRANCH   3  37
HETATM   37  O3  UNL     1     -14.103  12.051  45.841  1.00  0.00    -0.390 OA
ATOM     38  H3  UNL     1     -14.675  12.595  45.313  1.00  0.00     0.210 HD
ENDBRANCH   3  37
BRANCH   4  39
HETATM   39  O4  UNL     1     -13.359  12.276  43.527  1.00  0.00    -0.391 OA
ATOM     40  H4  UNL     1     -12.458  12.294  43.828  1.00  0.00     0.210 HD
ENDBRANCH   4  39
TORSDOF 16
ENDMDL
MODEL 5
REMARK VINA RESULT: -5.858132272      3.350      6.892
REMARK  16 active torsions:
REMARK  status: ('A' for Active; 'I' for Inactive)
REMARK    1  A    between atoms: C2_2  and  C3_3 
REMARK    2  A    between atoms: C3_3  and  C4_4 
REMARK    3  A    between atoms: C4_4  and  O1_5 
REMARK    4  A    between atoms: O1_5  and  C5_6 
REMARK    5  A    between atoms: C8_9  and  C9_10 
REMARK    6  A    between atoms: C10_11  and  O2_12 
REMARK    7  A    between atoms: C11_14  and  O3_15 
REMARK    8  A    between atoms: C12_17  and  O4_18 
REMARK    9  A    between atoms: N1_21  and  C14_22 
REMARK   10  A    between atoms: C14_22  and  C15_23 
REMARK   11  A    between atoms: C15_23  and  C16_24 
REMARK   12  A    between atoms: C16_24  and  C17_25 
REMARK   13  A    between atoms: C17_25  and  C18_26 
REMARK   14  A    between atoms: C21_29  and  C22_30 
REMARK   15  A    between atoms: C21_29  and  C24_32 
REMARK   16  A    between atoms: C24_32  and  O5_33 
ROOT
HETATM    1  C9  UNL     1     -14.178   7.252  46.910  1.00  0.00     0.287 C 
HETATM    2  C10 UNL     1     -15.008   6.242  46.225  1.00  0.00     0.187 C 
HETATM    3  C11 UNL     1     -16.461   6.611  46.247  1.00  0.00     0.179 C 
HETATM    4  C12 UNL     1     -16.889   6.676  47.679  1.00  0.00     0.177 C 
HETATM    5  C13 UNL     1     -15.735   6.800  48.634  1.00  0.00     0.307 C 
HETATM    6  N1  UNL     1     -14.705   7.737  48.203  1.00  0.00     0.102 N 
ENDROOT
BRANCH   1   7
HETATM    7  C8  UNL     1     -12.731   6.904  47.010  1.00  0.00    -0.022 A 
HETATM    8  C7  UNL     1     -12.271   5.912  47.845  1.00  0.00     0.012 A 
HETATM    9  C6  UNL     1     -10.919   5.596  47.937  1.00  0.00     0.037 A 
HETATM   10  C5  UNL     1      -9.966   6.254  47.199  1.00  0.00     0.070 A 
HETATM   11  C26 UNL     1     -10.430   7.262  46.349  1.00  0.00     0.037 A 
HETATM   12  C25 UNL     1     -11.769   7.562  46.270  1.00  0.00     0.012 A 
BRANCH  10  13
HETATM   13  O1  UNL     1      -8.605   5.985  47.245  1.00  0.00    -0.334 OA
BRANCH  13  14
HETATM   14  C4  UNL     1      -7.941   4.930  46.625  1.00  0.00     0.139 A 
HETATM   15  C27 UNL     1      -6.536   5.342  46.131  1.00  0.00     0.127 A 
HETATM   16  C28 UNL     1      -7.608   4.965  45.175  1.00  0.00     0.278 A 
HETATM   17  F1  UNL     1      -7.409   3.752  44.521  1.00  0.00    -0.203 F 
HETATM   18  F2  UNL     1      -8.024   5.952  44.335  1.00  0.00    -0.203 F 
BRANCH  14  19
HETATM   19  C3  UNL     1      -7.923   3.543  47.235  1.00  0.00     0.045 C 
BRANCH  19  20
HETATM   20  C2  UNL     1      -8.073   3.535  48.722  1.00  0.00    -0.001 C 
HETATM   21  C1  UNL     1      -6.718   3.495  49.422  1.00  0.00     0.005 C 
ENDBRANCH  19  20
ENDBRANCH  14  19
ENDBRANCH  13  14
ENDBRANCH  10  13
ENDBRANCH   1   7
BRANCH   2  22
HETATM   22  O2  UNL     1     -14.821   4.926  46.610  1.00  0.00    -0.390 OA
ATOM     23  H2  UNL     1     -14.688   4.295  45.911  1.00  0.00     0.210 HD
ENDBRANCH   2  22
BRANCH   6  24
HETATM   24  C14 UNL     1     -15.311   9.019  47.998  1.00  0.00     0.273 C 
BRANCH  24  25
HETATM   25  C15 UNL     1     -15.038   9.774  46.754  1.00  0.00     0.030 C 
BRANCH  25  26
HETATM   26  C16 UNL     1     -13.835  10.622  46.670  1.00  0.00     0.002 C 
BRANCH  26  27
HETATM   27  C17 UNL     1     -13.263  10.933  45.328  1.00  0.00     0.005 C 
BRANCH  27  28
HETATM   28  C18 UNL     1     -14.067  10.674  44.132  1.00  0.00    -0.004 C 
HETATM   29  C19 UNL     1     -14.092  11.704  43.056  1.00  0.00     0.006 C 
HETATM   30  C20 UNL     1     -14.027  10.562  42.028  1.00  0.00     0.012 C 
HETATM   31  C21 UNL     1     -13.447   9.715  43.108  1.00  0.00    -0.016 C 
BRANCH  31  32
HETATM   32  C22 UNL     1     -14.114   8.362  43.241  1.00  0.00     0.007 C 
HETATM   33  C23 UNL     1     -13.178   7.221  43.005  1.00  0.00     0.006 C 
ENDBRANCH  31  32
BRANCH  31  34
HETATM   34  C24 UNL     1     -11.963   9.697  43.229  1.00  0.00     0.173 C 
BRANCH  34  35
HETATM   35  O5  UNL     1     -11.320   9.961  42.014  1.00  0.00    -0.400 OA
ATOM     36  H5  UNL     1     -10.420   9.655  42.002  1.00  0.00     0.209 HD
ENDBRANCH  34  35
ENDBRANCH  31  34
ENDBRANCH  27  28
ENDBRANCH  26  27
ENDBRANCH  25  26
ENDBRANCH  24  25
ENDBRANCH   6  24
BRANCH   3  37
HETATM   37  O3  UNL     1     -17.145   5.586  45.559  1.00  0.00    -0.390 OA
ATOM     38  H3  UNL     1     -17.118   4.819  46.119  1.00  0.00     0.210 HD
ENDBRANCH   3  37
BRANCH   4  39
HETATM   39  O4  UNL     1     -17.537   5.443  47.964  1.00  0.00    -0.391 OA
ATOM     40  H4  UNL     1     -17.325   5.229  48.864  1.00  0.00     0.210 HD
ENDBRANCH   4  39
TORSDOF 16
ENDMDL
