MODEL 1
REMARK VINA RESULT: -7.773892961      0.000      0.000
REMARK  14 active torsions:
REMARK  status: ('A' for Active; 'I' for Inactive)
REMARK    1  A    between atoms: N1_2  and  C2_5 
REMARK    2  A    between atoms: C2_5  and  C3_6 
REMARK    3  A    between atoms: C3_6  and  C4_7 
REMARK    4  A    between atoms: C4_7  and  O1_8 
REMARK    5  A    between atoms: C9_14  and  C10_15 
REMARK    6  A    between atoms: C11_16  and  C12_17 
REMARK    7  A    between atoms: C12_17  and  C13_18 
REMARK    8  A    between atoms: C18_24  and  C19_25 
REMARK    9  A    between atoms: C19_25  and  C21_27 
REMARK   10  A    between atoms: C21_27  and  C22_28 
REMARK   11  A    between atoms: C22_28  and  C23_29 
REMARK   12  A    between atoms: C23_29  and  C24_30 
REMARK   13  A    between atoms: C24_30  and  O3_33 
REMARK   14  A    between atoms: C27_35  and  O4_36 
ROOT
HETATM    1  C12 UNL     1      15.607   6.338  47.798  1.00  0.00    -0.122 C 
ENDROOT
BRANCH   1   2
HETATM    2  C11 UNL     1      16.412   7.407  48.348  1.00  0.00     0.050 C 
HETATM    3  C10 UNL     1      16.696   7.452  49.637  1.00  0.00    -0.013 C 
BRANCH   3   4
HETATM    4  C9  UNL     1      17.485   8.467  50.286  1.00  0.00     0.017 C 
HETATM    5  C7  UNL     1      18.912   8.513  50.046  1.00  0.00    -0.029 C 
HETATM    6  C6  UNL     1      19.564   9.114  48.901  1.00  0.00     0.011 C 
HETATM    7  C8  UNL     1      19.533   7.192  50.370  1.00  0.00     0.016 C 
HETATM    8  C31 UNL     1      19.286   9.580  51.126  1.00  0.00    -0.025 C 
HETATM    9  C5  UNL     1      20.961   9.241  49.546  1.00  0.00     0.015 C 
HETATM   10  C3  UNL     1      20.645   9.980  50.887  1.00  0.00     0.013 C 
HETATM   11  C30 UNL     1      18.855   8.784  52.296  1.00  0.00     0.011 C 
HETATM   12  C32 UNL     1      18.318  10.746  51.060  1.00  0.00     0.017 C 
HETATM   13  C29 UNL     1      17.558   8.168  51.809  1.00  0.00     0.010 C 
BRANCH  10  14
HETATM   14  C2  UNL     1      20.923  11.422  50.464  1.00  0.00     0.244 C 
BRANCH  14  15
HETATM   15  N1  UNL     1      22.242  11.738  50.078  1.00  0.00    -0.078 N 
HETATM   16  C1  UNL     1      22.655  12.886  50.906  1.00  0.00     0.267 C 
ATOM     17  H12 UNL     1      22.341  11.906  49.076  1.00  0.00     0.276 HD
ATOM     18  H11 UNL     1      22.881  10.946  50.138  1.00  0.00     0.276 HD
ENDBRANCH  14  15
ENDBRANCH  10  14
BRANCH  10  19
HETATM   19  C4  UNL     1      21.733   9.556  51.830  1.00  0.00     0.176 C 
BRANCH  19  20
HETATM   20  O1  UNL     1      22.677   8.783  51.120  1.00  0.00    -0.400 OA
ATOM     21  H1  UNL     1      23.086   8.170  51.719  1.00  0.00     0.209 HD
ENDBRANCH  19  20
ENDBRANCH  10  19
ENDBRANCH   3   4
ENDBRANCH   1   2
BRANCH   1  22
HETATM   22  C13 UNL     1      14.923   5.432  47.328  1.00  0.00     0.222 C 
HETATM   23  O2  UNL     1      13.573   5.080  47.703  1.00  0.00    -0.365 OA
HETATM   24  C14 UNL     1      12.915   4.406  46.691  1.00  0.00     0.135 C 
HETATM   25  C15 UNL     1      12.595   2.967  47.035  1.00  0.00     0.033 C 
HETATM   26  C18 UNL     1      13.865   4.375  45.521  1.00  0.00     0.019 C 
HETATM   27  C16 UNL     1      13.112   2.114  45.918  1.00  0.00     0.004 C 
HETATM   28  C17 UNL     1      13.732   3.034  44.887  1.00  0.00     0.015 C 
HETATM   29  C27 UNL     1      15.210   4.414  46.266  1.00  0.00     0.172 C 
BRANCH  26  30
HETATM   30  C19 UNL     1      13.699   5.561  44.659  1.00  0.00    -0.005 C 
HETATM   31  C20 UNL     1      13.419   5.215  43.207  1.00  0.00     0.011 C 
BRANCH  30  32
HETATM   32  C21 UNL     1      12.831   6.620  45.193  1.00  0.00     0.005 C 
BRANCH  32  33
HETATM   33  C22 UNL     1      13.312   8.027  45.140  1.00  0.00     0.003 C 
BRANCH  33  34
HETATM   34  C23 UNL     1      14.827   8.099  44.885  1.00  0.00     0.037 C 
BRANCH  34  35
HETATM   35  C24 UNL     1      15.068   9.169  43.822  1.00  0.00     0.051 C 
HETATM   36  C25 UNL     1      16.469   9.684  43.906  1.00  0.00     0.045 C 
HETATM   37  C26 UNL     1      14.087  10.308  43.914  1.00  0.00     0.045 C 
BRANCH  35  38
HETATM   38  O3  UNL     1      14.938   8.557  42.551  1.00  0.00    -0.391 OA
ATOM     39  H3  UNL     1      15.118   9.215  41.890  1.00  0.00     0.210 HD
ENDBRANCH  35  38
ENDBRANCH  34  35
ENDBRANCH  33  34
ENDBRANCH  32  33
ENDBRANCH  30  32
ENDBRANCH  26  30
BRANCH  29  40
HETATM   40  O4  UNL     1      15.497   3.189  46.725  1.00  0.00    -0.386 OA
HETATM   41  C28 UNL     1      16.811   2.806  46.757  1.00  0.00     0.202 C 
ENDBRANCH  29  40
ENDBRANCH   1  22
TORSDOF 14
ENDMDL
MODEL 2
REMARK VINA RESULT: -7.651011127      1.683      4.056
REMARK  14 active torsions:
REMARK  status: ('A' for Active; 'I' for Inactive)
REMARK    1  A    between atoms: N1_2  and  C2_5 
REMARK    2  A    between atoms: C2_5  and  C3_6 
REMARK    3  A    between atoms: C3_6  and  C4_7 
REMARK    4  A    between atoms: C4_7  and  O1_8 
REMARK    5  A    between atoms: C9_14  and  C10_15 
REMARK    6  A    between atoms: C11_16  and  C12_17 
REMARK    7  A    between atoms: C12_17  and  C13_18 
REMARK    8  A    between atoms: C18_24  and  C19_25 
REMARK    9  A    between atoms: C19_25  and  C21_27 
REMARK   10  A    between atoms: C21_27  and  C22_28 
REMARK   11  A    between atoms: C22_28  and  C23_29 
REMARK   12  A    between atoms: C23_29  and  C24_30 
REMARK   13  A    between atoms: C24_30  and  O3_33 
REMARK   14  A    between atoms: C27_35  and  O4_36 
ROOT
HETATM    1  C12 UNL     1      14.665   7.262  45.793  1.00  0.00    -0.122 C 
ENDROOT
BRANCH   1   2
HETATM    2  C11 UNL     1      15.395   7.953  46.834  1.00  0.00     0.050 C 
HETATM    3  C10 UNL     1      16.647   7.637  47.113  1.00  0.00    -0.013 C 
BRANCH   3   4
HETATM    4  C9  UNL     1      17.462   8.258  48.125  1.00  0.00     0.017 C 
HETATM    5  C7  UNL     1      18.690   7.612  48.538  1.00  0.00    -0.029 C 
HETATM    6  C6  UNL     1      19.962   7.680  47.849  1.00  0.00     0.011 C 
HETATM    7  C8  UNL     1      18.411   6.214  48.989  1.00  0.00     0.016 C 
HETATM    8  C31 UNL     1      19.026   8.530  49.758  1.00  0.00    -0.025 C 
HETATM    9  C5  UNL     1      20.831   7.243  49.048  1.00  0.00     0.015 C 
HETATM   10  C3  UNL     1      20.368   8.226  50.172  1.00  0.00     0.013 C 
HETATM   11  C30 UNL     1      17.822   8.193  50.551  1.00  0.00     0.011 C 
HETATM   12  C32 UNL     1      18.855   9.987  49.374  1.00  0.00     0.017 C 
HETATM   13  C29 UNL     1      16.734   8.178  49.495  1.00  0.00     0.010 C 
BRANCH  10  14
HETATM   14  C2  UNL     1      21.441   9.304  50.036  1.00  0.00     0.244 C 
BRANCH  14  15
HETATM   15  N1  UNL     1      22.234   9.573  51.171  1.00  0.00    -0.078 N 
HETATM   16  C1  UNL     1      22.243  11.038  51.337  1.00  0.00     0.267 C 
ATOM     17  H12 UNL     1      23.168   9.166  51.118  1.00  0.00     0.276 HD
ATOM     18  H11 UNL     1      21.926   9.074  52.006  1.00  0.00     0.276 HD
ENDBRANCH  14  15
ENDBRANCH  10  14
BRANCH  10  19
HETATM   19  C4  UNL     1      20.611   7.489  51.457  1.00  0.00     0.176 C 
BRANCH  19  20
HETATM   20  O1  UNL     1      21.683   6.588  51.270  1.00  0.00    -0.400 OA
ATOM     21  H1  UNL     1      21.514   5.801  51.776  1.00  0.00     0.209 HD
ENDBRANCH  19  20
ENDBRANCH  10  19
ENDBRANCH   3   4
ENDBRANCH   1   2
BRANCH   1  22
HETATM   22  C13 UNL     1      14.046   6.673  44.911  1.00  0.00     0.222 C 
HETATM   23  O2  UNL     1      14.300   5.340  44.414  1.00  0.00    -0.365 OA
HETATM   24  C14 UNL     1      13.175   4.782  43.835  1.00  0.00     0.135 C 
HETATM   25  C15 UNL     1      13.311   4.563  42.343  1.00  0.00     0.033 C 
HETATM   26  C18 UNL     1      12.063   5.781  44.030  1.00  0.00     0.019 C 
HETATM   27  C16 UNL     1      12.122   5.194  41.688  1.00  0.00     0.004 C 
HETATM   28  C17 UNL     1      11.253   5.783  42.781  1.00  0.00     0.015 C 
HETATM   29  C27 UNL     1      12.877   7.085  44.068  1.00  0.00     0.172 C 
BRANCH  26  30
HETATM   30  C19 UNL     1      11.355   5.559  45.306  1.00  0.00    -0.005 C 
HETATM   31  C20 UNL     1       9.903   6.001  45.273  1.00  0.00     0.011 C 
BRANCH  30  32
HETATM   32  C21 UNL     1      11.559   4.242  45.927  1.00  0.00     0.005 C 
BRANCH  32  33
HETATM   33  C22 UNL     1      12.475   4.142  47.095  1.00  0.00     0.003 C 
BRANCH  33  34
HETATM   34  C23 UNL     1      13.325   2.861  47.041  1.00  0.00     0.037 C 
BRANCH  34  35
HETATM   35  C24 UNL     1      14.751   3.235  47.438  1.00  0.00     0.051 C 
HETATM   36  C25 UNL     1      14.792   4.618  48.005  1.00  0.00     0.045 C 
HETATM   37  C26 UNL     1      15.722   3.111  46.293  1.00  0.00     0.045 C 
BRANCH  35  38
HETATM   38  O3  UNL     1      15.158   2.361  48.476  1.00  0.00    -0.391 OA
ATOM     39  H3  UNL     1      15.868   1.824  48.145  1.00  0.00     0.210 HD
ENDBRANCH  35  38
ENDBRANCH  34  35
ENDBRANCH  33  34
ENDBRANCH  32  33
ENDBRANCH  30  32
ENDBRANCH  26  30
BRANCH  29  40
HETATM   40  O4  UNL     1      13.187   7.449  42.816  1.00  0.00    -0.386 OA
HETATM   41  C28 UNL     1      14.377   8.093  42.611  1.00  0.00     0.202 C 
ENDBRANCH  29  40
ENDBRANCH   1  22
TORSDOF 14
ENDMDL
MODEL 3
REMARK VINA RESULT: -7.611943814      1.187      2.037
REMARK  14 active torsions:
REMARK  status: ('A' for Active; 'I' for Inactive)
REMARK    1  A    between atoms: N1_2  and  C2_5 
REMARK    2  A    between atoms: C2_5  and  C3_6 
REMARK    3  A    between atoms: C3_6  and  C4_7 
REMARK    4  A    between atoms: C4_7  and  O1_8 
REMARK    5  A    between atoms: C9_14  and  C10_15 
REMARK    6  A    between atoms: C11_16  and  C12_17 
REMARK    7  A    between atoms: C12_17  and  C13_18 
REMARK    8  A    between atoms: C18_24  and  C19_25 
REMARK    9  A    between atoms: C19_25  and  C21_27 
REMARK   10  A    between atoms: C21_27  and  C22_28 
REMARK   11  A    between atoms: C22_28  and  C23_29 
REMARK   12  A    between atoms: C23_29  and  C24_30 
REMARK   13  A    between atoms: C24_30  and  O3_33 
REMARK   14  A    between atoms: C27_35  and  O4_36 
ROOT
HETATM    1  C12 UNL     1      15.458   5.762  48.561  1.00  0.00    -0.122 C 
ENDROOT
BRANCH   1   2
HETATM    2  C11 UNL     1      16.166   6.594  49.510  1.00  0.00     0.050 C 
HETATM    3  C10 UNL     1      16.872   7.635  49.110  1.00  0.00    -0.013 C 
BRANCH   3   4
HETATM    4  C9  UNL     1      17.611   8.526  49.967  1.00  0.00     0.017 C 
HETATM    5  C7  UNL     1      19.053   8.583  49.851  1.00  0.00    -0.029 C 
HETATM    6  C6  UNL     1      19.799   9.340  48.866  1.00  0.00     0.011 C 
HETATM    7  C8  UNL     1      19.639   7.218  50.017  1.00  0.00     0.016 C 
HETATM    8  C31 UNL     1      19.343   9.467  51.107  1.00  0.00    -0.025 C 
HETATM    9  C5  UNL     1      21.140   9.343  49.631  1.00  0.00     0.015 C 
HETATM   10  C3  UNL     1      20.720   9.876  51.040  1.00  0.00     0.013 C 
HETATM   11  C30 UNL     1      18.815   8.510  52.104  1.00  0.00     0.011 C 
HETATM   12  C32 UNL     1      18.390  10.647  51.144  1.00  0.00     0.017 C 
HETATM   13  C29 UNL     1      17.558   7.998  51.427  1.00  0.00     0.010 C 
BRANCH  10  14
HETATM   14  C2  UNL     1      21.037  11.360  50.866  1.00  0.00     0.244 C 
BRANCH  14  15
HETATM   15  N1  UNL     1      22.134  11.692  50.043  1.00  0.00    -0.078 N 
HETATM   16  C1  UNL     1      22.978  12.615  50.825  1.00  0.00     0.267 C 
ATOM     17  H12 UNL     1      21.859  12.067  49.135  1.00  0.00     0.276 HD
ATOM     18  H11 UNL     1      22.640  10.877  49.697  1.00  0.00     0.276 HD
ENDBRANCH  14  15
ENDBRANCH  10  14
BRANCH  10  19
HETATM   19  C4  UNL     1      21.725   9.294  51.991  1.00  0.00     0.176 C 
BRANCH  19  20
HETATM   20  O1  UNL     1      22.830   8.818  51.252  1.00  0.00    -0.400 OA
ATOM     21  H1  UNL     1      22.639   7.939  50.946  1.00  0.00     0.209 HD
ENDBRANCH  19  20
ENDBRANCH  10  19
ENDBRANCH   3   4
ENDBRANCH   1   2
BRANCH   1  22
HETATM   22  C13 UNL     1      14.859   5.053  47.757  1.00  0.00     0.222 C 
HETATM   23  O2  UNL     1      13.589   4.393  47.958  1.00  0.00    -0.365 OA
HETATM   24  C14 UNL     1      12.952   4.123  46.762  1.00  0.00     0.135 C 
HETATM   25  C15 UNL     1      12.832   2.644  46.462  1.00  0.00     0.033 C 
HETATM   26  C18 UNL     1      13.817   4.719  45.681  1.00  0.00     0.019 C 
HETATM   27  C16 UNL     1      13.373   2.421  45.084  1.00  0.00     0.004 C 
HETATM   28  C17 UNL     1      13.806   3.766  44.537  1.00  0.00     0.015 C 
HETATM   29  C27 UNL     1      15.195   4.627  46.359  1.00  0.00     0.172 C 
BRANCH  26  30
HETATM   30  C19 UNL     1      13.451   6.123  45.409  1.00  0.00    -0.005 C 
HETATM   31  C20 UNL     1      14.616   6.963  44.914  1.00  0.00     0.011 C 
BRANCH  30  32
HETATM   32  C21 UNL     1      12.211   6.321  44.645  1.00  0.00     0.005 C 
BRANCH  32  33
HETATM   33  C22 UNL     1      12.265   7.143  43.406  1.00  0.00     0.003 C 
BRANCH  33  34
HETATM   34  C23 UNL     1      11.604   6.424  42.219  1.00  0.00     0.037 C 
BRANCH  34  35
HETATM   35  C24 UNL     1      12.682   6.183  41.164  1.00  0.00     0.051 C 
HETATM   36  C25 UNL     1      12.153   6.482  39.798  1.00  0.00     0.045 C 
HETATM   37  C26 UNL     1      13.239   4.784  41.214  1.00  0.00     0.045 C 
BRANCH  35  38
HETATM   38  O3  UNL     1      13.734   7.101  41.399  1.00  0.00    -0.391 OA
ATOM     39  H3  UNL     1      14.373   6.677  41.961  1.00  0.00     0.210 HD
ENDBRANCH  35  38
ENDBRANCH  34  35
ENDBRANCH  33  34
ENDBRANCH  32  33
ENDBRANCH  30  32
ENDBRANCH  26  30
BRANCH  29  40
HETATM   40  O4  UNL     1      15.659   3.375  46.248  1.00  0.00    -0.386 OA
HETATM   41  C28 UNL     1      16.951   3.133  46.630  1.00  0.00     0.202 C 
ENDBRANCH  29  40
ENDBRANCH   1  22
TORSDOF 14
ENDMDL
MODEL 4
REMARK VINA RESULT: -7.593628095      1.706      4.308
REMARK  14 active torsions:
REMARK  status: ('A' for Active; 'I' for Inactive)
REMARK    1  A    between atoms: N1_2  and  C2_5 
REMARK    2  A    between atoms: C2_5  and  C3_6 
REMARK    3  A    between atoms: C3_6  and  C4_7 
REMARK    4  A    between atoms: C4_7  and  O1_8 
REMARK    5  A    between atoms: C9_14  and  C10_15 
REMARK    6  A    between atoms: C11_16  and  C12_17 
REMARK    7  A    between atoms: C12_17  and  C13_18 
REMARK    8  A    between atoms: C18_24  and  C19_25 
REMARK    9  A    between atoms: C19_25  and  C21_27 
REMARK   10  A    between atoms: C21_27  and  C22_28 
REMARK   11  A    between atoms: C22_28  and  C23_29 
REMARK   12  A    between atoms: C23_29  and  C24_30 
REMARK   13  A    between atoms: C24_30  and  O3_33 
REMARK   14  A    between atoms: C27_35  and  O4_36 
ROOT
HETATM    1  C12 UNL     1      14.649   7.288  45.905  1.00  0.00    -0.122 C 
ENDROOT
BRANCH   1   2
HETATM    2  C11 UNL     1      15.368   7.645  47.109  1.00  0.00     0.050 C 
HETATM    3  C10 UNL     1      16.173   6.783  47.702  1.00  0.00    -0.013 C 
BRANCH   3   4
HETATM    4  C9  UNL     1      16.934   7.034  48.899  1.00  0.00     0.017 C 
HETATM    5  C7  UNL     1      18.071   7.926  48.839  1.00  0.00    -0.029 C 
HETATM    6  C6  UNL     1      18.022   9.373  48.885  1.00  0.00     0.011 C 
HETATM    7  C8  UNL     1      19.033   7.468  47.789  1.00  0.00     0.016 C 
HETATM    8  C31 UNL     1      18.643   7.657  50.269  1.00  0.00    -0.025 C 
HETATM    9  C5  UNL     1      19.500   9.583  49.281  1.00  0.00     0.015 C 
HETATM   10  C3  UNL     1      19.648   8.652  50.527  1.00  0.00     0.013 C 
HETATM   11  C30 UNL     1      18.938   6.223  50.057  1.00  0.00     0.011 C 
HETATM   12  C32 UNL     1      17.522   7.687  51.290  1.00  0.00     0.017 C 
HETATM   13  C29 UNL     1      17.718   5.751  49.290  1.00  0.00     0.010 C 
BRANCH  10  14
HETATM   14  C2  UNL     1      19.407   9.666  51.644  1.00  0.00     0.244 C 
BRANCH  14  15
HETATM   15  N1  UNL     1      20.081  10.902  51.549  1.00  0.00    -0.078 N 
HETATM   16  C1  UNL     1      19.270  11.878  52.300  1.00  0.00     0.267 C 
ATOM     17  H12 UNL     1      20.269  11.187  50.587  1.00  0.00     0.276 HD
ATOM     18  H11 UNL     1      21.051  10.858  51.861  1.00  0.00     0.276 HD
ENDBRANCH  14  15
ENDBRANCH  10  14
BRANCH  10  19
HETATM   19  C4  UNL     1      21.099   8.267  50.555  1.00  0.00     0.176 C 
BRANCH  19  20
HETATM   20  O1  UNL     1      21.808   9.100  49.662  1.00  0.00    -0.400 OA
ATOM     21  H1  UNL     1      22.714   8.815  49.630  1.00  0.00     0.209 HD
ENDBRANCH  19  20
ENDBRANCH  10  19
ENDBRANCH   3   4
ENDBRANCH   1   2
BRANCH   1  22
HETATM   22  C13 UNL     1      14.036   6.986  44.885  1.00  0.00     0.222 C 
HETATM   23  O2  UNL     1      14.288   5.854  44.023  1.00  0.00    -0.365 OA
HETATM   24  C14 UNL     1      13.166   5.497  43.298  1.00  0.00     0.135 C 
HETATM   25  C15 UNL     1      13.315   5.721  41.808  1.00  0.00     0.033 C 
HETATM   26  C18 UNL     1      12.057   6.403  43.767  1.00  0.00     0.019 C 
HETATM   27  C16 UNL     1      12.135   6.524  41.356  1.00  0.00     0.004 C 
HETATM   28  C17 UNL     1      11.259   6.775  42.566  1.00  0.00     0.015 C 
HETATM   29  C27 UNL     1      12.876   7.634  44.189  1.00  0.00     0.172 C 
BRANCH  26  30
HETATM   30  C19 UNL     1      11.336   5.824  44.918  1.00  0.00    -0.005 C 
HETATM   31  C20 UNL     1       9.865   6.199  44.956  1.00  0.00     0.011 C 
BRANCH  30  32
HETATM   32  C21 UNL     1      11.591   4.400  45.177  1.00  0.00     0.005 C 
BRANCH  32  33
HETATM   33  C22 UNL     1      11.844   3.967  46.577  1.00  0.00     0.003 C 
BRANCH  33  34
HETATM   34  C23 UNL     1      13.251   4.371  47.050  1.00  0.00     0.037 C 
BRANCH  34  35
HETATM   35  C24 UNL     1      14.153   3.146  46.920  1.00  0.00     0.051 C 
HETATM   36  C25 UNL     1      15.205   3.155  47.984  1.00  0.00     0.045 C 
HETATM   37  C26 UNL     1      14.789   3.035  45.559  1.00  0.00     0.045 C 
BRANCH  35  38
HETATM   38  O3  UNL     1      13.360   1.994  47.148  1.00  0.00    -0.391 OA
ATOM     39  H3  UNL     1      13.445   1.426  46.391  1.00  0.00     0.210 HD
ENDBRANCH  35  38
ENDBRANCH  34  35
ENDBRANCH  33  34
ENDBRANCH  32  33
ENDBRANCH  30  32
ENDBRANCH  26  30
BRANCH  29  40
HETATM   40  O4  UNL     1      13.199   8.345  43.100  1.00  0.00    -0.386 OA
HETATM   41  C28 UNL     1      14.050   9.406  43.255  1.00  0.00     0.202 C 
ENDBRANCH  29  40
ENDBRANCH   1  22
TORSDOF 14
ENDMDL
MODEL 5
REMARK VINA RESULT: -7.560999332      1.458      2.028
REMARK  14 active torsions:
REMARK  status: ('A' for Active; 'I' for Inactive)
REMARK    1  A    between atoms: N1_2  and  C2_5 
REMARK    2  A    between atoms: C2_5  and  C3_6 
REMARK    3  A    between atoms: C3_6  and  C4_7 
REMARK    4  A    between atoms: C4_7  and  O1_8 
REMARK    5  A    between atoms: C9_14  and  C10_15 
REMARK    6  A    between atoms: C11_16  and  C12_17 
REMARK    7  A    between atoms: C12_17  and  C13_18 
REMARK    8  A    between atoms: C18_24  and  C19_25 
REMARK    9  A    between atoms: C19_25  and  C21_27 
REMARK   10  A    between atoms: C21_27  and  C22_28 
REMARK   11  A    between atoms: C22_28  and  C23_29 
REMARK   12  A    between atoms: C23_29  and  C24_30 
REMARK   13  A    between atoms: C24_30  and  O3_33 
REMARK   14  A    between atoms: C27_35  and  O4_36 
ROOT
HETATM    1  C12 UNL     1      15.567   6.432  47.033  1.00  0.00    -0.122 C 
ENDROOT
BRANCH   1   2
HETATM    2  C11 UNL     1      16.681   7.320  47.287  1.00  0.00     0.050 C 
HETATM    3  C10 UNL     1      17.444   7.168  48.354  1.00  0.00    -0.013 C 
BRANCH   3   4
HETATM    4  C9  UNL     1      18.574   7.992  48.700  1.00  0.00     0.017 C 
HETATM    5  C7  UNL     1      19.002   8.059  50.081  1.00  0.00    -0.029 C 
HETATM    6  C6  UNL     1      19.836   7.091  50.762  1.00  0.00     0.011 C 
HETATM    7  C8  UNL     1      17.863   8.477  50.955  1.00  0.00     0.016 C 
HETATM    8  C31 UNL     1      20.042   9.217  49.936  1.00  0.00    -0.025 C 
HETATM    9  C5  UNL     1      20.266   8.018  51.919  1.00  0.00     0.015 C 
HETATM   10  C3  UNL     1      20.794   9.279  51.160  1.00  0.00     0.013 C 
HETATM   11  C30 UNL     1      19.074  10.252  49.511  1.00  0.00     0.011 C 
HETATM   12  C32 UNL     1      20.924   8.975  48.726  1.00  0.00     0.017 C 
HETATM   13  C29 UNL     1      18.187   9.488  48.547  1.00  0.00     0.010 C 
BRANCH  10  14
HETATM   14  C2  UNL     1      22.287   8.957  51.121  1.00  0.00     0.244 C 
BRANCH  14  15
HETATM   15  N1  UNL     1      23.131   9.709  51.964  1.00  0.00    -0.078 N 
HETATM   16  C1  UNL     1      23.990   8.738  52.668  1.00  0.00     0.267 C 
ATOM     17  H12 UNL     1      22.624  10.331  52.595  1.00  0.00     0.276 HD
ATOM     18  H11 UNL     1      23.657  10.430  51.471  1.00  0.00     0.276 HD
ENDBRANCH  14  15
ENDBRANCH  10  14
BRANCH  10  19
HETATM   19  C4  UNL     1      20.590  10.421  52.112  1.00  0.00     0.176 C 
BRANCH  19  20
HETATM   20  O1  UNL     1      20.388   9.902  53.410  1.00  0.00    -0.400 OA
ATOM     21  H1  UNL     1      21.039  10.272  53.994  1.00  0.00     0.209 HD
ENDBRANCH  19  20
ENDBRANCH  10  19
ENDBRANCH   3   4
ENDBRANCH   1   2
BRANCH   1  22
HETATM   22  C13 UNL     1      14.622   5.678  46.821  1.00  0.00     0.222 C 
HETATM   23  O2  UNL     1      13.229   5.925  47.119  1.00  0.00    -0.365 OA
HETATM   24  C14 UNL     1      12.389   5.167  46.326  1.00  0.00     0.135 C 
HETATM   25  C15 UNL     1      11.603   4.130  47.101  1.00  0.00     0.033 C 
HETATM   26  C18 UNL     1      13.278   4.416  45.369  1.00  0.00     0.019 C 
HETATM   27  C16 UNL     1      11.810   2.812  46.420  1.00  0.00     0.004 C 
HETATM   28  C17 UNL     1      12.707   3.048  45.223  1.00  0.00     0.015 C 
HETATM   29  C27 UNL     1      14.555   4.306  46.219  1.00  0.00     0.172 C 
BRANCH  26  30
HETATM   30  C19 UNL     1      13.524   5.192  44.138  1.00  0.00    -0.005 C 
HETATM   31  C20 UNL     1      13.602   4.331  42.890  1.00  0.00     0.011 C 
BRANCH  30  32
HETATM   32  C21 UNL     1      12.704   6.400  43.972  1.00  0.00     0.005 C 
BRANCH  32  33
HETATM   33  C22 UNL     1      13.292   7.566  43.260  1.00  0.00     0.003 C 
BRANCH  33  34
HETATM   34  C23 UNL     1      14.696   7.904  43.788  1.00  0.00     0.037 C 
BRANCH  34  35
HETATM   35  C24 UNL     1      14.666   9.345  44.293  1.00  0.00     0.051 C 
HETATM   36  C25 UNL     1      16.056   9.861  44.484  1.00  0.00     0.045 C 
HETATM   37  C26 UNL     1      13.873   9.497  45.565  1.00  0.00     0.045 C 
BRANCH  35  38
HETATM   38  O3  UNL     1      14.072  10.148  43.288  1.00  0.00    -0.391 OA
ATOM     39  H3  UNL     1      13.986  11.029  43.630  1.00  0.00     0.210 HD
ENDBRANCH  35  38
ENDBRANCH  34  35
ENDBRANCH  33  34
ENDBRANCH  32  33
ENDBRANCH  30  32
ENDBRANCH  26  30
BRANCH  29  40
HETATM   40  O4  UNL     1      14.413   3.310  47.104  1.00  0.00    -0.386 OA
HETATM   41  C28 UNL     1      15.423   3.103  48.005  1.00  0.00     0.202 C 
ENDBRANCH  29  40
ENDBRANCH   1  22
TORSDOF 14
ENDMDL
