MODEL 1
REMARK VINA RESULT: -9.074966171      0.000      0.000
REMARK  15 active torsions:
REMARK  status: ('A' for Active; 'I' for Inactive)
REMARK    1  A    between atoms: C4_4  and  C5_5 
REMARK    2  A    between atoms: C5_5  and  C6_6 
REMARK    3  A    between atoms: C9_9  and  O1_10 
REMARK    4  A    between atoms: C11_13  and  O2_14 
REMARK    5  A    between atoms: C21_25  and  C22_26 
REMARK    6  A    between atoms: C22_26  and  O3_28 
REMARK    7  A    between atoms: C22_26  and  C24_30 
REMARK    8  A    between atoms: C24_30  and  C25_31 
REMARK    9  A    between atoms: C25_31  and  C26_32 
REMARK   10  A    between atoms: C26_32  and  C27_33 
REMARK   11  A    between atoms: C26_32  and  C28_36 
REMARK   12  A    between atoms: C27_33  and  O4_34 
REMARK   13  A    between atoms: C28_36  and  C29_37 
REMARK   14  A    between atoms: C29_37  and  C30_38 
REMARK   15  A    between atoms: C30_38  and  O5_39 
ROOT
HETATM    1  C1  UNL     1      15.035   7.601  47.179  1.00  0.00     0.015 C 
HETATM    2  C2  UNL     1      14.756   6.417  46.646  1.00  0.00    -0.079 C 
HETATM    3  C3  UNL     1      14.501   5.278  47.566  1.00  0.00     0.027 C 
HETATM    4  C4  UNL     1      15.629   4.727  48.323  1.00  0.00    -0.002 C 
HETATM    5  C13 UNL     1      16.591   4.331  47.233  1.00  0.00     0.006 C 
HETATM    6  C14 UNL     1      15.613   3.563  46.332  1.00  0.00     0.011 C 
HETATM    7  C15 UNL     1      14.244   4.123  46.626  1.00  0.00    -0.028 C 
HETATM    8  C16 UNL     1      13.352   3.078  47.228  1.00  0.00     0.016 C 
HETATM    9  C17 UNL     1      13.667   4.807  45.458  1.00  0.00    -0.028 C 
HETATM   10  C18 UNL     1      13.584   3.928  44.226  1.00  0.00     0.016 C 
HETATM   11  C19 UNL     1      12.388   5.544  45.711  1.00  0.00     0.011 C 
HETATM   12  C20 UNL     1      12.558   6.977  45.180  1.00  0.00     0.009 C 
HETATM   13  C21 UNL     1      13.758   6.759  44.325  1.00  0.00     0.028 C 
HETATM   14  C32 UNL     1      14.634   6.001  45.219  1.00  0.00     0.030 C 
ENDROOT
BRANCH  13  15
HETATM   15  C22 UNL     1      14.179   7.741  43.354  1.00  0.00     0.058 C 
HETATM   16  C23 UNL     1      15.491   8.344  43.909  1.00  0.00     0.046 C 
BRANCH  15  17
HETATM   17  O3  UNL     1      13.270   8.830  43.444  1.00  0.00    -0.390 OA
ATOM     18  H3  UNL     1      13.268   9.261  42.597  1.00  0.00     0.210 HD
ENDBRANCH  15  17
BRANCH  15  19
HETATM   19  C24 UNL     1      14.411   7.482  41.943  1.00  0.00     0.038 C 
BRANCH  19  20
HETATM   20  C25 UNL     1      13.609   6.261  41.520  1.00  0.00     0.010 C 
BRANCH  20  21
HETATM   21  C26 UNL     1      12.358   6.542  40.797  1.00  0.00     0.009 C 
BRANCH  21  22
HETATM   22  C27 UNL     1      11.142   6.252  41.712  1.00  0.00     0.168 C 
BRANCH  22  23
HETATM   23  O4  UNL     1      10.748   7.532  42.161  1.00  0.00    -0.400 OA
ATOM     24  H4  UNL     1      11.541   7.892  42.540  1.00  0.00     0.209 HD
ENDBRANCH  22  23
ENDBRANCH  21  22
BRANCH  21  25
HETATM   25  C28 UNL     1      12.109   6.016  39.450  1.00  0.00     0.009 C 
BRANCH  25  26
HETATM   26  C29 UNL     1      12.849   4.871  38.893  1.00  0.00     0.027 C 
BRANCH  26  27
HETATM   27  C30 UNL     1      12.402   3.489  39.133  1.00  0.00     0.167 C 
BRANCH  27  28
HETATM   28  O5  UNL     1      13.509   2.589  39.143  1.00  0.00    -0.396 OA
HETATM   29  C31 UNL     1      14.206   2.904  40.321  1.00  0.00     0.201 C 
ENDBRANCH  27  28
ENDBRANCH  26  27
ENDBRANCH  25  26
ENDBRANCH  21  25
ENDBRANCH  20  21
ENDBRANCH  19  20
ENDBRANCH  15  19
ENDBRANCH  13  15
BRANCH   4  30
HETATM   30  C5  UNL     1      16.198   5.424  49.467  1.00  0.00     0.032 C 
BRANCH  30  31
HETATM   31  C6  UNL     1      17.686   5.617  49.301  1.00  0.00    -0.023 C 
HETATM   32  C7  UNL     1      18.279   6.767  49.490  1.00  0.00    -0.079 C 
HETATM   33  C8  UNL     1      19.734   6.912  49.317  1.00  0.00     0.065 C 
HETATM   34  C12 UNL     1      17.483   7.946  49.882  1.00  0.00     0.065 C 
HETATM   35  C9  UNL     1      20.148   8.183  48.654  1.00  0.00     0.124 C 
HETATM   36  C10 UNL     1      19.174   9.308  48.780  1.00  0.00     0.064 C 
HETATM   37  C11 UNL     1      18.335   9.191  50.006  1.00  0.00     0.124 C 
BRANCH  35  38
HETATM   38  O1  UNL     1      20.479   7.940  47.320  1.00  0.00    -0.395 OA
ATOM     39  H1  UNL     1      19.695   7.955  46.784  1.00  0.00     0.210 HD
ENDBRANCH  35  38
BRANCH  37  40
HETATM   40  O2  UNL     1      19.108   9.219  51.138  1.00  0.00    -0.395 OA
ATOM     41  H2  UNL     1      18.584   9.415  51.906  1.00  0.00     0.210 HD
ENDBRANCH  37  40
ENDBRANCH  30  31
ENDBRANCH   4  30
TORSDOF 15
ENDMDL
MODEL 2
REMARK VINA RESULT: -8.015545731      1.137      2.490
REMARK  15 active torsions:
REMARK  status: ('A' for Active; 'I' for Inactive)
REMARK    1  A    between atoms: C4_4  and  C5_5 
REMARK    2  A    between atoms: C5_5  and  C6_6 
REMARK    3  A    between atoms: C9_9  and  O1_10 
REMARK    4  A    between atoms: C11_13  and  O2_14 
REMARK    5  A    between atoms: C21_25  and  C22_26 
REMARK    6  A    between atoms: C22_26  and  O3_28 
REMARK    7  A    between atoms: C22_26  and  C24_30 
REMARK    8  A    between atoms: C24_30  and  C25_31 
REMARK    9  A    between atoms: C25_31  and  C26_32 
REMARK   10  A    between atoms: C26_32  and  C27_33 
REMARK   11  A    between atoms: C26_32  and  C28_36 
REMARK   12  A    between atoms: C27_33  and  O4_34 
REMARK   13  A    between atoms: C28_36  and  C29_37 
REMARK   14  A    between atoms: C29_37  and  C30_38 
REMARK   15  A    between atoms: C30_38  and  O5_39 
ROOT
HETATM    1  C1  UNL     1      14.951   7.665  47.063  1.00  0.00     0.015 C 
HETATM    2  C2  UNL     1      14.690   6.458  46.576  1.00  0.00    -0.079 C 
HETATM    3  C3  UNL     1      14.461   5.348  47.539  1.00  0.00     0.027 C 
HETATM    4  C4  UNL     1      15.604   4.846  48.308  1.00  0.00    -0.002 C 
HETATM    5  C13 UNL     1      16.567   4.427  47.227  1.00  0.00     0.006 C 
HETATM    6  C14 UNL     1      15.596   3.609  46.362  1.00  0.00     0.011 C 
HETATM    7  C15 UNL     1      14.219   4.156  46.645  1.00  0.00    -0.028 C 
HETATM    8  C16 UNL     1      13.350   3.118  47.290  1.00  0.00     0.016 C 
HETATM    9  C17 UNL     1      13.623   4.785  45.456  1.00  0.00    -0.028 C 
HETATM   10  C18 UNL     1      13.549   3.860  44.258  1.00  0.00     0.016 C 
HETATM   11  C19 UNL     1      12.333   5.508  45.690  1.00  0.00     0.011 C 
HETATM   12  C20 UNL     1      12.473   6.924  45.105  1.00  0.00     0.009 C 
HETATM   13  C21 UNL     1      13.672   6.695  44.251  1.00  0.00     0.028 C 
HETATM   14  C32 UNL     1      14.566   5.987  45.167  1.00  0.00     0.030 C 
ENDROOT
BRANCH  13  15
HETATM   15  C22 UNL     1      14.069   7.648  43.242  1.00  0.00     0.058 C 
HETATM   16  C23 UNL     1      15.492   8.108  43.635  1.00  0.00     0.046 C 
BRANCH  15  17
HETATM   17  O3  UNL     1      13.292   8.821  43.449  1.00  0.00    -0.390 OA
ATOM     18  H3  UNL     1      13.087   8.859  44.375  1.00  0.00     0.210 HD
ENDBRANCH  15  17
BRANCH  15  19
HETATM   19  C24 UNL     1      14.101   7.393  41.812  1.00  0.00     0.038 C 
BRANCH  19  20
HETATM   20  C25 UNL     1      13.765   5.931  41.556  1.00  0.00     0.010 C 
BRANCH  20  21
HETATM   21  C26 UNL     1      12.419   5.673  41.021  1.00  0.00     0.009 C 
BRANCH  21  22
HETATM   22  C27 UNL     1      12.158   6.573  39.787  1.00  0.00     0.168 C 
BRANCH  22  23
HETATM   23  O4  UNL     1      11.828   5.654  38.766  1.00  0.00    -0.400 OA
ATOM     24  H4  UNL     1      12.629   5.583  38.260  1.00  0.00     0.209 HD
ENDBRANCH  22  23
ENDBRANCH  21  22
BRANCH  21  25
HETATM   25  C28 UNL     1      11.234   5.654  41.887  1.00  0.00     0.009 C 
BRANCH  25  26
HETATM   26  C29 UNL     1      10.421   6.853  42.150  1.00  0.00     0.027 C 
BRANCH  26  27
HETATM   27  C30 UNL     1       9.153   6.763  42.893  1.00  0.00     0.167 C 
BRANCH  27  28
HETATM   28  O5  UNL     1       8.114   7.470  42.217  1.00  0.00    -0.396 OA
HETATM   29  C31 UNL     1       7.479   8.209  43.228  1.00  0.00     0.201 C 
ENDBRANCH  27  28
ENDBRANCH  26  27
ENDBRANCH  25  26
ENDBRANCH  21  25
ENDBRANCH  20  21
ENDBRANCH  19  20
ENDBRANCH  15  19
ENDBRANCH  13  15
BRANCH   4  30
HETATM   30  C5  UNL     1      16.167   5.595  49.422  1.00  0.00     0.032 C 
BRANCH  30  31
HETATM   31  C6  UNL     1      17.664   5.736  49.281  1.00  0.00    -0.023 C 
HETATM   32  C7  UNL     1      18.294   6.866  49.473  1.00  0.00    -0.079 C 
HETATM   33  C8  UNL     1      19.755   6.959  49.325  1.00  0.00     0.065 C 
HETATM   34  C12 UNL     1      17.532   8.074  49.844  1.00  0.00     0.065 C 
HETATM   35  C9  UNL     1      20.224   8.211  48.661  1.00  0.00     0.124 C 
HETATM   36  C10 UNL     1      19.288   9.369  48.763  1.00  0.00     0.064 C 
HETATM   37  C11 UNL     1      18.425   9.289  49.975  1.00  0.00     0.124 C 
BRANCH  35  38
HETATM   38  O1  UNL     1      20.569   7.947  47.335  1.00  0.00    -0.395 OA
ATOM     39  H1  UNL     1      20.044   8.480  46.751  1.00  0.00     0.210 HD
ENDBRANCH  35  38
BRANCH  37  40
HETATM   40  O2  UNL     1      19.178   9.299  51.120  1.00  0.00    -0.395 OA
ATOM     41  H2  UNL     1      19.012  10.081  51.633  1.00  0.00     0.210 HD
ENDBRANCH  37  40
ENDBRANCH  30  31
ENDBRANCH   4  30
TORSDOF 15
ENDMDL
MODEL 3
REMARK VINA RESULT: -7.861471192      1.952      3.995
REMARK  15 active torsions:
REMARK  status: ('A' for Active; 'I' for Inactive)
REMARK    1  A    between atoms: C4_4  and  C5_5 
REMARK    2  A    between atoms: C5_5  and  C6_6 
REMARK    3  A    between atoms: C9_9  and  O1_10 
REMARK    4  A    between atoms: C11_13  and  O2_14 
REMARK    5  A    between atoms: C21_25  and  C22_26 
REMARK    6  A    between atoms: C22_26  and  O3_28 
REMARK    7  A    between atoms: C22_26  and  C24_30 
REMARK    8  A    between atoms: C24_30  and  C25_31 
REMARK    9  A    between atoms: C25_31  and  C26_32 
REMARK   10  A    between atoms: C26_32  and  C27_33 
REMARK   11  A    between atoms: C26_32  and  C28_36 
REMARK   12  A    between atoms: C27_33  and  O4_34 
REMARK   13  A    between atoms: C28_36  and  C29_37 
REMARK   14  A    between atoms: C29_37  and  C30_38 
REMARK   15  A    between atoms: C30_38  and  O5_39 
ROOT
HETATM    1  C1  UNL     1      13.804   6.750  46.408  1.00  0.00     0.015 C 
HETATM    2  C2  UNL     1      14.051   5.507  46.015  1.00  0.00    -0.079 C 
HETATM    3  C3  UNL     1      14.234   4.465  47.060  1.00  0.00     0.027 C 
HETATM    4  C4  UNL     1      15.452   4.503  47.876  1.00  0.00    -0.002 C 
HETATM    5  C13 UNL     1      16.542   4.419  46.838  1.00  0.00     0.006 C 
HETATM    6  C14 UNL     1      15.999   3.230  46.032  1.00  0.00     0.011 C 
HETATM    7  C15 UNL     1      14.509   3.214  46.260  1.00  0.00    -0.028 C 
HETATM    8  C16 UNL     1      14.087   1.966  46.978  1.00  0.00     0.016 C 
HETATM    9  C17 UNL     1      13.760   3.477  45.021  1.00  0.00    -0.028 C 
HETATM   10  C18 UNL     1      14.096   2.516  43.899  1.00  0.00     0.016 C 
HETATM   11  C19 UNL     1      12.282   3.654  45.188  1.00  0.00     0.011 C 
HETATM   12  C20 UNL     1      11.884   4.967  44.495  1.00  0.00     0.009 C 
HETATM   13  C21 UNL     1      13.109   5.167  43.670  1.00  0.00     0.028 C 
HETATM   14  C32 UNL     1      14.173   4.929  44.646  1.00  0.00     0.030 C 
ENDROOT
BRANCH  13  15
HETATM   15  C22 UNL     1      13.143   6.127  42.593  1.00  0.00     0.058 C 
HETATM   16  C23 UNL     1      11.734   6.764  42.555  1.00  0.00     0.046 C 
BRANCH  15  17
HETATM   17  O3  UNL     1      13.187   5.389  41.379  1.00  0.00    -0.390 OA
ATOM     18  H3  UNL     1      13.396   6.005  40.687  1.00  0.00     0.210 HD
ENDBRANCH  15  17
BRANCH  15  19
HETATM   19  C24 UNL     1      14.091   7.221  42.473  1.00  0.00     0.038 C 
BRANCH  19  20
HETATM   20  C25 UNL     1      13.610   8.396  43.312  1.00  0.00     0.010 C 
BRANCH  20  21
HETATM   21  C26 UNL     1      14.601   8.958  44.244  1.00  0.00     0.009 C 
BRANCH  21  22
HETATM   22  C27 UNL     1      14.321  10.465  44.467  1.00  0.00     0.168 C 
BRANCH  22  23
HETATM   23  O4  UNL     1      13.652  10.501  45.711  1.00  0.00    -0.400 OA
ATOM     24  H4  UNL     1      14.186   9.949  46.270  1.00  0.00     0.209 HD
ENDBRANCH  22  23
ENDBRANCH  21  22
BRANCH  21  25
HETATM   25  C28 UNL     1      16.040   8.736  44.067  1.00  0.00     0.009 C 
BRANCH  25  26
HETATM   26  C29 UNL     1      16.882   8.111  45.101  1.00  0.00     0.027 C 
BRANCH  26  27
HETATM   27  C30 UNL     1      16.825   8.562  46.501  1.00  0.00     0.167 C 
BRANCH  27  28
HETATM   28  O5  UNL     1      18.040   8.256  47.185  1.00  0.00    -0.396 OA
HETATM   29  C31 UNL     1      18.641   7.257  46.402  1.00  0.00     0.201 C 
ENDBRANCH  27  28
ENDBRANCH  26  27
ENDBRANCH  25  26
ENDBRANCH  21  25
ENDBRANCH  20  21
ENDBRANCH  19  20
ENDBRANCH  15  19
ENDBRANCH  13  15
BRANCH   4  30
HETATM   30  C5  UNL     1      15.637   5.487  48.932  1.00  0.00     0.032 C 
BRANCH  30  31
HETATM   31  C6  UNL     1      17.087   5.571  49.348  1.00  0.00    -0.023 C 
HETATM   32  C7  UNL     1      17.553   6.525  50.112  1.00  0.00    -0.079 C 
HETATM   33  C8  UNL     1      18.975   6.569  50.493  1.00  0.00     0.065 C 
HETATM   34  C12 UNL     1      16.646   7.579  50.603  1.00  0.00     0.065 C 
HETATM   35  C9  UNL     1      19.565   7.940  50.494  1.00  0.00     0.124 C 
HETATM   36  C10 UNL     1      18.584   9.051  50.673  1.00  0.00     0.064 C 
HETATM   37  C11 UNL     1      17.375   8.616  51.429  1.00  0.00     0.124 C 
BRANCH  35  38
HETATM   38  O1  UNL     1      20.343   8.124  49.350  1.00  0.00    -0.395 OA
ATOM     39  H1  UNL     1      20.427   9.051  49.161  1.00  0.00     0.210 HD
ENDBRANCH  35  38
BRANCH  37  40
HETATM   40  O2  UNL     1      17.707   8.185  52.687  1.00  0.00    -0.395 OA
ATOM     41  H2  UNL     1      18.614   8.385  52.889  1.00  0.00     0.210 HD
ENDBRANCH  37  40
ENDBRANCH  30  31
ENDBRANCH   4  30
TORSDOF 15
ENDMDL
MODEL 4
REMARK VINA RESULT: -7.727624181      0.938      1.601
REMARK  15 active torsions:
REMARK  status: ('A' for Active; 'I' for Inactive)
REMARK    1  A    between atoms: C4_4  and  C5_5 
REMARK    2  A    between atoms: C5_5  and  C6_6 
REMARK    3  A    between atoms: C9_9  and  O1_10 
REMARK    4  A    between atoms: C11_13  and  O2_14 
REMARK    5  A    between atoms: C21_25  and  C22_26 
REMARK    6  A    between atoms: C22_26  and  O3_28 
REMARK    7  A    between atoms: C22_26  and  C24_30 
REMARK    8  A    between atoms: C24_30  and  C25_31 
REMARK    9  A    between atoms: C25_31  and  C26_32 
REMARK   10  A    between atoms: C26_32  and  C27_33 
REMARK   11  A    between atoms: C26_32  and  C28_36 
REMARK   12  A    between atoms: C27_33  and  O4_34 
REMARK   13  A    between atoms: C28_36  and  C29_37 
REMARK   14  A    between atoms: C29_37  and  C30_38 
REMARK   15  A    between atoms: C30_38  and  O5_39 
ROOT
HETATM    1  C1  UNL     1      15.932   7.148  46.748  1.00  0.00     0.015 C 
HETATM    2  C2  UNL     1      15.194   6.126  46.333  1.00  0.00    -0.079 C 
HETATM    3  C3  UNL     1      14.875   5.050  47.309  1.00  0.00     0.027 C 
HETATM    4  C4  UNL     1      15.956   4.159  47.742  1.00  0.00    -0.002 C 
HETATM    5  C13 UNL     1      16.438   3.575  46.439  1.00  0.00     0.006 C 
HETATM    6  C14 UNL     1      15.078   3.170  45.852  1.00  0.00     0.011 C 
HETATM    7  C15 UNL     1      14.057   4.075  46.497  1.00  0.00    -0.028 C 
HETATM    8  C16 UNL     1      13.095   3.289  47.337  1.00  0.00     0.016 C 
HETATM    9  C17 UNL     1      13.413   4.963  45.516  1.00  0.00    -0.028 C 
HETATM   10  C18 UNL     1      12.757   4.220  44.370  1.00  0.00     0.016 C 
HETATM   11  C19 UNL     1      12.515   6.014  46.093  1.00  0.00     0.011 C 
HETATM   12  C20 UNL     1      12.942   7.370  45.509  1.00  0.00     0.009 C 
HETATM   13  C21 UNL     1      13.758   6.875  44.364  1.00  0.00     0.028 C 
HETATM   14  C32 UNL     1      14.583   5.849  45.002  1.00  0.00     0.030 C 
ENDROOT
BRANCH  13  15
HETATM   15  C22 UNL     1      14.170   7.756  43.298  1.00  0.00     0.058 C 
HETATM   16  C23 UNL     1      15.432   8.484  43.818  1.00  0.00     0.046 C 
BRANCH  15  17
HETATM   17  O3  UNL     1      13.210   8.803  43.228  1.00  0.00    -0.390 OA
ATOM     18  H3  UNL     1      13.553   9.529  43.735  1.00  0.00     0.210 HD
ENDBRANCH  15  17
BRANCH  15  19
HETATM   19  C24 UNL     1      14.466   7.345  41.936  1.00  0.00     0.038 C 
BRANCH  19  20
HETATM   20  C25 UNL     1      13.569   6.176  41.559  1.00  0.00     0.010 C 
BRANCH  20  21
HETATM   21  C26 UNL     1      12.354   6.526  40.805  1.00  0.00     0.009 C 
BRANCH  21  22
HETATM   22  C27 UNL     1      11.099   6.268  41.676  1.00  0.00     0.168 C 
BRANCH  22  23
HETATM   23  O4  UNL     1      10.742   7.555  42.139  1.00  0.00    -0.400 OA
ATOM     24  H4  UNL     1      11.556   7.905  42.480  1.00  0.00     0.209 HD
ENDBRANCH  22  23
ENDBRANCH  21  22
BRANCH  21  25
HETATM   25  C28 UNL     1      12.125   6.039  39.440  1.00  0.00     0.009 C 
BRANCH  25  26
HETATM   26  C29 UNL     1      12.827   4.871  38.883  1.00  0.00     0.027 C 
BRANCH  26  27
HETATM   27  C30 UNL     1      12.378   3.501  39.184  1.00  0.00     0.167 C 
BRANCH  27  28
HETATM   28  O5  UNL     1      13.466   2.581  39.115  1.00  0.00    -0.396 OA
HETATM   29  C31 UNL     1      14.263   2.896  40.228  1.00  0.00     0.201 C 
ENDBRANCH  27  28
ENDBRANCH  26  27
ENDBRANCH  25  26
ENDBRANCH  21  25
ENDBRANCH  20  21
ENDBRANCH  19  20
ENDBRANCH  15  19
ENDBRANCH  13  15
BRANCH   4  30
HETATM   30  C5  UNL     1      16.983   4.597  48.675  1.00  0.00     0.032 C 
BRANCH  30  31
HETATM   31  C6  UNL     1      16.447   5.647  49.619  1.00  0.00    -0.023 C 
HETATM   32  C7  UNL     1      17.047   6.791  49.825  1.00  0.00    -0.079 C 
HETATM   33  C8  UNL     1      16.490   7.788  50.754  1.00  0.00     0.065 C 
HETATM   34  C12 UNL     1      18.306   7.094  49.118  1.00  0.00     0.065 C 
HETATM   35  C9  UNL     1      17.512   8.485  51.588  1.00  0.00     0.124 C 
HETATM   36  C10 UNL     1      18.888   8.513  51.009  1.00  0.00     0.064 C 
HETATM   37  C11 UNL     1      18.873   8.439  49.520  1.00  0.00     0.124 C 
BRANCH  35  38
HETATM   38  O1  UNL     1      17.512   7.959  52.880  1.00  0.00    -0.395 OA
ATOM     39  H1  UNL     1      16.629   7.715  53.131  1.00  0.00     0.210 HD
ENDBRANCH  35  38
BRANCH  37  40
HETATM   40  O2  UNL     1      18.203   9.505  48.979  1.00  0.00    -0.395 OA
ATOM     41  H2  UNL     1      18.718   9.924  48.300  1.00  0.00     0.210 HD
ENDBRANCH  37  40
ENDBRANCH  30  31
ENDBRANCH   4  30
TORSDOF 15
ENDMDL
MODEL 5
REMARK VINA RESULT: -7.656868274      3.894     10.960
REMARK  15 active torsions:
REMARK  status: ('A' for Active; 'I' for Inactive)
REMARK    1  A    between atoms: C4_4  and  C5_5 
REMARK    2  A    between atoms: C5_5  and  C6_6 
REMARK    3  A    between atoms: C9_9  and  O1_10 
REMARK    4  A    between atoms: C11_13  and  O2_14 
REMARK    5  A    between atoms: C21_25  and  C22_26 
REMARK    6  A    between atoms: C22_26  and  O3_28 
REMARK    7  A    between atoms: C22_26  and  C24_30 
REMARK    8  A    between atoms: C24_30  and  C25_31 
REMARK    9  A    between atoms: C25_31  and  C26_32 
REMARK   10  A    between atoms: C26_32  and  C27_33 
REMARK   11  A    between atoms: C26_32  and  C28_36 
REMARK   12  A    between atoms: C27_33  and  O4_34 
REMARK   13  A    between atoms: C28_36  and  C29_37 
REMARK   14  A    between atoms: C29_37  and  C30_38 
REMARK   15  A    between atoms: C30_38  and  O5_39 
ROOT
HETATM    1  C1  UNL     1      19.023   7.487  47.221  1.00  0.00     0.015 C 
HETATM    2  C2  UNL     1      18.625   7.345  48.479  1.00  0.00    -0.079 C 
HETATM    3  C3  UNL     1      17.712   6.217  48.803  1.00  0.00     0.027 C 
HETATM    4  C4  UNL     1      16.329   6.279  48.319  1.00  0.00    -0.002 C 
HETATM    5  C13 UNL     1      15.829   7.564  48.927  1.00  0.00     0.006 C 
HETATM    6  C14 UNL     1      16.300   7.333  50.370  1.00  0.00     0.011 C 
HETATM    7  C15 UNL     1      17.466   6.381  50.284  1.00  0.00    -0.028 C 
HETATM    8  C16 UNL     1      17.153   5.082  50.964  1.00  0.00     0.016 C 
HETATM    9  C17 UNL     1      18.721   7.007  50.730  1.00  0.00    -0.028 C 
HETATM   10  C18 UNL     1      18.647   7.568  52.137  1.00  0.00     0.016 C 
HETATM   11  C19 UNL     1      19.959   6.193  50.514  1.00  0.00     0.011 C 
HETATM   12  C20 UNL     1      20.979   7.075  49.776  1.00  0.00     0.009 C 
HETATM   13  C21 UNL     1      20.352   8.403  50.028  1.00  0.00     0.028 C 
HETATM   14  C32 UNL     1      18.951   8.144  49.695  1.00  0.00     0.030 C 
ENDROOT
BRANCH  13  15
HETATM   15  C22 UNL     1      21.071   9.631  49.788  1.00  0.00     0.058 C 
HETATM   16  C23 UNL     1      19.991  10.731  49.662  1.00  0.00     0.046 C 
BRANCH  15  17
HETATM   17  O3  UNL     1      21.596   9.555  48.469  1.00  0.00    -0.390 OA
ATOM     18  H3  UNL     1      21.379  10.371  48.035  1.00  0.00     0.210 HD
ENDBRANCH  15  17
BRANCH  15  19
HETATM   19  C24 UNL     1      22.113  10.176  50.642  1.00  0.00     0.038 C 
BRANCH  19  20
HETATM   20  C25 UNL     1      22.136  11.690  50.501  1.00  0.00     0.010 C 
BRANCH  20  21
HETATM   21  C26 UNL     1      23.376  12.350  50.940  1.00  0.00     0.009 C 
BRANCH  21  22
HETATM   22  C27 UNL     1      23.906  11.675  52.230  1.00  0.00     0.168 C 
BRANCH  22  23
HETATM   23  O4  UNL     1      25.295  11.558  52.000  1.00  0.00    -0.400 OA
ATOM     24  H4  UNL     1      25.672  11.603  52.871  1.00  0.00     0.209 HD
ENDBRANCH  22  23
ENDBRANCH  21  22
BRANCH  21  25
HETATM   25  C28 UNL     1      23.474  13.809  51.060  1.00  0.00     0.009 C 
BRANCH  25  26
HETATM   26  C29 UNL     1      24.273  14.632  50.138  1.00  0.00     0.027 C 
BRANCH  26  27
HETATM   27  C30 UNL     1      25.620  15.099  50.510  1.00  0.00     0.167 C 
BRANCH  27  28
HETATM   28  O5  UNL     1      26.403  14.030  51.037  1.00  0.00    -0.396 OA
HETATM   29  C31 UNL     1      27.336  13.747  50.025  1.00  0.00     0.201 C 
ENDBRANCH  27  28
ENDBRANCH  26  27
ENDBRANCH  25  26
ENDBRANCH  21  25
ENDBRANCH  20  21
ENDBRANCH  19  20
ENDBRANCH  15  19
ENDBRANCH  13  15
BRANCH   4  30
HETATM   30  C5  UNL     1      15.995   6.049  46.922  1.00  0.00     0.032 C 
BRANCH  30  31
HETATM   31  C6  UNL     1      14.785   6.856  46.513  1.00  0.00    -0.023 C 
HETATM   32  C7  UNL     1      14.777   7.647  45.472  1.00  0.00    -0.079 C 
HETATM   33  C8  UNL     1      13.575   8.417  45.108  1.00  0.00     0.065 C 
HETATM   34  C12 UNL     1      15.990   7.778  44.642  1.00  0.00     0.065 C 
HETATM   35  C9  UNL     1      13.857   9.806  44.642  1.00  0.00     0.124 C 
HETATM   36  C10 UNL     1      15.225  10.021  44.085  1.00  0.00     0.064 C 
HETATM   37  C11 UNL     1      15.803   8.771  43.515  1.00  0.00     0.124 C 
BRANCH  35  38
HETATM   38  O1  UNL     1      13.570  10.717  45.659  1.00  0.00    -0.395 OA
ATOM     39  H1  UNL     1      12.790  11.213  45.439  1.00  0.00     0.210 HD
ENDBRANCH  35  38
BRANCH  37  40
HETATM   40  O2  UNL     1      15.034   8.296  42.484  1.00  0.00    -0.395 OA
ATOM     41  H2  UNL     1      14.215   8.773  42.420  1.00  0.00     0.210 HD
ENDBRANCH  37  40
ENDBRANCH  30  31
ENDBRANCH   4  30
TORSDOF 15
ENDMDL
