MODEL 1
REMARK VINA RESULT: -6.748122207      0.000      0.000
REMARK  13 active torsions:
REMARK  status: ('A' for Active; 'I' for Inactive)
REMARK    1  A    between atoms: O1_2  and  C2_3 
REMARK    2  A    between atoms: C12_13  and  C13_14 
REMARK    3  A    between atoms: C13_14  and  C14_15 
REMARK       I    between atoms: C14_15  and  N1_17 
REMARK    4  A    between atoms: N1_17  and  C15_19 
REMARK    5  A    between atoms: C15_19  and  C16_20 
REMARK    6  A    between atoms: C16_20  and  N2_21 
REMARK    7  A    between atoms: N2_21  and  C17_23 
REMARK    8  A    between atoms: C17_23  and  C18_24 
REMARK    9  A    between atoms: C18_24  and  N3_25 
REMARK   10  A    between atoms: N3_25  and  C19_27 
REMARK   11  A    between atoms: C19_27  and  C20_28 
REMARK   12  A    between atoms: C20_28  and  C21_29 
REMARK   13  A    between atoms: C21_29  and  N4_30 
ROOT
HETATM    1  C2  UNL     1      -1.575 -16.075  10.308  1.00  0.00     0.069 A 
HETATM    2  C3  UNL     1      -1.796 -16.417   9.003  1.00  0.00     0.044 A 
HETATM    3  C4  UNL     1      -2.799 -15.828   8.194  1.00  0.00    -0.055 A 
HETATM    4  C5  UNL     1      -3.613 -14.855   8.723  1.00  0.00     0.014 A 
HETATM    5  C6  UNL     1      -3.430 -14.480  10.027  1.00  0.00    -0.055 A 
HETATM    6  C7  UNL     1      -2.411 -15.104  10.785  1.00  0.00     0.044 A 
HETATM    7  C8  UNL     1      -4.146 -13.470  10.842  1.00  0.00     0.038 C 
HETATM    8  C9  UNL     1      -5.601 -13.658  11.092  1.00  0.00     0.005 C 
HETATM    9  C10 UNL     1      -6.040 -15.084  11.288  1.00  0.00     0.001 C 
HETATM   10  C11 UNL     1      -6.716 -15.688  10.108  1.00  0.00     0.005 C 
HETATM   11  C12 UNL     1      -8.189 -16.000  10.328  1.00  0.00    -0.006 C 
HETATM   12  C22 UNL     1      -8.700 -16.523   8.987  1.00  0.00     0.005 C 
HETATM   13  C23 UNL     1      -9.503 -15.462   8.283  1.00  0.00     0.000 C 
HETATM   14  C24 UNL     1      -8.886 -15.064   6.960  1.00  0.00     0.000 C 
HETATM   15  C25 UNL     1      -8.899 -16.213   5.974  1.00  0.00     0.000 C 
HETATM   16  C26 UNL     1      -8.125 -15.771   4.750  1.00  0.00     0.000 C 
HETATM   17  C27 UNL     1      -6.698 -15.564   5.170  1.00  0.00     0.000 C 
HETATM   18  C28 UNL     1      -5.716 -15.992   4.112  1.00  0.00     0.004 C 
HETATM   19  C29 UNL     1      -4.437 -15.174   4.294  1.00  0.00     0.027 C 
HETATM   20  C30 UNL     1      -3.278 -15.886   3.751  1.00  0.00    -0.031 C 
HETATM   21  C31 UNL     1      -2.174 -16.044   4.450  1.00  0.00    -0.030 C 
HETATM   22  C32 UNL     1      -2.079 -15.499   5.817  1.00  0.00     0.031 C 
HETATM   23  C33 UNL     1      -2.772 -16.428   6.827  1.00  0.00     0.042 C 
ENDROOT
BRANCH  11  24
HETATM   24  C13 UNL     1      -8.400 -16.984  11.424  1.00  0.00     0.107 C 
BRANCH  24  25
HETATM   25  C14 UNL     1      -8.945 -18.264  10.851  1.00  0.00     0.221 C 
HETATM   26  O2  UNL     1     -10.169 -18.489  10.947  1.00  0.00    -0.273 OA
HETATM   27  N1  UNL     1      -8.098 -19.200  10.212  1.00  0.00    -0.336 N 
ATOM     28  H1  UNL     1      -7.116 -18.925  10.163  1.00  0.00     0.168 HD
BRANCH  27  29
HETATM   29  C15 UNL     1      -8.388 -20.442   9.635  1.00  0.00     0.107 C 
BRANCH  29  30
HETATM   30  C16 UNL     1      -7.941 -20.785   8.254  1.00  0.00     0.100 C 
BRANCH  30  31
HETATM   31  N2  UNL     1      -6.732 -21.496   8.148  1.00  0.00    -0.393 N 
ATOM     32  H2  UNL     1      -6.132 -21.618   8.964  1.00  0.00     0.159 HD
BRANCH  31  33
HETATM   33  C17 UNL     1      -6.355 -22.044   6.888  1.00  0.00     0.163 C 
BRANCH  33  34
HETATM   34  C18 UNL     1      -4.936 -22.326   6.618  1.00  0.00     0.074 C 
BRANCH  34  35
HETATM   35  N3  UNL     1      -3.945 -21.411   7.002  1.00  0.00    -0.401 N 
ATOM     36  H3  UNL     1      -3.839 -20.522   6.514  1.00  0.00     0.158 HD
BRANCH  35  37
HETATM   37  C19 UNL     1      -3.095 -21.750   8.086  1.00  0.00     0.120 C 
BRANCH  37  38
HETATM   38  C20 UNL     1      -3.173 -20.597   9.095  1.00  0.00     0.039 C 
BRANCH  38  39
HETATM   39  C21 UNL     1      -3.748 -19.411   8.356  1.00  0.00     0.166 C 
BRANCH  39  40
HETATM   40  N4  UNL     1      -4.948 -18.960   9.065  1.00  0.00     0.017 NA
HETATM   41  F1  UNL     1      -4.558 -18.128  10.073  1.00  0.00    -0.101 F 
HETATM   42  F2  UNL     1      -5.715 -18.207   8.238  1.00  0.00    -0.101 F 
ENDBRANCH  39  40
ENDBRANCH  38  39
ENDBRANCH  37  38
ENDBRANCH  35  37
ENDBRANCH  34  35
ENDBRANCH  33  34
ENDBRANCH  31  33
ENDBRANCH  30  31
ENDBRANCH  29  30
ENDBRANCH  27  29
ENDBRANCH  24  25
ENDBRANCH  11  24
BRANCH   1  43
HETATM   43  O1  UNL     1      -0.586 -16.666  11.080  1.00  0.00    -0.356 OA
HETATM   44  C1  UNL     1      -0.453 -18.073  11.002  1.00  0.00     0.210 C 
ENDBRANCH   1  43
TORSDOF 13
ENDMDL
MODEL 2
REMARK VINA RESULT: -6.657889743      1.257      1.975
REMARK  13 active torsions:
REMARK  status: ('A' for Active; 'I' for Inactive)
REMARK    1  A    between atoms: O1_2  and  C2_3 
REMARK    2  A    between atoms: C12_13  and  C13_14 
REMARK    3  A    between atoms: C13_14  and  C14_15 
REMARK       I    between atoms: C14_15  and  N1_17 
REMARK    4  A    between atoms: N1_17  and  C15_19 
REMARK    5  A    between atoms: C15_19  and  C16_20 
REMARK    6  A    between atoms: C16_20  and  N2_21 
REMARK    7  A    between atoms: N2_21  and  C17_23 
REMARK    8  A    between atoms: C17_23  and  C18_24 
REMARK    9  A    between atoms: C18_24  and  N3_25 
REMARK   10  A    between atoms: N3_25  and  C19_27 
REMARK   11  A    between atoms: C19_27  and  C20_28 
REMARK   12  A    between atoms: C20_28  and  C21_29 
REMARK   13  A    between atoms: C21_29  and  N4_30 
ROOT
HETATM    1  C2  UNL     1      -1.394 -15.916  10.273  1.00  0.00     0.069 A 
HETATM    2  C3  UNL     1      -1.627 -16.319   8.988  1.00  0.00     0.044 A 
HETATM    3  C4  UNL     1      -2.628 -15.758   8.157  1.00  0.00    -0.055 A 
HETATM    4  C5  UNL     1      -3.426 -14.749   8.642  1.00  0.00     0.014 A 
HETATM    5  C6  UNL     1      -3.229 -14.312   9.925  1.00  0.00    -0.055 A 
HETATM    6  C7  UNL     1      -2.213 -14.912  10.707  1.00  0.00     0.044 A 
HETATM    7  C8  UNL     1      -3.927 -13.254  10.693  1.00  0.00     0.038 C 
HETATM    8  C9  UNL     1      -5.383 -13.411  10.961  1.00  0.00     0.005 C 
HETATM    9  C10 UNL     1      -5.838 -14.819  11.230  1.00  0.00     0.001 C 
HETATM   10  C11 UNL     1      -6.530 -15.471  10.086  1.00  0.00     0.005 C 
HETATM   11  C12 UNL     1      -8.006 -15.753  10.329  1.00  0.00    -0.006 C 
HETATM   12  C22 UNL     1      -8.533 -16.335   9.020  1.00  0.00     0.005 C 
HETATM   13  C23 UNL     1      -9.326 -15.300   8.269  1.00  0.00     0.000 C 
HETATM   14  C24 UNL     1      -8.713 -14.976   6.923  1.00  0.00     0.000 C 
HETATM   15  C25 UNL     1      -8.747 -16.172   5.996  1.00  0.00     0.000 C 
HETATM   16  C26 UNL     1      -7.976 -15.802   4.747  1.00  0.00     0.000 C 
HETATM   17  C27 UNL     1      -6.543 -15.593   5.148  1.00  0.00     0.000 C 
HETATM   18  C28 UNL     1      -5.574 -16.085   4.106  1.00  0.00     0.004 C 
HETATM   19  C29 UNL     1      -4.284 -15.276   4.239  1.00  0.00     0.027 C 
HETATM   20  C30 UNL     1      -3.138 -16.029   3.725  1.00  0.00    -0.031 C 
HETATM   21  C31 UNL     1      -2.031 -16.166   4.425  1.00  0.00    -0.030 C 
HETATM   22  C32 UNL     1      -1.920 -15.556   5.762  1.00  0.00     0.031 C 
HETATM   23  C33 UNL     1      -2.618 -16.425   6.821  1.00  0.00     0.042 C 
ENDROOT
BRANCH  11  24
HETATM   24  C13 UNL     1      -8.222 -16.679  11.475  1.00  0.00     0.107 C 
BRANCH  24  25
HETATM   25  C14 UNL     1      -7.335 -17.885  11.319  1.00  0.00     0.221 C 
HETATM   26  O2  UNL     1      -7.750 -18.849  10.643  1.00  0.00    -0.273 OA
HETATM   27  N1  UNL     1      -6.055 -17.935  11.918  1.00  0.00    -0.336 N 
ATOM     28  H1  UNL     1      -5.791 -17.096  12.436  1.00  0.00     0.168 HD
BRANCH  27  29
HETATM   29  C15 UNL     1      -5.090 -18.950  11.916  1.00  0.00     0.107 C 
BRANCH  29  30
HETATM   30  C16 UNL     1      -3.855 -18.851  11.087  1.00  0.00     0.100 C 
BRANCH  30  31
HETATM   31  N2  UNL     1      -3.789 -19.691   9.962  1.00  0.00    -0.393 N 
ATOM     32  H2  UNL     1      -4.557 -19.716   9.290  1.00  0.00     0.159 HD
BRANCH  31  33
HETATM   33  C17 UNL     1      -2.638 -20.509   9.769  1.00  0.00     0.163 C 
BRANCH  33  34
HETATM   34  C18 UNL     1      -2.581 -21.417   8.612  1.00  0.00     0.074 C 
BRANCH  34  35
HETATM   35  N3  UNL     1      -3.410 -21.203   7.501  1.00  0.00    -0.401 N 
ATOM     36  H3  UNL     1      -3.135 -20.556   6.762  1.00  0.00     0.158 HD
BRANCH  35  37
HETATM   37  C19 UNL     1      -4.639 -21.907   7.429  1.00  0.00     0.120 C 
BRANCH  37  38
HETATM   38  C20 UNL     1      -5.575 -21.086   6.532  1.00  0.00     0.039 C 
BRANCH  38  39
HETATM   39  C21 UNL     1      -6.123 -19.967   7.387  1.00  0.00     0.166 C 
BRANCH  39  40
HETATM   40  N4  UNL     1      -5.216 -18.820   7.290  1.00  0.00     0.017 NA
HETATM   41  F1  UNL     1      -4.865 -18.667   5.981  1.00  0.00    -0.101 F 
HETATM   42  F2  UNL     1      -5.871 -17.684   7.634  1.00  0.00    -0.101 F 
ENDBRANCH  39  40
ENDBRANCH  38  39
ENDBRANCH  37  38
ENDBRANCH  35  37
ENDBRANCH  34  35
ENDBRANCH  33  34
ENDBRANCH  31  33
ENDBRANCH  30  31
ENDBRANCH  29  30
ENDBRANCH  27  29
ENDBRANCH  24  25
ENDBRANCH  11  24
BRANCH   1  43
HETATM   43  O1  UNL     1      -0.407 -16.481  11.067  1.00  0.00    -0.356 OA
HETATM   44  C1  UNL     1      -0.263 -17.888  11.024  1.00  0.00     0.210 C 
ENDBRANCH   1  43
TORSDOF 13
ENDMDL
MODEL 3
REMARK VINA RESULT: -6.584187597      1.390      1.838
REMARK  13 active torsions:
REMARK  status: ('A' for Active; 'I' for Inactive)
REMARK    1  A    between atoms: O1_2  and  C2_3 
REMARK    2  A    between atoms: C12_13  and  C13_14 
REMARK    3  A    between atoms: C13_14  and  C14_15 
REMARK       I    between atoms: C14_15  and  N1_17 
REMARK    4  A    between atoms: N1_17  and  C15_19 
REMARK    5  A    between atoms: C15_19  and  C16_20 
REMARK    6  A    between atoms: C16_20  and  N2_21 
REMARK    7  A    between atoms: N2_21  and  C17_23 
REMARK    8  A    between atoms: C17_23  and  C18_24 
REMARK    9  A    between atoms: C18_24  and  N3_25 
REMARK   10  A    between atoms: N3_25  and  C19_27 
REMARK   11  A    between atoms: C19_27  and  C20_28 
REMARK   12  A    between atoms: C20_28  and  C21_29 
REMARK   13  A    between atoms: C21_29  and  N4_30 
ROOT
HETATM    1  C2  UNL     1      -1.667 -16.112  10.318  1.00  0.00     0.069 A 
HETATM    2  C3  UNL     1      -1.945 -16.530   9.047  1.00  0.00     0.044 A 
HETATM    3  C4  UNL     1      -2.950 -15.955   8.232  1.00  0.00    -0.055 A 
HETATM    4  C5  UNL     1      -3.705 -14.914   8.718  1.00  0.00     0.014 A 
HETATM    5  C6  UNL     1      -3.463 -14.461   9.988  1.00  0.00    -0.055 A 
HETATM    6  C7  UNL     1      -2.445 -15.076  10.754  1.00  0.00     0.044 A 
HETATM    7  C8  UNL     1      -4.109 -13.369  10.753  1.00  0.00     0.038 C 
HETATM    8  C9  UNL     1      -5.562 -13.477  11.061  1.00  0.00     0.005 C 
HETATM    9  C10 UNL     1      -6.051 -14.866  11.367  1.00  0.00     0.001 C 
HETATM   10  C11 UNL     1      -6.791 -15.518  10.253  1.00  0.00     0.005 C 
HETATM   11  C12 UNL     1      -8.268 -15.751  10.539  1.00  0.00    -0.006 C 
HETATM   12  C22 UNL     1      -8.845 -16.340   9.254  1.00  0.00     0.005 C 
HETATM   13  C23 UNL     1      -9.626 -15.295   8.504  1.00  0.00     0.000 C 
HETATM   14  C24 UNL     1      -9.039 -15.013   7.138  1.00  0.00     0.000 C 
HETATM   15  C25 UNL     1      -9.132 -16.224   6.233  1.00  0.00     0.000 C 
HETATM   16  C26 UNL     1      -8.383 -15.899   4.959  1.00  0.00     0.000 C 
HETATM   17  C27 UNL     1      -6.935 -15.726   5.320  1.00  0.00     0.000 C 
HETATM   18  C28 UNL     1      -6.008 -16.265   4.263  1.00  0.00     0.004 C 
HETATM   19  C29 UNL     1      -4.691 -15.493   4.349  1.00  0.00     0.027 C 
HETATM   20  C30 UNL     1      -3.581 -16.289   3.820  1.00  0.00    -0.031 C 
HETATM   21  C31 UNL     1      -2.462 -16.447   4.494  1.00  0.00    -0.030 C 
HETATM   22  C32 UNL     1      -2.298 -15.816   5.817  1.00  0.00     0.031 C 
HETATM   23  C33 UNL     1      -2.994 -16.645   6.909  1.00  0.00     0.042 C 
ENDROOT
BRANCH  11  24
HETATM   24  C13 UNL     1      -8.481 -16.649  11.706  1.00  0.00     0.107 C 
BRANCH  24  25
HETATM   25  C14 UNL     1      -8.215 -18.073  11.298  1.00  0.00     0.221 C 
HETATM   26  O2  UNL     1      -7.058 -18.524  11.421  1.00  0.00    -0.273 OA
HETATM   27  N1  UNL     1      -9.248 -18.894  10.786  1.00  0.00    -0.336 N 
ATOM     28  H1  UNL     1     -10.164 -18.448  10.738  1.00  0.00     0.168 HD
BRANCH  27  29
HETATM   29  C15 UNL     1      -9.215 -20.219  10.336  1.00  0.00     0.107 C 
BRANCH  29  30
HETATM   30  C16 UNL     1      -8.710 -20.569   8.977  1.00  0.00     0.100 C 
BRANCH  30  31
HETATM   31  N2  UNL     1      -7.319 -20.481   8.786  1.00  0.00    -0.393 N 
ATOM     32  H2  UNL     1      -6.704 -21.222   9.123  1.00  0.00     0.159 HD
BRANCH  31  33
HETATM   33  C17 UNL     1      -6.778 -19.345   8.117  1.00  0.00     0.163 C 
BRANCH  33  34
HETATM   34  C18 UNL     1      -5.429 -18.873   8.468  1.00  0.00     0.074 C 
BRANCH  34  35
HETATM   35  N3  UNL     1      -4.695 -19.511   9.478  1.00  0.00    -0.401 N 
ATOM     36  H3  UNL     1      -5.104 -19.669  10.399  1.00  0.00     0.158 HD
BRANCH  35  37
HETATM   37  C19 UNL     1      -3.372 -19.933   9.191  1.00  0.00     0.120 C 
BRANCH  37  38
HETATM   38  C20 UNL     1      -3.352 -20.379   7.723  1.00  0.00     0.039 C 
BRANCH  38  39
HETATM   39  C21 UNL     1      -3.372 -21.890   7.728  1.00  0.00     0.166 C 
BRANCH  39  40
HETATM   40  N4  UNL     1      -4.768 -22.336   7.723  1.00  0.00     0.017 NA
HETATM   41  F1  UNL     1      -5.349 -21.897   6.570  1.00  0.00    -0.101 F 
HETATM   42  F2  UNL     1      -4.818 -23.690   7.672  1.00  0.00    -0.101 F 
ENDBRANCH  39  40
ENDBRANCH  38  39
ENDBRANCH  37  38
ENDBRANCH  35  37
ENDBRANCH  34  35
ENDBRANCH  33  34
ENDBRANCH  31  33
ENDBRANCH  30  31
ENDBRANCH  29  30
ENDBRANCH  27  29
ENDBRANCH  24  25
ENDBRANCH  11  24
BRANCH   1  43
HETATM   43  O1  UNL     1      -0.677 -16.692  11.098  1.00  0.00    -0.356 OA
HETATM   44  C1  UNL     1      -0.592 -18.105  11.098  1.00  0.00     0.210 C 
ENDBRANCH   1  43
TORSDOF 13
ENDMDL
MODEL 4
REMARK VINA RESULT: -6.517639500      3.013      7.168
REMARK  13 active torsions:
REMARK  status: ('A' for Active; 'I' for Inactive)
REMARK    1  A    between atoms: O1_2  and  C2_3 
REMARK    2  A    between atoms: C12_13  and  C13_14 
REMARK    3  A    between atoms: C13_14  and  C14_15 
REMARK       I    between atoms: C14_15  and  N1_17 
REMARK    4  A    between atoms: N1_17  and  C15_19 
REMARK    5  A    between atoms: C15_19  and  C16_20 
REMARK    6  A    between atoms: C16_20  and  N2_21 
REMARK    7  A    between atoms: N2_21  and  C17_23 
REMARK    8  A    between atoms: C17_23  and  C18_24 
REMARK    9  A    between atoms: C18_24  and  N3_25 
REMARK   10  A    between atoms: N3_25  and  C19_27 
REMARK   11  A    between atoms: C19_27  and  C20_28 
REMARK   12  A    between atoms: C20_28  and  C21_29 
REMARK   13  A    between atoms: C21_29  and  N4_30 
ROOT
HETATM    1  C2  UNL     1      -6.601 -16.722   3.259  1.00  0.00     0.069 A 
HETATM    2  C3  UNL     1      -7.477 -16.518   4.288  1.00  0.00     0.044 A 
HETATM    3  C4  UNL     1      -7.079 -16.194   5.608  1.00  0.00    -0.055 A 
HETATM    4  C5  UNL     1      -5.741 -16.070   5.902  1.00  0.00     0.014 A 
HETATM    5  C6  UNL     1      -4.826 -16.267   4.903  1.00  0.00    -0.055 A 
HETATM    6  C7  UNL     1      -5.285 -16.588   3.604  1.00  0.00     0.044 A 
HETATM    7  C8  UNL     1      -3.346 -16.193   4.933  1.00  0.00     0.038 C 
HETATM    8  C9  UNL     1      -2.603 -17.140   5.810  1.00  0.00     0.005 C 
HETATM    9  C10 UNL     1      -3.189 -18.522   5.903  1.00  0.00     0.001 C 
HETATM   10  C11 UNL     1      -3.936 -18.790   7.162  1.00  0.00     0.005 C 
HETATM   11  C12 UNL     1      -3.282 -19.826   8.065  1.00  0.00    -0.006 C 
HETATM   12  C22 UNL     1      -4.153 -19.884   9.318  1.00  0.00     0.005 C 
HETATM   13  C23 UNL     1      -3.488 -19.150  10.451  1.00  0.00     0.000 C 
HETATM   14  C24 UNL     1      -4.311 -17.975  10.931  1.00  0.00     0.000 C 
HETATM   15  C25 UNL     1      -5.622 -18.427  11.539  1.00  0.00     0.000 C 
HETATM   16  C26 UNL     1      -6.436 -17.187  11.840  1.00  0.00     0.000 C 
HETATM   17  C27 UNL     1      -6.760 -16.532  10.527  1.00  0.00     0.000 C 
HETATM   18  C28 UNL     1      -8.139 -15.928  10.507  1.00  0.00     0.004 C 
HETATM   19  C29 UNL     1      -8.137 -14.774   9.505  1.00  0.00     0.027 C 
HETATM   20  C30 UNL     1      -9.484 -14.527   8.986  1.00  0.00    -0.031 C 
HETATM   21  C31 UNL     1      -9.719 -14.427   7.695  1.00  0.00    -0.030 C 
HETATM   22  C32 UNL     1      -8.615 -14.562   6.728  1.00  0.00     0.031 C 
HETATM   23  C33 UNL     1      -8.279 -16.042   6.483  1.00  0.00     0.042 C 
ENDROOT
BRANCH  11  24
HETATM   24  C13 UNL     1      -3.169 -21.156   7.406  1.00  0.00     0.107 C 
BRANCH  24  25
HETATM   25  C14 UNL     1      -2.317 -22.064   8.253  1.00  0.00     0.221 C 
HETATM   26  O2  UNL     1      -2.750 -23.201   8.532  1.00  0.00    -0.273 OA
HETATM   27  N1  UNL     1      -1.050 -21.649   8.726  1.00  0.00    -0.336 N 
ATOM     28  H1  UNL     1      -0.770 -20.712   8.434  1.00  0.00     0.168 HD
BRANCH  27  29
HETATM   29  C15 UNL     1      -0.118 -22.315   9.531  1.00  0.00     0.107 C 
BRANCH  29  30
HETATM   30  C16 UNL     1       0.818 -21.570  10.422  1.00  0.00     0.100 C 
BRANCH  30  31
HETATM   31  N2  UNL     1       0.841 -20.172  10.273  1.00  0.00    -0.393 N 
ATOM     32  H2  UNL     1       1.404 -19.740   9.540  1.00  0.00     0.159 HD
BRANCH  31  33
HETATM   33  C17 UNL     1       0.067 -19.365  11.156  1.00  0.00     0.163 C 
BRANCH  33  34
HETATM   34  C18 UNL     1       0.147 -17.899  11.054  1.00  0.00     0.074 C 
BRANCH  34  35
HETATM   35  N3  UNL     1      -0.825 -17.184  10.339  1.00  0.00    -0.401 N 
ATOM     36  H3  UNL     1      -1.708 -17.622  10.078  1.00  0.00     0.158 HD
BRANCH  35  37
HETATM   37  C19 UNL     1      -0.552 -15.837   9.987  1.00  0.00     0.120 C 
BRANCH  37  38
HETATM   38  C20 UNL     1      -1.426 -15.505   8.771  1.00  0.00     0.039 C 
BRANCH  38  39
HETATM   39  C21 UNL     1      -2.225 -14.275   9.133  1.00  0.00     0.166 C 
BRANCH  39  40
HETATM   40  N4  UNL     1      -3.650 -14.586   8.983  1.00  0.00     0.017 NA
HETATM   41  F1  UNL     1      -3.762 -15.897   8.626  1.00  0.00    -0.101 F 
HETATM   42  F2  UNL     1      -4.274 -14.473  10.182  1.00  0.00    -0.101 F 
ENDBRANCH  39  40
ENDBRANCH  38  39
ENDBRANCH  37  38
ENDBRANCH  35  37
ENDBRANCH  34  35
ENDBRANCH  33  34
ENDBRANCH  31  33
ENDBRANCH  30  31
ENDBRANCH  29  30
ENDBRANCH  27  29
ENDBRANCH  24  25
ENDBRANCH  11  24
BRANCH   1  43
HETATM   43  O1  UNL     1      -7.017 -17.038   1.974  1.00  0.00    -0.356 OA
HETATM   44  C1  UNL     1      -7.803 -18.203   1.812  1.00  0.00     0.210 C 
ENDBRANCH   1  43
TORSDOF 13
ENDMDL
MODEL 5
REMARK VINA RESULT: -6.496487170      3.212      6.731
REMARK  13 active torsions:
REMARK  status: ('A' for Active; 'I' for Inactive)
REMARK    1  A    between atoms: O1_2  and  C2_3 
REMARK    2  A    between atoms: C12_13  and  C13_14 
REMARK    3  A    between atoms: C13_14  and  C14_15 
REMARK       I    between atoms: C14_15  and  N1_17 
REMARK    4  A    between atoms: N1_17  and  C15_19 
REMARK    5  A    between atoms: C15_19  and  C16_20 
REMARK    6  A    between atoms: C16_20  and  N2_21 
REMARK    7  A    between atoms: N2_21  and  C17_23 
REMARK    8  A    between atoms: C17_23  and  C18_24 
REMARK    9  A    between atoms: C18_24  and  N3_25 
REMARK   10  A    between atoms: N3_25  and  C19_27 
REMARK   11  A    between atoms: C19_27  and  C20_28 
REMARK   12  A    between atoms: C20_28  and  C21_29 
REMARK   13  A    between atoms: C21_29  and  N4_30 
ROOT
HETATM    1  C2  UNL     1      -8.641 -17.808   4.546  1.00  0.00     0.069 A 
HETATM    2  C3  UNL     1      -7.640 -16.888   4.679  1.00  0.00     0.044 A 
HETATM    3  C4  UNL     1      -6.432 -17.133   5.377  1.00  0.00    -0.055 A 
HETATM    4  C5  UNL     1      -6.225 -18.359   5.965  1.00  0.00     0.014 A 
HETATM    5  C6  UNL     1      -7.202 -19.313   5.859  1.00  0.00    -0.055 A 
HETATM    6  C7  UNL     1      -8.387 -19.009   5.149  1.00  0.00     0.044 A 
HETATM    7  C8  UNL     1      -7.244 -20.700   6.381  1.00  0.00     0.038 C 
HETATM    8  C9  UNL     1      -7.188 -20.909   7.854  1.00  0.00     0.005 C 
HETATM    9  C10 UNL     1      -7.916 -19.881   8.676  1.00  0.00     0.001 C 
HETATM   10  C11 UNL     1      -7.032 -18.878   9.330  1.00  0.00     0.005 C 
HETATM   11  C12 UNL     1      -7.004 -18.970  10.849  1.00  0.00    -0.006 C 
HETATM   12  C22 UNL     1      -5.987 -17.925  11.303  1.00  0.00     0.005 C 
HETATM   13  C23 UNL     1      -4.696 -18.590  11.697  1.00  0.00     0.000 C 
HETATM   14  C24 UNL     1      -3.537 -18.145  10.832  1.00  0.00     0.000 C 
HETATM   15  C25 UNL     1      -3.236 -16.673  11.021  1.00  0.00     0.000 C 
HETATM   16  C26 UNL     1      -2.180 -16.290  10.007  1.00  0.00     0.000 C 
HETATM   17  C27 UNL     1      -2.788 -16.446   8.642  1.00  0.00     0.000 C 
HETATM   18  C28 UNL     1      -2.331 -15.381   7.681  1.00  0.00     0.004 C 
HETATM   19  C29 UNL     1      -2.415 -15.953   6.265  1.00  0.00     0.027 C 
HETATM   20  C30 UNL     1      -2.571 -14.884   5.276  1.00  0.00    -0.031 C 
HETATM   21  C31 UNL     1      -3.509 -14.929   4.354  1.00  0.00    -0.030 C 
HETATM   22  C32 UNL     1      -4.437 -16.073   4.295  1.00  0.00     0.031 C 
HETATM   23  C33 UNL     1      -5.560 -15.922   5.334  1.00  0.00     0.042 C 
ENDROOT
BRANCH  11  24
HETATM   24  C13 UNL     1      -8.345 -18.738  11.452  1.00  0.00     0.107 C 
BRANCH  24  25
HETATM   25  C14 UNL     1      -8.732 -17.294  11.274  1.00  0.00     0.221 C 
HETATM   26  O2  UNL     1      -8.288 -16.452  12.080  1.00  0.00    -0.273 OA
HETATM   27  N1  UNL     1      -9.580 -16.889  10.216  1.00  0.00    -0.336 N 
ATOM     28  H1  UNL     1      -9.880 -17.641   9.596  1.00  0.00     0.168 HD
BRANCH  27  29
HETATM   29  C15 UNL     1     -10.073 -15.622   9.883  1.00  0.00     0.107 C 
BRANCH  29  30
HETATM   30  C16 UNL     1      -9.728 -14.966   8.589  1.00  0.00     0.100 C 
BRANCH  30  31
HETATM   31  N2  UNL     1      -8.493 -14.293   8.540  1.00  0.00    -0.393 N 
ATOM     32  H2  UNL     1      -8.458 -13.275   8.591  1.00  0.00     0.159 HD
BRANCH  31  33
HETATM   33  C17 UNL     1      -7.292 -15.050   8.419  1.00  0.00     0.163 C 
BRANCH  33  34
HETATM   34  C18 UNL     1      -6.195 -14.825   9.374  1.00  0.00     0.074 C 
BRANCH  34  35
HETATM   35  N3  UNL     1      -6.470 -14.393  10.680  1.00  0.00    -0.401 N 
ATOM     36  H3  UNL     1      -7.356 -14.624  11.130  1.00  0.00     0.158 HD
BRANCH  35  37
HETATM   37  C19 UNL     1      -5.488 -13.630  11.361  1.00  0.00     0.120 C 
BRANCH  37  38
HETATM   38  C20 UNL     1      -4.792 -12.753  10.312  1.00  0.00     0.039 C 
BRANCH  38  39
HETATM   39  C21 UNL     1      -3.339 -12.664  10.715  1.00  0.00     0.166 C 
BRANCH  39  40
HETATM   40  N4  UNL     1      -3.059 -11.290  11.143  1.00  0.00     0.017 NA
HETATM   41  F1  UNL     1      -2.087 -11.334  12.099  1.00  0.00    -0.101 F 
HETATM   42  F2  UNL     1      -2.534 -10.584  10.112  1.00  0.00    -0.101 F 
ENDBRANCH  39  40
ENDBRANCH  38  39
ENDBRANCH  37  38
ENDBRANCH  35  37
ENDBRANCH  34  35
ENDBRANCH  33  34
ENDBRANCH  31  33
ENDBRANCH  30  31
ENDBRANCH  29  30
ENDBRANCH  27  29
ENDBRANCH  24  25
ENDBRANCH  11  24
BRANCH   1  43
HETATM   43  O1  UNL     1      -9.816 -17.544   3.857  1.00  0.00    -0.356 OA
HETATM   44  C1  UNL     1     -10.417 -16.279   4.058  1.00  0.00     0.210 C 
ENDBRANCH   1  43
TORSDOF 13
ENDMDL
