MODEL 1
REMARK VINA RESULT: -7.309541123      0.000      0.000
REMARK  15 active torsions:
REMARK  status: ('A' for Active; 'I' for Inactive)
REMARK    1  A    between atoms: C4_4  and  N1_5 
REMARK    2  A    between atoms: N1_5  and  C5_7 
REMARK    3  A    between atoms: C5_7  and  C6_11 
REMARK    4  A    between atoms: C6_11  and  C7_12 
REMARK    5  A    between atoms: C14_21  and  N3_22 
REMARK    6  A    between atoms: N3_22  and  C15_24 
REMARK    7  A    between atoms: C22_32  and  O1_33 
REMARK    8  A    between atoms: O1_33  and  C23_34 
REMARK    9  A    between atoms: C23_34  and  C24_35 
REMARK   10  A    between atoms: C24_35  and  C25_36 
REMARK   11  A    between atoms: C25_36  and  C26_37 
REMARK   12  A    between atoms: C26_37  and  C27_38 
REMARK   13  A    between atoms: C27_38  and  C28_39 
REMARK   14  A    between atoms: C28_39  and  C29_40 
REMARK   15  A    between atoms: C29_40  and  N5_41 
ROOT
HETATM    1  C1  UNL     1      -2.660 -16.065   4.131  1.00  0.00     0.068 C 
HETATM    2  C2  UNL     1      -2.991 -16.702   5.457  1.00  0.00     0.007 A 
HETATM    3  C3  UNL     1      -3.094 -18.056   5.601  1.00  0.00     0.055 A 
HETATM    4  C4  UNL     1      -3.403 -18.606   6.846  1.00  0.00     0.050 A 
HETATM    5  C13 UNL     1      -3.608 -17.793   7.951  1.00  0.00     0.045 A 
HETATM    6  C14 UNL     1      -3.953 -18.289   9.193  1.00  0.00     0.067 A 
HETATM    7  C20 UNL     1      -4.190 -17.394  10.226  1.00  0.00     0.105 A 
HETATM    8  C21 UNL     1      -4.602 -17.883  11.510  1.00  0.00     0.104 C 
HETATM    9  N4  UNL     1      -4.959 -18.251  12.563  1.00  0.00    -0.191 NA
HETATM   10  C22 UNL     1      -4.082 -16.037  10.036  1.00  0.00     0.093 A 
HETATM   11  C30 UNL     1      -3.733 -15.565   8.801  1.00  0.00     0.069 A 
HETATM   12  C31 UNL     1      -3.492 -16.423   7.743  1.00  0.00     0.050 A 
HETATM   13  N6  UNL     1      -3.191 -15.920   6.523  1.00  0.00    -0.359 N 
ATOM     14  H6  UNL     1      -3.113 -14.909   6.413  1.00  0.00     0.166 HD
ENDROOT
BRANCH   6  15
HETATM   15  N3  UNL     1      -3.964 -19.688   9.452  1.00  0.00    -0.383 N 
ATOM     16  H3  UNL     1      -4.722 -20.262   9.086  1.00  0.00     0.160 HD
BRANCH  15  17
HETATM   17  C15 UNL     1      -2.922 -20.296  10.220  1.00  0.00     0.081 C 
HETATM   18  C16 UNL     1      -1.756 -19.469  10.624  1.00  0.00     0.025 C 
HETATM   19  C17 UNL     1      -0.587 -20.445  10.786  1.00  0.00     0.002 C 
HETATM   20  C18 UNL     1      -1.010 -21.756  10.209  1.00  0.00     0.002 C 
HETATM   21  C19 UNL     1      -2.291 -21.475   9.458  1.00  0.00     0.025 C 
ENDBRANCH  15  17
ENDBRANCH   6  15
BRANCH  10  22
HETATM   22  O1  UNL     1      -4.327 -15.149  11.105  1.00  0.00    -0.349 OA
BRANCH  22  23
HETATM   23  C23 UNL     1      -5.451 -14.310  11.055  1.00  0.00     0.175 C 
BRANCH  23  24
HETATM   24  C24 UNL     1      -5.143 -12.884  11.319  1.00  0.00     0.027 C 
BRANCH  24  25
HETATM   25  C25 UNL     1      -4.281 -12.252  10.292  1.00  0.00     0.002 C 
BRANCH  25  26
HETATM   26  C26 UNL     1      -3.119 -11.448  10.773  1.00  0.00     0.000 C 
BRANCH  26  27
HETATM   27  C27 UNL     1      -2.049 -12.467  11.241  1.00  0.00     0.002 C 
BRANCH  27  28
HETATM   28  C28 UNL     1      -1.482 -13.065   9.994  1.00  0.00     0.027 C 
BRANCH  28  29
HETATM   29  C29 UNL     1       0.024 -13.233  10.079  1.00  0.00     0.229 C 
BRANCH  29  30
HETATM   30  N5  UNL     1       0.638 -12.199  10.865  1.00  0.00    -0.079 N 
ATOM     31  H53 UNL     1       1.441 -11.796  10.382  1.00  0.00     0.274 HD
ATOM     32  H52 UNL     1       0.046 -11.370  10.912  1.00  0.00     0.274 HD
ATOM     33  H51 UNL     1       0.892 -12.527  11.796  1.00  0.00     0.274 HD
ENDBRANCH  29  30
ENDBRANCH  28  29
ENDBRANCH  27  28
ENDBRANCH  26  27
ENDBRANCH  25  26
ENDBRANCH  24  25
ENDBRANCH  23  24
ENDBRANCH  22  23
ENDBRANCH  10  22
BRANCH   4  34
HETATM   34  N1  UNL     1      -3.567 -19.863   6.979  1.00  0.00    -0.345 N 
ATOM     35  H1  UNL     1      -2.825 -20.420   7.403  1.00  0.00     0.167 HD
BRANCH  34  36
HETATM   36  C5  UNL     1      -4.751 -20.505   6.552  1.00  0.00     0.079 C 
HETATM   37  N2  UNL     1      -4.717 -21.827   6.444  1.00  0.00    -0.389 N 
ATOM     38  H22 UNL     1      -3.831 -22.268   6.691  1.00  0.00     0.157 HD
ATOM     39  H21 UNL     1      -5.572 -22.290   6.136  1.00  0.00     0.157 HD
BRANCH  36  40
HETATM   40  C6  UNL     1      -6.019 -19.874   6.197  1.00  0.00     0.114 C 
BRANCH  40  41
HETATM   41  C7  UNL     1      -6.721 -19.148   7.257  1.00  0.00    -0.048 A 
HETATM   42  C8  UNL     1      -6.909 -17.786   7.160  1.00  0.00     0.031 A 
HETATM   43  C9  UNL     1      -7.542 -17.033   8.108  1.00  0.00     0.036 A 
HETATM   44 CL1  UNL     1      -7.756 -15.291   7.934  1.00  0.00    -0.084 Cl
HETATM   45  C10 UNL     1      -8.032 -17.668   9.243  1.00  0.00     0.047 A 
HETATM   46  C11 UNL     1      -7.867 -19.021   9.383  1.00  0.00     0.036 A 
HETATM   47 CL2  UNL     1      -8.497 -19.789  10.823  1.00  0.00    -0.084 Cl
HETATM   48  C12 UNL     1      -7.211 -19.753   8.387  1.00  0.00     0.031 A 
ENDBRANCH  40  41
ENDBRANCH  36  40
ENDBRANCH  34  36
ENDBRANCH   4  34
TORSDOF 15
ENDMDL
MODEL 2
REMARK VINA RESULT: -7.140534577      2.243      3.375
REMARK  15 active torsions:
REMARK  status: ('A' for Active; 'I' for Inactive)
REMARK    1  A    between atoms: C4_4  and  N1_5 
REMARK    2  A    between atoms: N1_5  and  C5_7 
REMARK    3  A    between atoms: C5_7  and  C6_11 
REMARK    4  A    between atoms: C6_11  and  C7_12 
REMARK    5  A    between atoms: C14_21  and  N3_22 
REMARK    6  A    between atoms: N3_22  and  C15_24 
REMARK    7  A    between atoms: C22_32  and  O1_33 
REMARK    8  A    between atoms: O1_33  and  C23_34 
REMARK    9  A    between atoms: C23_34  and  C24_35 
REMARK   10  A    between atoms: C24_35  and  C25_36 
REMARK   11  A    between atoms: C25_36  and  C26_37 
REMARK   12  A    between atoms: C26_37  and  C27_38 
REMARK   13  A    between atoms: C27_38  and  C28_39 
REMARK   14  A    between atoms: C28_39  and  C29_40 
REMARK   15  A    between atoms: C29_40  and  N5_41 
ROOT
HETATM    1  C1  UNL     1      -2.264 -15.160   2.983  1.00  0.00     0.068 C 
HETATM    2  C2  UNL     1      -2.749 -15.717   4.298  1.00  0.00     0.007 A 
HETATM    3  C3  UNL     1      -3.832 -16.545   4.374  1.00  0.00     0.055 A 
HETATM    4  C4  UNL     1      -4.249 -17.040   5.611  1.00  0.00     0.050 A 
HETATM    5  C13 UNL     1      -3.576 -16.702   6.775  1.00  0.00     0.045 A 
HETATM    6  C14 UNL     1      -3.975 -17.135   8.025  1.00  0.00     0.067 A 
HETATM    7  C20 UNL     1      -3.270 -16.701   9.137  1.00  0.00     0.105 A 
HETATM    8  C21 UNL     1      -3.698 -17.095  10.448  1.00  0.00     0.104 C 
HETATM    9  N4  UNL     1      -4.036 -17.383  11.533  1.00  0.00    -0.191 NA
HETATM   10  C22 UNL     1      -2.188 -15.862   9.016  1.00  0.00     0.093 A 
HETATM   11  C30 UNL     1      -1.805 -15.448   7.771  1.00  0.00     0.069 A 
HETATM   12  C31 UNL     1      -2.483 -15.854   6.635  1.00  0.00     0.050 A 
HETATM   13  N6  UNL     1      -2.102 -15.391   5.422  1.00  0.00    -0.359 N 
ATOM     14  H6  UNL     1      -1.293 -14.772   5.362  1.00  0.00     0.166 HD
ENDROOT
BRANCH   6  15
HETATM   15  N3  UNL     1      -5.017 -18.092   8.176  1.00  0.00    -0.383 N 
ATOM     16  H3  UNL     1      -5.990 -17.790   8.124  1.00  0.00     0.160 HD
BRANCH  15  17
HETATM   17  C15 UNL     1      -4.715 -19.472   8.398  1.00  0.00     0.081 C 
HETATM   18  C16 UNL     1      -3.443 -20.020   7.863  1.00  0.00     0.025 C 
HETATM   19  C17 UNL     1      -3.693 -21.514   7.637  1.00  0.00     0.002 C 
HETATM   20  C18 UNL     1      -5.162 -21.751   7.771  1.00  0.00     0.002 C 
HETATM   21  C19 UNL     1      -5.795 -20.379   7.783  1.00  0.00     0.025 C 
ENDBRANCH  15  17
ENDBRANCH   6  15
BRANCH  10  22
HETATM   22  O1  UNL     1      -1.488 -15.437  10.165  1.00  0.00    -0.349 OA
BRANCH  22  23
HETATM   23  C23 UNL     1      -1.053 -14.105  10.249  1.00  0.00     0.175 C 
BRANCH  23  24
HETATM   24  C24 UNL     1      -1.832 -13.284  11.208  1.00  0.00     0.027 C 
BRANCH  24  25
HETATM   25  C25 UNL     1      -3.079 -12.715  10.644  1.00  0.00     0.002 C 
BRANCH  25  26
HETATM   26  C26 UNL     1      -4.367 -13.346  11.056  1.00  0.00     0.000 C 
BRANCH  26  27
HETATM   27  C27 UNL     1      -5.193 -13.537   9.759  1.00  0.00     0.002 C 
BRANCH  27  28
HETATM   28  C28 UNL     1      -6.230 -14.563  10.083  1.00  0.00     0.027 C 
BRANCH  28  29
HETATM   29  C29 UNL     1      -6.411 -14.733  11.580  1.00  0.00     0.229 C 
BRANCH  29  30
HETATM   30  N5  UNL     1      -6.929 -16.030  11.916  1.00  0.00    -0.079 N 
ATOM     31  H53 UNL     1      -6.178 -16.677  12.157  1.00  0.00     0.274 HD
ATOM     32  H52 UNL     1      -7.420 -16.013  12.810  1.00  0.00     0.274 HD
ATOM     33  H51 UNL     1      -7.521 -16.409  11.176  1.00  0.00     0.274 HD
ENDBRANCH  29  30
ENDBRANCH  28  29
ENDBRANCH  27  28
ENDBRANCH  26  27
ENDBRANCH  25  26
ENDBRANCH  24  25
ENDBRANCH  23  24
ENDBRANCH  22  23
ENDBRANCH  10  22
BRANCH   4  34
HETATM   34  N1  UNL     1      -5.298 -17.759   5.702  1.00  0.00    -0.345 N 
ATOM     35  H1  UNL     1      -5.215 -18.717   6.044  1.00  0.00     0.167 HD
BRANCH  34  36
HETATM   36  C5  UNL     1      -6.571 -17.263   5.344  1.00  0.00     0.079 C 
HETATM   37  N2  UNL     1      -7.280 -17.984   4.484  1.00  0.00    -0.389 N 
ATOM     38  H22 UNL     1      -6.841 -18.847   4.163  1.00  0.00     0.157 HD
ATOM     39  H21 UNL     1      -8.199 -17.625   4.225  1.00  0.00     0.157 HD
BRANCH  36  40
HETATM   40  C6  UNL     1      -7.199 -16.027   5.802  1.00  0.00     0.114 C 
BRANCH  40  41
HETATM   41  C7  UNL     1      -8.016 -16.107   7.013  1.00  0.00    -0.048 A 
HETATM   42  C8  UNL     1      -8.792 -15.035   7.400  1.00  0.00     0.031 A 
HETATM   43  C9  UNL     1      -9.574 -15.023   8.520  1.00  0.00     0.036 A 
HETATM   44 CL1  UNL     1     -10.548 -13.623   8.969  1.00  0.00    -0.084 Cl
HETATM   45  C10 UNL     1      -9.599 -16.154   9.326  1.00  0.00     0.047 A 
HETATM   46  C11 UNL     1      -8.843 -17.244   8.981  1.00  0.00     0.036 A 
HETATM   47 CL2  UNL     1      -8.899 -18.654  10.017  1.00  0.00    -0.084 Cl
HETATM   48  C12 UNL     1      -8.056 -17.212   7.825  1.00  0.00     0.031 A 
ENDBRANCH  40  41
ENDBRANCH  36  40
ENDBRANCH  34  36
ENDBRANCH   4  34
TORSDOF 15
ENDMDL
MODEL 3
REMARK VINA RESULT: -7.137301116      3.155      5.256
REMARK  15 active torsions:
REMARK  status: ('A' for Active; 'I' for Inactive)
REMARK    1  A    between atoms: C4_4  and  N1_5 
REMARK    2  A    between atoms: N1_5  and  C5_7 
REMARK    3  A    between atoms: C5_7  and  C6_11 
REMARK    4  A    between atoms: C6_11  and  C7_12 
REMARK    5  A    between atoms: C14_21  and  N3_22 
REMARK    6  A    between atoms: N3_22  and  C15_24 
REMARK    7  A    between atoms: C22_32  and  O1_33 
REMARK    8  A    between atoms: O1_33  and  C23_34 
REMARK    9  A    between atoms: C23_34  and  C24_35 
REMARK   10  A    between atoms: C24_35  and  C25_36 
REMARK   11  A    between atoms: C25_36  and  C26_37 
REMARK   12  A    between atoms: C26_37  and  C27_38 
REMARK   13  A    between atoms: C27_38  and  C28_39 
REMARK   14  A    between atoms: C28_39  and  C29_40 
REMARK   15  A    between atoms: C29_40  and  N5_41 
ROOT
HETATM    1  C1  UNL     1      -8.272 -14.829   1.575  1.00  0.00     0.068 C 
HETATM    2  C2  UNL     1      -7.826 -15.491   2.855  1.00  0.00     0.007 A 
HETATM    3  C3  UNL     1      -8.721 -15.940   3.783  1.00  0.00     0.055 A 
HETATM    4  C4  UNL     1      -8.268 -16.547   4.956  1.00  0.00     0.050 A 
HETATM    5  C13 UNL     1      -6.911 -16.704   5.196  1.00  0.00     0.045 A 
HETATM    6  C14 UNL     1      -6.415 -17.263   6.358  1.00  0.00     0.067 A 
HETATM    7  C20 UNL     1      -5.040 -17.330   6.532  1.00  0.00     0.105 A 
HETATM    8  C21 UNL     1      -4.503 -17.856   7.752  1.00  0.00     0.104 C 
HETATM    9  N4  UNL     1      -4.035 -18.263   8.747  1.00  0.00    -0.191 NA
HETATM   10  C22 UNL     1      -4.174 -16.859   5.574  1.00  0.00     0.093 A 
HETATM   11  C30 UNL     1      -4.684 -16.314   4.427  1.00  0.00     0.069 A 
HETATM   12  C31 UNL     1      -6.048 -16.225   4.216  1.00  0.00     0.050 A 
HETATM   13  N6  UNL     1      -6.519 -15.641   3.089  1.00  0.00    -0.359 N 
ATOM     14  H6  UNL     1      -5.852 -15.305   2.394  1.00  0.00     0.166 HD
ENDROOT
BRANCH   6  15
HETATM   15  N3  UNL     1      -7.279 -17.861   7.316  1.00  0.00    -0.383 N 
ATOM     16  H3  UNL     1      -7.880 -17.270   7.891  1.00  0.00     0.160 HD
BRANCH  15  17
HETATM   17  C15 UNL     1      -7.316 -19.281   7.482  1.00  0.00     0.081 C 
HETATM   18  C16 UNL     1      -8.084 -20.094   6.505  1.00  0.00     0.025 C 
HETATM   19  C17 UNL     1      -8.509 -21.359   7.257  1.00  0.00     0.002 C 
HETATM   20  C18 UNL     1      -8.233 -21.137   8.708  1.00  0.00     0.002 C 
HETATM   21  C19 UNL     1      -7.927 -19.663   8.841  1.00  0.00     0.025 C 
ENDBRANCH  15  17
ENDBRANCH   6  15
BRANCH  10  22
HETATM   22  O1  UNL     1      -2.780 -16.940   5.776  1.00  0.00    -0.349 OA
BRANCH  22  23
HETATM   23  C23 UNL     1      -2.010 -15.768   5.718  1.00  0.00     0.175 C 
BRANCH  23  24
HETATM   24  C24 UNL     1      -2.065 -14.957   6.959  1.00  0.00     0.027 C 
BRANCH  24  25
HETATM   25  C25 UNL     1      -1.518 -15.643   8.154  1.00  0.00     0.002 C 
BRANCH  25  26
HETATM   26  C26 UNL     1      -1.983 -15.167   9.490  1.00  0.00     0.000 C 
BRANCH  26  27
HETATM   27  C27 UNL     1      -1.497 -13.702   9.623  1.00  0.00     0.002 C 
BRANCH  27  28
HETATM   28  C28 UNL     1      -1.675 -13.343  11.063  1.00  0.00     0.027 C 
BRANCH  28  29
HETATM   29  C29 UNL     1      -0.896 -12.095  11.437  1.00  0.00     0.229 C 
BRANCH  29  30
HETATM   30  N5  UNL     1       0.484 -12.184  11.049  1.00  0.00    -0.079 N 
ATOM     31  H53 UNL     1       0.672 -13.052  10.547  1.00  0.00     0.274 HD
ATOM     32  H52 UNL     1       0.704 -11.519  10.308  1.00  0.00     0.274 HD
ATOM     33  H51 UNL     1       1.113 -12.074  11.844  1.00  0.00     0.274 HD
ENDBRANCH  29  30
ENDBRANCH  28  29
ENDBRANCH  27  28
ENDBRANCH  26  27
ENDBRANCH  25  26
ENDBRANCH  24  25
ENDBRANCH  23  24
ENDBRANCH  22  23
ENDBRANCH  10  22
BRANCH   4  34
HETATM   34  N1  UNL     1      -9.091 -16.911   5.859  1.00  0.00    -0.345 N 
ATOM     35  H1  UNL     1      -9.107 -17.888   6.153  1.00  0.00     0.167 HD
BRANCH  34  36
HETATM   36  C5  UNL     1      -9.978 -15.995   6.465  1.00  0.00     0.079 C 
HETATM   37  N2  UNL     1     -11.277 -16.208   6.293  1.00  0.00    -0.389 N 
ATOM     38  H22 UNL     1     -11.520 -17.031   5.742  1.00  0.00     0.157 HD
ATOM     39  H21 UNL     1     -11.918 -15.546   6.731  1.00  0.00     0.157 HD
BRANCH  36  40
HETATM   40  C6  UNL     1      -9.630 -14.816   7.254  1.00  0.00     0.114 C 
BRANCH  40  41
HETATM   41  C7  UNL     1      -8.773 -15.027   8.421  1.00  0.00    -0.048 A 
HETATM   42  C8  UNL     1      -9.158 -15.896   9.419  1.00  0.00     0.031 A 
HETATM   43  C9  UNL     1      -8.423 -16.141  10.544  1.00  0.00     0.036 A 
HETATM   44 CL1  UNL     1      -8.964 -17.263  11.793  1.00  0.00    -0.084 Cl
HETATM   45  C10 UNL     1      -7.209 -15.482  10.703  1.00  0.00     0.047 A 
HETATM   46  C11 UNL     1      -6.786 -14.609   9.735  1.00  0.00     0.036 A 
HETATM   47 CL2  UNL     1      -5.252 -13.798   9.964  1.00  0.00    -0.084 Cl
HETATM   48  C12 UNL     1      -7.572 -14.388   8.599  1.00  0.00     0.031 A 
ENDBRANCH  40  41
ENDBRANCH  36  40
ENDBRANCH  34  36
ENDBRANCH   4  34
TORSDOF 15
ENDMDL
MODEL 4
REMARK VINA RESULT: -7.136216705      4.104      8.001
REMARK  15 active torsions:
REMARK  status: ('A' for Active; 'I' for Inactive)
REMARK    1  A    between atoms: C4_4  and  N1_5 
REMARK    2  A    between atoms: N1_5  and  C5_7 
REMARK    3  A    between atoms: C5_7  and  C6_11 
REMARK    4  A    between atoms: C6_11  and  C7_12 
REMARK    5  A    between atoms: C14_21  and  N3_22 
REMARK    6  A    between atoms: N3_22  and  C15_24 
REMARK    7  A    between atoms: C22_32  and  O1_33 
REMARK    8  A    between atoms: O1_33  and  C23_34 
REMARK    9  A    between atoms: C23_34  and  C24_35 
REMARK   10  A    between atoms: C24_35  and  C25_36 
REMARK   11  A    between atoms: C25_36  and  C26_37 
REMARK   12  A    between atoms: C26_37  and  C27_38 
REMARK   13  A    between atoms: C27_38  and  C28_39 
REMARK   14  A    between atoms: C28_39  and  C29_40 
REMARK   15  A    between atoms: C29_40  and  N5_41 
ROOT
HETATM    1  C1  UNL     1      -6.893 -15.762  11.768  1.00  0.00     0.068 C 
HETATM    2  C2  UNL     1      -6.716 -16.154  10.322  1.00  0.00     0.007 A 
HETATM    3  C3  UNL     1      -5.556 -16.709   9.864  1.00  0.00     0.055 A 
HETATM    4  C4  UNL     1      -5.431 -17.058   8.518  1.00  0.00     0.050 A 
HETATM    5  C13 UNL     1      -6.476 -16.850   7.631  1.00  0.00     0.045 A 
HETATM    6  C14 UNL     1      -6.385 -17.143   6.283  1.00  0.00     0.067 A 
HETATM    7  C20 UNL     1      -7.464 -16.851   5.463  1.00  0.00     0.105 A 
HETATM    8  C21 UNL     1      -7.373 -17.097   4.054  1.00  0.00     0.104 C 
HETATM    9  N4  UNL     1      -7.321 -17.268   2.895  1.00  0.00    -0.191 NA
HETATM   10  C22 UNL     1      -8.612 -16.285   5.965  1.00  0.00     0.093 A 
HETATM   11  C30 UNL     1      -8.686 -16.008   7.303  1.00  0.00     0.069 A 
HETATM   12  C31 UNL     1      -7.631 -16.280   8.154  1.00  0.00     0.050 A 
HETATM   13  N6  UNL     1      -7.721 -15.952   9.465  1.00  0.00    -0.359 N 
ATOM     14  H6  UNL     1      -8.587 -15.538   9.810  1.00  0.00     0.166 HD
ENDROOT
BRANCH   6  15
HETATM   15  N3  UNL     1      -5.258 -17.831   5.753  1.00  0.00    -0.383 N 
ATOM     16  H3  UNL     1      -5.087 -18.800   6.019  1.00  0.00     0.160 HD
BRANCH  15  17
HETATM   17  C15 UNL     1      -4.363 -17.177   4.848  1.00  0.00     0.081 C 
HETATM   18  C16 UNL     1      -2.941 -17.603   4.819  1.00  0.00     0.025 C 
HETATM   19  C17 UNL     1      -2.149 -16.381   4.344  1.00  0.00     0.002 C 
HETATM   20  C18 UNL     1      -3.069 -15.205   4.379  1.00  0.00     0.002 C 
HETATM   21  C19 UNL     1      -4.291 -15.668   5.137  1.00  0.00     0.025 C 
ENDBRANCH  15  17
ENDBRANCH   6  15
BRANCH  10  22
HETATM   22  O1  UNL     1      -9.696 -16.000   5.109  1.00  0.00    -0.349 OA
BRANCH  22  23
HETATM   23  C23 UNL     1     -11.007 -16.157   5.586  1.00  0.00     0.175 C 
BRANCH  23  24
HETATM   24  C24 UNL     1     -12.017 -16.323   4.513  1.00  0.00     0.027 C 
BRANCH  24  25
HETATM   25  C25 UNL     1     -11.905 -15.328   3.419  1.00  0.00     0.002 C 
BRANCH  25  26
HETATM   26  C26 UNL     1     -11.602 -15.843   2.052  1.00  0.00     0.000 C 
BRANCH  26  27
HETATM   27  C27 UNL     1     -10.193 -15.309   1.688  1.00  0.00     0.002 C 
BRANCH  27  28
HETATM   28  C28 UNL     1      -9.805 -16.011   0.427  1.00  0.00     0.027 C 
BRANCH  28  29
HETATM   29  C29 UNL     1      -8.434 -15.580  -0.062  1.00  0.00     0.229 C 
BRANCH  29  30
HETATM   30  N5  UNL     1      -7.760 -14.743   0.892  1.00  0.00    -0.079 N 
ATOM     31  H53 UNL     1      -8.065 -14.948   1.844  1.00  0.00     0.274 HD
ATOM     32  H52 UNL     1      -6.777 -14.999   0.979  1.00  0.00     0.274 HD
ATOM     33  H51 UNL     1      -7.867 -13.753   0.674  1.00  0.00     0.274 HD
ENDBRANCH  29  30
ENDBRANCH  28  29
ENDBRANCH  27  28
ENDBRANCH  26  27
ENDBRANCH  25  26
ENDBRANCH  24  25
ENDBRANCH  23  24
ENDBRANCH  22  23
ENDBRANCH  10  22
BRANCH   4  34
HETATM   34  N1  UNL     1      -4.330 -17.515   8.065  1.00  0.00    -0.345 N 
ATOM     35  H1  UNL     1      -4.351 -18.231   7.338  1.00  0.00     0.167 HD
BRANCH  34  36
HETATM   36  C5  UNL     1      -3.084 -17.054   8.542  1.00  0.00     0.079 C 
HETATM   37  N2  UNL     1      -2.539 -17.719   9.553  1.00  0.00    -0.389 N 
ATOM     38  H22 UNL     1      -3.072 -18.520   9.892  1.00  0.00     0.157 HD
ATOM     39  H21 UNL     1      -1.639 -17.386   9.897  1.00  0.00     0.157 HD
BRANCH  36  40
HETATM   40  C6  UNL     1      -2.322 -15.906   8.057  1.00  0.00     0.114 C 
BRANCH  40  41
HETATM   41  C7  UNL     1      -2.283 -14.723   8.917  1.00  0.00    -0.048 A 
HETATM   42  C8  UNL     1      -1.075 -14.183   9.303  1.00  0.00     0.031 A 
HETATM   43  C9  UNL     1      -0.951 -13.088  10.111  1.00  0.00     0.036 A 
HETATM   44 CL1  UNL     1       0.621 -12.438  10.575  1.00  0.00    -0.084 Cl
HETATM   45  C10 UNL     1      -2.106 -12.471  10.577  1.00  0.00     0.047 A 
HETATM   46  C11 UNL     1      -3.330 -12.974  10.219  1.00  0.00     0.036 A 
HETATM   47 CL2  UNL     1      -4.764 -12.173  10.822  1.00  0.00    -0.084 Cl
HETATM   48  C12 UNL     1      -3.409 -14.099   9.390  1.00  0.00     0.031 A 
ENDBRANCH  40  41
ENDBRANCH  36  40
ENDBRANCH  34  36
ENDBRANCH   4  34
TORSDOF 15
ENDMDL
MODEL 5
REMARK VINA RESULT: -7.092541985      4.093      5.794
REMARK  15 active torsions:
REMARK  status: ('A' for Active; 'I' for Inactive)
REMARK    1  A    between atoms: C4_4  and  N1_5 
REMARK    2  A    between atoms: N1_5  and  C5_7 
REMARK    3  A    between atoms: C5_7  and  C6_11 
REMARK    4  A    between atoms: C6_11  and  C7_12 
REMARK    5  A    between atoms: C14_21  and  N3_22 
REMARK    6  A    between atoms: N3_22  and  C15_24 
REMARK    7  A    between atoms: C22_32  and  O1_33 
REMARK    8  A    between atoms: O1_33  and  C23_34 
REMARK    9  A    between atoms: C23_34  and  C24_35 
REMARK   10  A    between atoms: C24_35  and  C25_36 
REMARK   11  A    between atoms: C25_36  and  C26_37 
REMARK   12  A    between atoms: C26_37  and  C27_38 
REMARK   13  A    between atoms: C27_38  and  C28_39 
REMARK   14  A    between atoms: C28_39  and  C29_40 
REMARK   15  A    between atoms: C29_40  and  N5_41 
ROOT
HETATM    1  C1  UNL     1     -11.241 -15.149   6.684  1.00  0.00     0.068 C 
HETATM    2  C2  UNL     1      -9.787 -15.495   6.887  1.00  0.00     0.007 A 
HETATM    3  C3  UNL     1      -9.070 -16.175   5.945  1.00  0.00     0.055 A 
HETATM    4  C4  UNL     1      -7.726 -16.476   6.172  1.00  0.00     0.050 A 
HETATM    5  C13 UNL     1      -7.101 -16.093   7.348  1.00  0.00     0.045 A 
HETATM    6  C14 UNL     1      -5.785 -16.402   7.634  1.00  0.00     0.067 A 
HETATM    7  C20 UNL     1      -5.261 -16.022   8.861  1.00  0.00     0.105 A 
HETATM    8  C21 UNL     1      -3.915 -16.379   9.200  1.00  0.00     0.104 C 
HETATM    9  N4  UNL     1      -2.825 -16.674   9.514  1.00  0.00    -0.191 NA
HETATM   10  C22 UNL     1      -6.021 -15.345   9.784  1.00  0.00     0.093 A 
HETATM   11  C30 UNL     1      -7.320 -15.042   9.482  1.00  0.00     0.069 A 
HETATM   12  C31 UNL     1      -7.882 -15.406   8.271  1.00  0.00     0.050 A 
HETATM   13  N6  UNL     1      -9.184 -15.128   8.022  1.00  0.00    -0.359 N 
ATOM     14  H6  UNL     1      -9.722 -14.620   8.724  1.00  0.00     0.166 HD
ENDROOT
BRANCH   6  15
HETATM   15  N3  UNL     1      -4.940 -17.001   6.659  1.00  0.00    -0.383 N 
ATOM     16  H3  UNL     1      -5.119 -17.958   6.356  1.00  0.00     0.160 HD
BRANCH  15  17
HETATM   17  C15 UNL     1      -3.842 -16.274   6.098  1.00  0.00     0.081 C 
HETATM   18  C16 UNL     1      -4.038 -15.572   4.804  1.00  0.00     0.025 C 
HETATM   19  C17 UNL     1      -2.653 -15.500   4.154  1.00  0.00     0.002 C 
HETATM   20  C18 UNL     1      -1.743 -16.394   4.930  1.00  0.00     0.002 C 
HETATM   21  C19 UNL     1      -2.643 -17.201   5.837  1.00  0.00     0.025 C 
ENDBRANCH  15  17
ENDBRANCH   6  15
BRANCH  10  22
HETATM   22  O1  UNL     1      -5.463 -14.968  11.024  1.00  0.00    -0.349 OA
BRANCH  22  23
HETATM   23  C23 UNL     1      -5.619 -13.647  11.473  1.00  0.00     0.175 C 
BRANCH  23  24
HETATM   24  C24 UNL     1      -4.831 -12.658  10.698  1.00  0.00     0.027 C 
BRANCH  24  25
HETATM   25  C25 UNL     1      -3.370 -12.905  10.711  1.00  0.00     0.002 C 
BRANCH  25  26
HETATM   26  C26 UNL     1      -2.486 -11.769  11.105  1.00  0.00     0.000 C 
BRANCH  26  27
HETATM   27  C27 UNL     1      -1.036 -12.214  10.787  1.00  0.00     0.002 C 
BRANCH  27  28
HETATM   28  C28 UNL     1      -1.141 -13.134   9.613  1.00  0.00     0.027 C 
BRANCH  28  29
HETATM   29  C29 UNL     1      -0.026 -14.163   9.598  1.00  0.00     0.229 C 
BRANCH  29  30
HETATM   30  N5  UNL     1      -0.369 -15.340  10.346  1.00  0.00    -0.079 N 
ATOM     31  H53 UNL     1       0.454 -15.753  10.786  1.00  0.00     0.274 HD
ATOM     32  H52 UNL     1      -0.898 -15.105  11.185  1.00  0.00     0.274 HD
ATOM     33  H51 UNL     1      -0.865 -16.025   9.776  1.00  0.00     0.274 HD
ENDBRANCH  29  30
ENDBRANCH  28  29
ENDBRANCH  27  28
ENDBRANCH  26  27
ENDBRANCH  25  26
ENDBRANCH  24  25
ENDBRANCH  23  24
ENDBRANCH  22  23
ENDBRANCH  10  22
BRANCH   4  34
HETATM   34  N1  UNL     1      -7.064 -17.167   5.329  1.00  0.00    -0.345 N 
ATOM     35  H1  UNL     1      -6.274 -17.725   5.655  1.00  0.00     0.167 HD
BRANCH  34  36
HETATM   36  C5  UNL     1      -7.397 -17.181   3.957  1.00  0.00     0.079 C 
HETATM   37  N2  UNL     1      -7.858 -18.321   3.458  1.00  0.00    -0.389 N 
ATOM     38  H22 UNL     1      -7.942 -19.092   4.121  1.00  0.00     0.157 HD
ATOM     39  H21 UNL     1      -8.098 -18.331   2.467  1.00  0.00     0.157 HD
BRANCH  36  40
HETATM   40  C6  UNL     1      -7.276 -16.079   3.008  1.00  0.00     0.114 C 
BRANCH  40  41
HETATM   41  C7  UNL     1      -8.264 -16.019   1.929  1.00  0.00    -0.048 A 
HETATM   42  C8  UNL     1      -7.869 -16.155   0.616  1.00  0.00     0.031 A 
HETATM   43  C9  UNL     1      -8.724 -16.101  -0.449  1.00  0.00     0.036 A 
HETATM   44 CL1  UNL     1      -8.165 -16.282  -2.111  1.00  0.00    -0.084 Cl
HETATM   45  C10 UNL     1     -10.077 -15.899  -0.205  1.00  0.00     0.047 A 
HETATM   46  C11 UNL     1     -10.516 -15.758   1.085  1.00  0.00     0.036 A 
HETATM   47 CL2  UNL     1     -12.226 -15.506   1.357  1.00  0.00    -0.084 Cl
HETATM   48  C12 UNL     1      -9.604 -15.819   2.145  1.00  0.00     0.031 A 
ENDBRANCH  40  41
ENDBRANCH  36  40
ENDBRANCH  34  36
ENDBRANCH   4  34
TORSDOF 15
ENDMDL
