MODEL 1
REMARK VINA RESULT: -7.477270781      0.000      0.000
REMARK  20 active torsions:
REMARK  status: ('A' for Active; 'I' for Inactive)
REMARK    1  A    between atoms: O1_2  and  C2_3 
REMARK    2  A    between atoms: C4_5  and  N1_6 
REMARK    3  A    between atoms: N1_6  and  C5_8 
REMARK    4  A    between atoms: C5_8  and  N2_9 
REMARK    5  A    between atoms: C5_8  and  C23_41 
REMARK    6  A    between atoms: N2_9  and  O2_10 
REMARK    7  A    between atoms: N2_9  and  C6_12 
REMARK    8  A    between atoms: C6_12  and  O3_13 
REMARK    9  A    between atoms: C6_12  and  N3_15 
REMARK   10  A    between atoms: C9_18  and  O4_19 
REMARK   11  A    between atoms: O4_19  and  C10_20 
REMARK       I    between atoms: C10_20  and  N4_22 
REMARK   12  A    between atoms: N4_22  and  C11_24 
REMARK   13  A    between atoms: C11_24  and  C14_27 
REMARK       I    between atoms: C14_27  and  N5_29 
REMARK   14  A    between atoms: N5_29  and  C15_31 
REMARK   15  A    between atoms: C15_31  and  C16_32 
REMARK   16  A    between atoms: C16_32  and  C17_33 
REMARK   17  A    between atoms: C17_33  and  C18_34 
REMARK   18  A    between atoms: C18_34  and  C19_35 
REMARK   19  A    between atoms: C19_35  and  C20_36 
REMARK   20  A    between atoms: C20_36  and  C21_37 
ROOT
HETATM    1  N3  UNL     1      19.111  25.062  12.618  1.00  0.00    -0.343 N 
HETATM    2  C7  UNL     1      20.459  25.526  12.607  1.00  0.00     0.129 C 
HETATM    3  C8  UNL     1      21.090  25.106  13.952  1.00  0.00     0.054 C 
HETATM    4  C9  UNL     1      19.989  24.465  14.684  1.00  0.00     0.153 C 
HETATM    5  C22 UNL     1      19.160  23.855  13.518  1.00  0.00     0.159 C 
ENDROOT
BRANCH   1   6
HETATM    6  C6  UNL     1      17.975  25.504  11.952  1.00  0.00     0.243 C 
BRANCH   6   7
HETATM    7  N2  UNL     1      16.889  26.239  12.375  1.00  0.00    -0.199 N 
BRANCH   7   8
HETATM    8  C5  UNL     1      16.488  26.591  13.736  1.00  0.00     0.223 C 
BRANCH   8   9
HETATM    9  N1  UNL     1      15.082  26.343  13.914  1.00  0.00    -0.366 N 
ATOM     10  H1  UNL     1      14.611  26.924  14.608  1.00  0.00     0.162 HD
BRANCH   9  11
HETATM   11  C4  UNL     1      14.274  25.397  13.252  1.00  0.00     0.038 A 
HETATM   12  C3  UNL     1      13.254  25.764  12.398  1.00  0.00     0.068 A 
HETATM   13  C2  UNL     1      12.450  24.871  11.756  1.00  0.00     0.092 A 
HETATM   14  C30 UNL     1      12.645  23.521  11.957  1.00  0.00     0.068 A 
HETATM   15  C29 UNL     1      13.646  23.130  12.799  1.00  0.00     0.035 A 
HETATM   16 CL1  UNL     1      11.664  22.296  11.174  1.00  0.00    -0.081 Cl
HETATM   17  C27 UNL     1      14.472  24.045  13.457  1.00  0.00    -0.034 A 
HETATM   18  C28 UNL     1      15.513  23.467  14.355  1.00  0.00     0.050 C 
BRANCH  13  19
HETATM   19  O1  UNL     1      11.402  25.240  10.879  1.00  0.00    -0.354 OA
HETATM   20  C1  UNL     1      11.819  25.486   9.527  1.00  0.00     0.210 C 
ENDBRANCH  13  19
ENDBRANCH   9  11
ENDBRANCH   8   9
BRANCH   8  21
HETATM   21  C23 UNL     1      16.869  28.056  13.962  1.00  0.00    -0.011 C 
HETATM   22  C24 UNL     1      16.495  28.462  15.398  1.00  0.00     0.018 C 
HETATM   23  C25 UNL     1      16.025  28.983  13.101  1.00  0.00     0.018 C 
HETATM   24  C26 UNL     1      18.332  28.331  13.790  1.00  0.00     0.018 C 
ENDBRANCH   8  21
ENDBRANCH   7   8
BRANCH   7  25
HETATM   25  O2  UNL     1      16.019  26.703  11.395  1.00  0.00    -0.282 OA
ATOM     26  H2  UNL     1      15.343  26.080  11.154  1.00  0.00     0.245 HD
ENDBRANCH   7  25
ENDBRANCH   6   7
BRANCH   6  27
HETATM   27  O3  UNL     1      17.939  25.154  10.688  1.00  0.00    -0.331 OA
ATOM     28  H3  UNL     1      17.070  24.970  10.353  1.00  0.00     0.221 HD
ENDBRANCH   6  27
ENDBRANCH   1   6
BRANCH   4  29
HETATM   29  O4  UNL     1      19.122  25.304  15.410  1.00  0.00    -0.297 OA
BRANCH  29  30
HETATM   30  C10 UNL     1      18.486  24.878  16.601  1.00  0.00     0.362 C 
HETATM   31  O5  UNL     1      19.174  24.070  17.272  1.00  0.00    -0.238 OA
HETATM   32  N4  UNL     1      17.207  25.353  16.929  1.00  0.00    -0.319 N 
ATOM     33  H4  UNL     1      16.757  26.028  16.310  1.00  0.00     0.166 HD
BRANCH  32  34
HETATM   34  C11 UNL     1      16.510  24.915  18.115  1.00  0.00     0.108 C 
HETATM   35  C12 UNL     1      15.378  25.854  18.397  1.00  0.00     0.049 C 
HETATM   36  C13 UNL     1      17.482  24.861  19.293  1.00  0.00     0.049 C 
BRANCH  34  37
HETATM   37  C14 UNL     1      16.028  23.525  17.924  1.00  0.00     0.245 C 
HETATM   38  O6  UNL     1      14.789  23.326  17.878  1.00  0.00    -0.271 OA
HETATM   39  N5  UNL     1      16.902  22.429  17.786  1.00  0.00    -0.359 N 
ATOM     40  H5  UNL     1      17.913  22.562  17.833  1.00  0.00     0.162 HD
BRANCH  39  41
HETATM   41  C15 UNL     1      16.322  21.061  17.571  1.00  0.00     0.122 C 
BRANCH  41  42
HETATM   42  C16 UNL     1      17.155  20.305  16.632  1.00  0.00     0.020 C 
BRANCH  42  43
HETATM   43  C17 UNL     1      16.981  18.876  16.405  1.00  0.00     0.002 C 
BRANCH  43  44
HETATM   44  C18 UNL     1      15.873  18.376  15.609  1.00  0.00     0.001 C 
BRANCH  44  45
HETATM   45  C19 UNL     1      15.915  18.459  14.137  1.00  0.00     0.009 C 
BRANCH  45  46
HETATM   46  C20 UNL     1      15.259  19.828  13.706  1.00  0.00     0.099 C 
BRANCH  46  47
HETATM   47  C21 UNL     1      15.801  20.223  12.410  1.00  0.00     0.231 C 
HETATM   48  N6  UNL     1      17.168  20.560  12.296  1.00  0.00    -0.062 NA
HETATM   49  O7  UNL     1      15.046  20.265  11.391  1.00  0.00    -0.277 OA
ENDBRANCH  46  47
ENDBRANCH  45  46
ENDBRANCH  44  45
ENDBRANCH  43  44
ENDBRANCH  42  43
ENDBRANCH  41  42
ENDBRANCH  39  41
ENDBRANCH  34  37
ENDBRANCH  32  34
ENDBRANCH  29  30
ENDBRANCH   4  29
TORSDOF 20
ENDMDL
MODEL 2
REMARK VINA RESULT: -7.428414324      2.272      3.425
REMARK  20 active torsions:
REMARK  status: ('A' for Active; 'I' for Inactive)
REMARK    1  A    between atoms: O1_2  and  C2_3 
REMARK    2  A    between atoms: C4_5  and  N1_6 
REMARK    3  A    between atoms: N1_6  and  C5_8 
REMARK    4  A    between atoms: C5_8  and  N2_9 
REMARK    5  A    between atoms: C5_8  and  C23_41 
REMARK    6  A    between atoms: N2_9  and  O2_10 
REMARK    7  A    between atoms: N2_9  and  C6_12 
REMARK    8  A    between atoms: C6_12  and  O3_13 
REMARK    9  A    between atoms: C6_12  and  N3_15 
REMARK   10  A    between atoms: C9_18  and  O4_19 
REMARK   11  A    between atoms: O4_19  and  C10_20 
REMARK       I    between atoms: C10_20  and  N4_22 
REMARK   12  A    between atoms: N4_22  and  C11_24 
REMARK   13  A    between atoms: C11_24  and  C14_27 
REMARK       I    between atoms: C14_27  and  N5_29 
REMARK   14  A    between atoms: N5_29  and  C15_31 
REMARK   15  A    between atoms: C15_31  and  C16_32 
REMARK   16  A    between atoms: C16_32  and  C17_33 
REMARK   17  A    between atoms: C17_33  and  C18_34 
REMARK   18  A    between atoms: C18_34  and  C19_35 
REMARK   19  A    between atoms: C19_35  and  C20_36 
REMARK   20  A    between atoms: C20_36  and  C21_37 
ROOT
HETATM    1  N3  UNL     1      19.166  25.150  12.977  1.00  0.00    -0.343 N 
HETATM    2  C7  UNL     1      20.443  25.564  12.500  1.00  0.00     0.129 C 
HETATM    3  C8  UNL     1      21.407  25.529  13.705  1.00  0.00     0.054 C 
HETATM    4  C9  UNL     1      20.554  25.145  14.839  1.00  0.00     0.153 C 
HETATM    5  C22 UNL     1      19.496  24.248  14.136  1.00  0.00     0.159 C 
ENDROOT
BRANCH   1   6
HETATM    6  C6  UNL     1      17.879  25.410  12.521  1.00  0.00     0.243 C 
BRANCH   6   7
HETATM    7  N2  UNL     1      16.733  25.803  13.177  1.00  0.00    -0.199 N 
BRANCH   7   8
HETATM    8  C5  UNL     1      15.351  25.379  12.952  1.00  0.00     0.223 C 
BRANCH   8   9
HETATM    9  N1  UNL     1      14.479  26.522  12.965  1.00  0.00    -0.366 N 
ATOM     10  H1  UNL     1      14.031  26.731  13.858  1.00  0.00     0.162 HD
BRANCH   9  11
HETATM   11  C4  UNL     1      14.164  27.391  11.900  1.00  0.00     0.038 A 
HETATM   12  C3  UNL     1      14.789  28.609  11.730  1.00  0.00     0.068 A 
HETATM   13  C2  UNL     1      14.495  29.473  10.718  1.00  0.00     0.092 A 
HETATM   14  C30 UNL     1      13.521  29.134   9.804  1.00  0.00     0.068 A 
HETATM   15  C29 UNL     1      12.884  27.935   9.950  1.00  0.00     0.035 A 
HETATM   16 CL1  UNL     1      13.073  30.177   8.466  1.00  0.00    -0.081 Cl
HETATM   17  C27 UNL     1      13.186  27.048  10.987  1.00  0.00    -0.034 A 
HETATM   18  C28 UNL     1      12.397  25.784  11.024  1.00  0.00     0.050 C 
BRANCH  13  19
HETATM   19  O1  UNL     1      15.132  30.723  10.537  1.00  0.00    -0.354 OA
HETATM   20  C1  UNL     1      16.283  30.929  11.370  1.00  0.00     0.210 C 
ENDBRANCH  13  19
ENDBRANCH   9  11
ENDBRANCH   8   9
BRANCH   8  21
HETATM   21  C23 UNL     1      15.006  24.350  14.031  1.00  0.00    -0.011 C 
HETATM   22  C24 UNL     1      13.827  23.488  13.549  1.00  0.00     0.018 C 
HETATM   23  C25 UNL     1      14.463  25.025  15.281  1.00  0.00     0.018 C 
HETATM   24  C26 UNL     1      16.132  23.418  14.358  1.00  0.00     0.018 C 
ENDBRANCH   8  21
ENDBRANCH   7   8
BRANCH   7  25
HETATM   25  O2  UNL     1      16.872  26.753  14.182  1.00  0.00    -0.282 OA
ATOM     26  H2  UNL     1      17.588  27.361  14.039  1.00  0.00     0.245 HD
ENDBRANCH   7  25
ENDBRANCH   6   7
BRANCH   6  27
HETATM   27  O3  UNL     1      17.740  25.250  11.226  1.00  0.00    -0.331 OA
ATOM     28  H3  UNL     1      18.500  24.883  10.789  1.00  0.00     0.221 HD
ENDBRANCH   6  27
ENDBRANCH   1   6
BRANCH   4  29
HETATM   29  O4  UNL     1      19.851  26.173  15.494  1.00  0.00    -0.297 OA
BRANCH  29  30
HETATM   30  C10 UNL     1      19.130  25.946  16.691  1.00  0.00     0.362 C 
HETATM   31  O5  UNL     1      18.041  26.569  16.744  1.00  0.00    -0.238 OA
HETATM   32  N4  UNL     1      19.651  25.098  17.680  1.00  0.00    -0.319 N 
ATOM     33  H4  UNL     1      20.541  24.629  17.511  1.00  0.00     0.166 HD
BRANCH  32  34
HETATM   34  C11 UNL     1      18.966  24.869  18.930  1.00  0.00     0.108 C 
HETATM   35  C12 UNL     1      18.747  26.179  19.621  1.00  0.00     0.049 C 
HETATM   36  C13 UNL     1      19.790  23.922  19.803  1.00  0.00     0.049 C 
BRANCH  34  37
HETATM   37  C14 UNL     1      17.684  24.169  18.673  1.00  0.00     0.245 C 
HETATM   38  O6  UNL     1      16.626  24.681  19.117  1.00  0.00    -0.271 OA
HETATM   39  N5  UNL     1      17.606  22.963  17.948  1.00  0.00    -0.359 N 
ATOM     40  H5  UNL     1      18.451  22.520  17.587  1.00  0.00     0.162 HD
BRANCH  39  41
HETATM   41  C15 UNL     1      16.260  22.342  17.716  1.00  0.00     0.122 C 
BRANCH  41  42
HETATM   42  C16 UNL     1      16.406  20.902  17.481  1.00  0.00     0.020 C 
BRANCH  42  43
HETATM   43  C17 UNL     1      16.806  20.355  16.190  1.00  0.00     0.002 C 
BRANCH  43  44
HETATM   44  C18 UNL     1      16.435  19.004  15.806  1.00  0.00     0.001 C 
BRANCH  44  45
HETATM   45  C19 UNL     1      16.034  18.707  14.418  1.00  0.00     0.009 C 
BRANCH  45  46
HETATM   46  C20 UNL     1      15.279  19.970  13.848  1.00  0.00     0.099 C 
BRANCH  46  47
HETATM   47  C21 UNL     1      15.789  20.261  12.512  1.00  0.00     0.231 C 
HETATM   48  N6  UNL     1      14.903  20.700  11.503  1.00  0.00    -0.062 NA
HETATM   49  O7  UNL     1      17.024  20.117  12.258  1.00  0.00    -0.277 OA
ENDBRANCH  46  47
ENDBRANCH  45  46
ENDBRANCH  44  45
ENDBRANCH  43  44
ENDBRANCH  42  43
ENDBRANCH  41  42
ENDBRANCH  39  41
ENDBRANCH  34  37
ENDBRANCH  32  34
ENDBRANCH  29  30
ENDBRANCH   4  29
TORSDOF 20
ENDMDL
MODEL 3
REMARK VINA RESULT: -7.389748677      2.574      5.857
REMARK  20 active torsions:
REMARK  status: ('A' for Active; 'I' for Inactive)
REMARK    1  A    between atoms: O1_2  and  C2_3 
REMARK    2  A    between atoms: C4_5  and  N1_6 
REMARK    3  A    between atoms: N1_6  and  C5_8 
REMARK    4  A    between atoms: C5_8  and  N2_9 
REMARK    5  A    between atoms: C5_8  and  C23_41 
REMARK    6  A    between atoms: N2_9  and  O2_10 
REMARK    7  A    between atoms: N2_9  and  C6_12 
REMARK    8  A    between atoms: C6_12  and  O3_13 
REMARK    9  A    between atoms: C6_12  and  N3_15 
REMARK   10  A    between atoms: C9_18  and  O4_19 
REMARK   11  A    between atoms: O4_19  and  C10_20 
REMARK       I    between atoms: C10_20  and  N4_22 
REMARK   12  A    between atoms: N4_22  and  C11_24 
REMARK   13  A    between atoms: C11_24  and  C14_27 
REMARK       I    between atoms: C14_27  and  N5_29 
REMARK   14  A    between atoms: N5_29  and  C15_31 
REMARK   15  A    between atoms: C15_31  and  C16_32 
REMARK   16  A    between atoms: C16_32  and  C17_33 
REMARK   17  A    between atoms: C17_33  and  C18_34 
REMARK   18  A    between atoms: C18_34  and  C19_35 
REMARK   19  A    between atoms: C19_35  and  C20_36 
REMARK   20  A    between atoms: C20_36  and  C21_37 
ROOT
HETATM    1  N3  UNL     1      14.843  22.176  13.622  1.00  0.00    -0.343 N 
HETATM    2  C7  UNL     1      14.489  20.797  13.564  1.00  0.00     0.129 C 
HETATM    3  C8  UNL     1      15.797  20.003  13.359  1.00  0.00     0.054 C 
HETATM    4  C9  UNL     1      16.834  21.039  13.245  1.00  0.00     0.153 C 
HETATM    5  C22 UNL     1      16.251  22.157  14.156  1.00  0.00     0.159 C 
ENDROOT
BRANCH   1   6
HETATM    6  C6  UNL     1      14.124  23.329  13.336  1.00  0.00     0.243 C 
BRANCH   6   7
HETATM    7  N2  UNL     1      14.045  24.547  13.976  1.00  0.00    -0.199 N 
BRANCH   7   8
HETATM    8  C5  UNL     1      14.498  25.860  13.517  1.00  0.00     0.223 C 
BRANCH   8   9
HETATM    9  N1  UNL     1      14.341  25.963  12.091  1.00  0.00    -0.366 N 
ATOM     10  H1  UNL     1      14.538  25.115  11.558  1.00  0.00     0.162 HD
BRANCH   9  11
HETATM   11  C4  UNL     1      13.949  27.087  11.337  1.00  0.00     0.038 A 
HETATM   12  C3  UNL     1      14.676  28.260  11.324  1.00  0.00     0.068 A 
HETATM   13  C2  UNL     1      14.314  29.365  10.615  1.00  0.00     0.092 A 
HETATM   14  C30 UNL     1      13.159  29.334   9.862  1.00  0.00     0.068 A 
HETATM   15  C29 UNL     1      12.418  28.187   9.858  1.00  0.00     0.035 A 
HETATM   16 CL1  UNL     1      12.610  30.704   8.914  1.00  0.00    -0.081 Cl
HETATM   17  C27 UNL     1      12.790  27.053  10.585  1.00  0.00    -0.034 A 
HETATM   18  C28 UNL     1      11.875  25.880  10.492  1.00  0.00     0.050 C 
BRANCH  13  19
HETATM   19  O1  UNL     1      15.054  30.570  10.597  1.00  0.00    -0.354 OA
HETATM   20  C1  UNL     1      16.198  30.577  11.465  1.00  0.00     0.210 C 
ENDBRANCH  13  19
ENDBRANCH   9  11
ENDBRANCH   8   9
BRANCH   8  21
HETATM   21  C23 UNL     1      15.950  26.028  13.972  1.00  0.00    -0.011 C 
HETATM   22  C24 UNL     1      16.247  27.525  14.173  1.00  0.00     0.018 C 
HETATM   23  C25 UNL     1      16.921  25.618  12.877  1.00  0.00     0.018 C 
HETATM   24  C26 UNL     1      16.260  25.338  15.265  1.00  0.00     0.018 C 
ENDBRANCH   8  21
ENDBRANCH   7   8
BRANCH   7  25
HETATM   25  O2  UNL     1      13.485  24.559  15.248  1.00  0.00    -0.282 OA
ATOM     26  H2  UNL     1      13.923  23.986  15.866  1.00  0.00     0.245 HD
ENDBRANCH   7  25
ENDBRANCH   6   7
BRANCH   6  27
HETATM   27  O3  UNL     1      13.387  23.232  12.255  1.00  0.00    -0.331 OA
ATOM     28  H3  UNL     1      12.450  23.240  12.412  1.00  0.00     0.221 HD
ENDBRANCH   6  27
ENDBRANCH   1   6
BRANCH   4  29
HETATM   29  O4  UNL     1      17.039  21.609  11.975  1.00  0.00    -0.297 OA
BRANCH  29  30
HETATM   30  C10 UNL     1      18.254  22.245  11.624  1.00  0.00     0.362 C 
HETATM   31  O5  UNL     1      18.497  22.211  10.392  1.00  0.00    -0.238 OA
HETATM   32  N4  UNL     1      19.058  22.828  12.614  1.00  0.00    -0.319 N 
ATOM     33  H4  UNL     1      18.740  22.810  13.583  1.00  0.00     0.166 HD
BRANCH  32  34
HETATM   34  C11 UNL     1      20.322  23.454  12.303  1.00  0.00     0.108 C 
HETATM   35  C12 UNL     1      20.129  24.425  11.181  1.00  0.00     0.049 C 
HETATM   36  C13 UNL     1      21.348  22.383  11.928  1.00  0.00     0.049 C 
BRANCH  34  37
HETATM   37  C14 UNL     1      20.859  24.121  13.514  1.00  0.00     0.245 C 
HETATM   38  O6  UNL     1      22.040  23.869  13.858  1.00  0.00    -0.271 OA
HETATM   39  N5  UNL     1      20.101  25.024  14.285  1.00  0.00    -0.359 N 
ATOM     40  H5  UNL     1      19.134  25.236  14.034  1.00  0.00     0.162 HD
BRANCH  39  41
HETATM   41  C15 UNL     1      20.738  25.670  15.480  1.00  0.00     0.122 C 
BRANCH  41  42
HETATM   42  C16 UNL     1      19.853  25.555  16.643  1.00  0.00     0.020 C 
BRANCH  42  43
HETATM   43  C17 UNL     1      20.224  24.812  17.841  1.00  0.00     0.002 C 
BRANCH  43  44
HETATM   44  C18 UNL     1      19.517  23.598  18.214  1.00  0.00     0.001 C 
BRANCH  44  45
HETATM   45  C19 UNL     1      18.280  23.210  17.510  1.00  0.00     0.009 C 
BRANCH  45  46
HETATM   46  C20 UNL     1      17.056  23.565  18.441  1.00  0.00     0.099 C 
BRANCH  46  47
HETATM   47  C21 UNL     1      15.883  22.833  17.975  1.00  0.00     0.231 C 
HETATM   48  N6  UNL     1      14.651  23.508  17.823  1.00  0.00    -0.062 NA
HETATM   49  O7  UNL     1      15.969  21.595  17.709  1.00  0.00    -0.277 OA
ENDBRANCH  46  47
ENDBRANCH  45  46
ENDBRANCH  44  45
ENDBRANCH  43  44
ENDBRANCH  42  43
ENDBRANCH  41  42
ENDBRANCH  39  41
ENDBRANCH  34  37
ENDBRANCH  32  34
ENDBRANCH  29  30
ENDBRANCH   4  29
TORSDOF 20
ENDMDL
MODEL 4
REMARK VINA RESULT: -7.379660480      2.508      4.203
REMARK  20 active torsions:
REMARK  status: ('A' for Active; 'I' for Inactive)
REMARK    1  A    between atoms: O1_2  and  C2_3 
REMARK    2  A    between atoms: C4_5  and  N1_6 
REMARK    3  A    between atoms: N1_6  and  C5_8 
REMARK    4  A    between atoms: C5_8  and  N2_9 
REMARK    5  A    between atoms: C5_8  and  C23_41 
REMARK    6  A    between atoms: N2_9  and  O2_10 
REMARK    7  A    between atoms: N2_9  and  C6_12 
REMARK    8  A    between atoms: C6_12  and  O3_13 
REMARK    9  A    between atoms: C6_12  and  N3_15 
REMARK   10  A    between atoms: C9_18  and  O4_19 
REMARK   11  A    between atoms: O4_19  and  C10_20 
REMARK       I    between atoms: C10_20  and  N4_22 
REMARK   12  A    between atoms: N4_22  and  C11_24 
REMARK   13  A    between atoms: C11_24  and  C14_27 
REMARK       I    between atoms: C14_27  and  N5_29 
REMARK   14  A    between atoms: N5_29  and  C15_31 
REMARK   15  A    between atoms: C15_31  and  C16_32 
REMARK   16  A    between atoms: C16_32  and  C17_33 
REMARK   17  A    between atoms: C17_33  and  C18_34 
REMARK   18  A    between atoms: C18_34  and  C19_35 
REMARK   19  A    between atoms: C19_35  and  C20_36 
REMARK   20  A    between atoms: C20_36  and  C21_37 
ROOT
HETATM    1  N3  UNL     1      18.511  24.490  12.154  1.00  0.00    -0.343 N 
HETATM    2  C7  UNL     1      18.811  24.079  10.823  1.00  0.00     0.129 C 
HETATM    3  C8  UNL     1      20.142  23.298  10.883  1.00  0.00     0.054 C 
HETATM    4  C9  UNL     1      20.549  23.385  12.292  1.00  0.00     0.153 C 
HETATM    5  C22 UNL     1      19.169  23.438  13.007  1.00  0.00     0.159 C 
ENDROOT
BRANCH   1   6
HETATM    6  C6  UNL     1      17.758  25.548  12.648  1.00  0.00     0.243 C 
BRANCH   6   7
HETATM    7  N2  UNL     1      16.561  25.587  13.331  1.00  0.00    -0.199 N 
BRANCH   7   8
HETATM    8  C5  UNL     1      15.213  25.298  12.844  1.00  0.00     0.223 C 
BRANCH   8   9
HETATM    9  N1  UNL     1      14.409  26.490  12.890  1.00  0.00    -0.366 N 
ATOM     10  H1  UNL     1      14.044  26.747  13.807  1.00  0.00     0.162 HD
BRANCH   9  11
HETATM   11  C4  UNL     1      14.062  27.348  11.826  1.00  0.00     0.038 A 
HETATM   12  C3  UNL     1      13.125  27.004  10.874  1.00  0.00     0.068 A 
HETATM   13  C2  UNL     1      12.780  27.808   9.830  1.00  0.00     0.092 A 
HETATM   14  C30 UNL     1      13.389  29.038   9.696  1.00  0.00     0.068 A 
HETATM   15  C29 UNL     1      14.322  29.403  10.623  1.00  0.00     0.035 A 
HETATM   16 CL1  UNL     1      13.011  30.144   8.388  1.00  0.00    -0.081 Cl
HETATM   17  C27 UNL     1      14.675  28.579  11.695  1.00  0.00    -0.034 A 
HETATM   18  C28 UNL     1      15.719  29.109  12.618  1.00  0.00     0.050 C 
BRANCH  13  19
HETATM   19  O1  UNL     1      11.820  27.462   8.850  1.00  0.00    -0.354 OA
HETATM   20  C1  UNL     1      10.468  27.424   9.331  1.00  0.00     0.210 C 
ENDBRANCH  13  19
ENDBRANCH   9  11
ENDBRANCH   8   9
BRANCH   8  21
HETATM   21  C23 UNL     1      14.649  24.163  13.703  1.00  0.00    -0.011 C 
HETATM   22  C24 UNL     1      13.361  23.630  13.053  1.00  0.00     0.018 C 
HETATM   23  C25 UNL     1      14.177  24.678  15.054  1.00  0.00     0.018 C 
HETATM   24  C26 UNL     1      15.582  23.002  13.855  1.00  0.00     0.018 C 
ENDBRANCH   8  21
ENDBRANCH   7   8
BRANCH   7  25
HETATM   25  O2  UNL     1      16.607  25.974  14.665  1.00  0.00    -0.282 OA
ATOM     26  H2  UNL     1      17.389  25.688  15.122  1.00  0.00     0.245 HD
ENDBRANCH   7  25
ENDBRANCH   6   7
BRANCH   6  27
HETATM   27  O3  UNL     1      18.293  26.724  12.418  1.00  0.00    -0.331 OA
ATOM     28  H3  UNL     1      18.223  27.339  13.139  1.00  0.00     0.221 HD
ENDBRANCH   6  27
ENDBRANCH   1   6
BRANCH   4  29
HETATM   29  O4  UNL     1      21.261  24.533  12.688  1.00  0.00    -0.297 OA
BRANCH  29  30
HETATM   30  C10 UNL     1      21.302  24.964  14.036  1.00  0.00     0.362 C 
HETATM   31  O5  UNL     1      21.908  24.169  14.796  1.00  0.00    -0.238 OA
HETATM   32  N4  UNL     1      20.696  26.172  14.410  1.00  0.00    -0.319 N 
ATOM     33  H4  UNL     1      20.251  26.745  13.693  1.00  0.00     0.166 HD
BRANCH  32  34
HETATM   34  C11 UNL     1      20.683  26.630  15.780  1.00  0.00     0.108 C 
HETATM   35  C12 UNL     1      19.852  27.871  15.879  1.00  0.00     0.049 C 
HETATM   36  C13 UNL     1      22.115  26.892  16.248  1.00  0.00     0.049 C 
BRANCH  34  37
HETATM   37  C14 UNL     1      20.161  25.554  16.658  1.00  0.00     0.245 C 
HETATM   38  O6  UNL     1      20.771  25.313  17.730  1.00  0.00    -0.271 OA
HETATM   39  N5  UNL     1      19.012  24.803  16.342  1.00  0.00    -0.359 N 
ATOM     40  H5  UNL     1      18.506  24.971  15.471  1.00  0.00     0.162 HD
BRANCH  39  41
HETATM   41  C15 UNL     1      18.545  23.752  17.305  1.00  0.00     0.122 C 
BRANCH  41  42
HETATM   42  C16 UNL     1      17.122  23.472  17.092  1.00  0.00     0.020 C 
BRANCH  42  43
HETATM   43  C17 UNL     1      16.368  22.555  17.937  1.00  0.00     0.002 C 
BRANCH  43  44
HETATM   44  C18 UNL     1      16.354  21.128  17.663  1.00  0.00     0.001 C 
BRANCH  44  45
HETATM   45  C19 UNL     1      16.750  20.620  16.335  1.00  0.00     0.009 C 
BRANCH  45  46
HETATM   46  C20 UNL     1      16.959  19.060  16.452  1.00  0.00     0.099 C 
BRANCH  46  47
HETATM   47  C21 UNL     1      15.877  18.386  15.743  1.00  0.00     0.231 C 
HETATM   48  N6  UNL     1      15.800  16.975  15.760  1.00  0.00    -0.062 NA
HETATM   49  O7  UNL     1      15.011  19.064  15.110  1.00  0.00    -0.277 OA
ENDBRANCH  46  47
ENDBRANCH  45  46
ENDBRANCH  44  45
ENDBRANCH  43  44
ENDBRANCH  42  43
ENDBRANCH  41  42
ENDBRANCH  39  41
ENDBRANCH  34  37
ENDBRANCH  32  34
ENDBRANCH  29  30
ENDBRANCH   4  29
TORSDOF 20
ENDMDL
MODEL 5
REMARK VINA RESULT: -7.311947437      2.512      5.546
REMARK  20 active torsions:
REMARK  status: ('A' for Active; 'I' for Inactive)
REMARK    1  A    between atoms: O1_2  and  C2_3 
REMARK    2  A    between atoms: C4_5  and  N1_6 
REMARK    3  A    between atoms: N1_6  and  C5_8 
REMARK    4  A    between atoms: C5_8  and  N2_9 
REMARK    5  A    between atoms: C5_8  and  C23_41 
REMARK    6  A    between atoms: N2_9  and  O2_10 
REMARK    7  A    between atoms: N2_9  and  C6_12 
REMARK    8  A    between atoms: C6_12  and  O3_13 
REMARK    9  A    between atoms: C6_12  and  N3_15 
REMARK   10  A    between atoms: C9_18  and  O4_19 
REMARK   11  A    between atoms: O4_19  and  C10_20 
REMARK       I    between atoms: C10_20  and  N4_22 
REMARK   12  A    between atoms: N4_22  and  C11_24 
REMARK   13  A    between atoms: C11_24  and  C14_27 
REMARK       I    between atoms: C14_27  and  N5_29 
REMARK   14  A    between atoms: N5_29  and  C15_31 
REMARK   15  A    between atoms: C15_31  and  C16_32 
REMARK   16  A    between atoms: C16_32  and  C17_33 
REMARK   17  A    between atoms: C17_33  and  C18_34 
REMARK   18  A    between atoms: C18_34  and  C19_35 
REMARK   19  A    between atoms: C19_35  and  C20_36 
REMARK   20  A    between atoms: C20_36  and  C21_37 
ROOT
HETATM    1  N3  UNL     1      17.966  26.045  19.172  1.00  0.00    -0.343 N 
HETATM    2  C7  UNL     1      19.147  25.465  19.720  1.00  0.00     0.129 C 
HETATM    3  C8  UNL     1      20.346  26.154  19.033  1.00  0.00     0.054 C 
HETATM    4  C9  UNL     1      19.731  27.064  18.058  1.00  0.00     0.153 C 
HETATM    5  C22 UNL     1      18.402  27.431  18.778  1.00  0.00     0.159 C 
ENDROOT
BRANCH   1   6
HETATM    6  C6  UNL     1      16.671  25.558  19.042  1.00  0.00     0.243 C 
BRANCH   6   7
HETATM    7  N2  UNL     1      15.982  25.054  17.960  1.00  0.00    -0.199 N 
BRANCH   7   8
HETATM    8  C5  UNL     1      16.503  24.425  16.747  1.00  0.00     0.223 C 
BRANCH   8   9
HETATM    9  N1  UNL     1      15.484  24.396  15.733  1.00  0.00    -0.366 N 
ATOM     10  H1  UNL     1      14.767  23.679  15.841  1.00  0.00     0.162 HD
BRANCH   9  11
HETATM   11  C4  UNL     1      15.352  25.233  14.606  1.00  0.00     0.038 A 
HETATM   12  C3  UNL     1      16.118  26.367  14.433  1.00  0.00     0.068 A 
HETATM   13  C2  UNL     1      16.002  27.200  13.362  1.00  0.00     0.092 A 
HETATM   14  C30 UNL     1      15.073  26.916  12.384  1.00  0.00     0.068 A 
HETATM   15  C29 UNL     1      14.298  25.801  12.531  1.00  0.00     0.035 A 
HETATM   16 CL1  UNL     1      14.849  27.925  10.967  1.00  0.00    -0.081 Cl
HETATM   17  C27 UNL     1      14.418  24.945  13.630  1.00  0.00    -0.034 A 
HETATM   18  C28 UNL     1      13.495  23.775  13.658  1.00  0.00     0.050 C 
BRANCH  13  19
HETATM   19  O1  UNL     1      16.785  28.365  13.177  1.00  0.00    -0.354 OA
HETATM   20  C1  UNL     1      18.157  28.226  13.577  1.00  0.00     0.210 C 
ENDBRANCH  13  19
ENDBRANCH   9  11
ENDBRANCH   8   9
BRANCH   8  21
HETATM   21  C23 UNL     1      17.003  23.030  17.133  1.00  0.00    -0.011 C 
HETATM   22  C24 UNL     1      16.717  22.054  15.979  1.00  0.00     0.018 C 
HETATM   23  C25 UNL     1      16.198  22.458  18.289  1.00  0.00     0.018 C 
HETATM   24  C26 UNL     1      18.474  22.972  17.409  1.00  0.00     0.018 C 
ENDBRANCH   8  21
ENDBRANCH   7   8
BRANCH   7  25
HETATM   25  O2  UNL     1      14.597  25.166  17.985  1.00  0.00    -0.282 OA
ATOM     26  H2  UNL     1      14.236  25.291  18.855  1.00  0.00     0.245 HD
ENDBRANCH   7  25
ENDBRANCH   6   7
BRANCH   6  27
HETATM   27  O3  UNL     1      15.986  25.588  20.161  1.00  0.00    -0.331 OA
ATOM     28  H3  UNL     1      16.481  25.345  20.934  1.00  0.00     0.221 HD
ENDBRANCH   6  27
ENDBRANCH   1   6
BRANCH   4  29
HETATM   29  O4  UNL     1      19.384  26.528  16.803  1.00  0.00    -0.297 OA
BRANCH  29  30
HETATM   30  C10 UNL     1      20.361  26.165  15.845  1.00  0.00     0.362 C 
HETATM   31  O5  UNL     1      21.390  26.883  15.885  1.00  0.00    -0.238 OA
HETATM   32  N4  UNL     1      20.126  25.097  14.965  1.00  0.00    -0.319 N 
ATOM     33  H4  UNL     1      19.255  24.573  15.046  1.00  0.00     0.166 HD
BRANCH  32  34
HETATM   34  C11 UNL     1      21.080  24.719  13.950  1.00  0.00     0.108 C 
HETATM   35  C12 UNL     1      22.314  24.183  14.606  1.00  0.00     0.049 C 
HETATM   36  C13 UNL     1      21.408  25.930  13.076  1.00  0.00     0.049 C 
BRANCH  34  37
HETATM   37  C14 UNL     1      20.469  23.718  13.041  1.00  0.00     0.245 C 
HETATM   38  O6  UNL     1      21.229  22.924  12.433  1.00  0.00    -0.271 OA
HETATM   39  N5  UNL     1      19.078  23.621  12.841  1.00  0.00    -0.359 N 
ATOM     40  H5  UNL     1      18.439  24.263  13.313  1.00  0.00     0.162 HD
BRANCH  39  41
HETATM   41  C15 UNL     1      18.550  22.559  11.921  1.00  0.00     0.122 C 
BRANCH  41  42
HETATM   42  C16 UNL     1      17.241  22.094  12.390  1.00  0.00     0.020 C 
BRANCH  42  43
HETATM   43  C17 UNL     1      16.937  20.684  12.595  1.00  0.00     0.002 C 
BRANCH  43  44
HETATM   44  C18 UNL     1      15.563  20.228  12.721  1.00  0.00     0.001 C 
BRANCH  44  45
HETATM   45  C19 UNL     1      15.105  19.580  13.965  1.00  0.00     0.009 C 
BRANCH  45  46
HETATM   46  C20 UNL     1      15.783  18.158  14.053  1.00  0.00     0.099 C 
BRANCH  46  47
HETATM   47  C21 UNL     1      15.654  17.659  15.418  1.00  0.00     0.231 C 
HETATM   48  N6  UNL     1      14.499  16.937  15.795  1.00  0.00    -0.062 NA
HETATM   49  O7  UNL     1      16.575  17.875  16.264  1.00  0.00    -0.277 OA
ENDBRANCH  46  47
ENDBRANCH  45  46
ENDBRANCH  44  45
ENDBRANCH  43  44
ENDBRANCH  42  43
ENDBRANCH  41  42
ENDBRANCH  39  41
ENDBRANCH  34  37
ENDBRANCH  32  34
ENDBRANCH  29  30
ENDBRANCH   4  29
TORSDOF 20
ENDMDL
