MODEL 1
REMARK VINA RESULT: -7.883148106      0.000      0.000
REMARK  17 active torsions:
REMARK  status: ('A' for Active; 'I' for Inactive)
REMARK    1  A    between atoms: C2_2  and  N1_3 
REMARK       I    between atoms: N1_3  and  C3_5 
REMARK    2  A    between atoms: C3_5  and  C4_7 
REMARK    3  A    between atoms: C6_11  and  C7_12 
REMARK    4  A    between atoms: C11_18  and  C12_19 
REMARK    5  A    between atoms: C12_19  and  O2_20 
REMARK    6  A    between atoms: C12_19  and  N4_22 
REMARK    7  A    between atoms: N4_22  and  C13_24 
REMARK    8  A    between atoms: C13_24  and  C20_33 
REMARK    9  A    between atoms: C14_25  and  C15_26 
REMARK   10  A    between atoms: C20_33  and  C21_34 
REMARK   11  A    between atoms: C20_33  and  N5_36 
REMARK   12  A    between atoms: N5_36  and  C23_38 
REMARK   13  A    between atoms: C23_38  and  O3_39 
REMARK   14  A    between atoms: C24_41  and  N6_42 
REMARK   15  A    between atoms: C24_41  and  C27_48 
REMARK       I    between atoms: N6_42  and  C25_44 
REMARK   16  A    between atoms: C25_44  and  O5_46 
REMARK   17  A    between atoms: C27_48  and  C29_50 
ROOT
HETATM    1  C13 UNL     1      18.337  24.094  15.953  1.00  0.00     0.053 C 
HETATM    2  C14 UNL     1      17.460  23.185  16.658  1.00  0.00     0.015 C 
ENDROOT
BRANCH   1   3
HETATM    3  N4  UNL     1      17.819  25.000  14.935  1.00  0.00    -0.335 N 
ATOM      4  H4  UNL     1      18.242  24.911  14.012  1.00  0.00     0.168 HD
BRANCH   3   5
HETATM    5  C12 UNL     1      16.838  25.962  15.048  1.00  0.00     0.152 C 
BRANCH   5   6
HETATM    6  C11 UNL     1      15.414  25.755  14.890  1.00  0.00     0.030 A 
HETATM    7  C9  UNL     1      14.563  25.602  15.947  1.00  0.00    -0.032 A 
HETATM    8  C8  UNL     1      13.210  25.409  15.682  1.00  0.00     0.096 A 
HETATM    9  C10 UNL     1      14.941  25.628  17.386  1.00  0.00     0.050 C 
HETATM   10  N3  UNL     1      12.752  25.373  14.447  1.00  0.00    -0.364 N 
HETATM   11  C7  UNL     1      13.538  25.518  13.336  1.00  0.00     0.057 A 
ATOM     12  H3  UNL     1      11.751  25.229  14.311  1.00  0.00     0.165 HD
HETATM   13  C31 UNL     1      14.864  25.712  13.589  1.00  0.00    -0.019 A 
HETATM   14  C32 UNL     1      15.741  26.000  12.414  1.00  0.00     0.052 C 
BRANCH  11  15
HETATM   15  C6  UNL     1      12.894  25.393  12.032  1.00  0.00     0.049 A 
HETATM   16  C5  UNL     1      12.443  24.209  11.489  1.00  0.00     0.110 A 
HETATM   17  N2  UNL     1      11.895  24.262  10.324  1.00  0.00    -0.354 N 
HETATM   18  C4  UNL     1      11.775  25.411   9.687  1.00  0.00     0.143 A 
ATOM     19  H2  UNL     1      11.550  23.407   9.890  1.00  0.00     0.166 HD
HETATM   20  S1  UNL     1      12.482  26.488  10.800  1.00  0.00    -0.063 SA
BRANCH  18  21
HETATM   21  C3  UNL     1      11.162  25.671   8.361  1.00  0.00     0.275 C 
HETATM   22  N1  UNL     1       9.801  26.081   8.289  1.00  0.00    -0.356 N 
ATOM     23  H1  UNL     1       9.243  26.193   9.136  1.00  0.00     0.162 HD
HETATM   24  O1  UNL     1      11.871  25.516   7.362  1.00  0.00    -0.265 OA
BRANCH  22  25
HETATM   25  C2  UNL     1       9.228  26.335   6.984  1.00  0.00     0.118 C 
HETATM   26  C1  UNL     1       7.904  27.066   7.105  1.00  0.00     0.026 C 
ENDBRANCH  22  25
ENDBRANCH  18  21
ENDBRANCH  11  15
ENDBRANCH   5   6
BRANCH   5  27
HETATM   27  O2  UNL     1      17.153  27.193  15.332  1.00  0.00    -0.345 OA
ATOM     28  H2  UNL     1      16.923  27.447  16.218  1.00  0.00     0.219 HD
ENDBRANCH   5  27
ENDBRANCH   3   5
ENDBRANCH   1   3
BRANCH   1  29
HETATM   29  C20 UNL     1      19.471  24.742  16.654  1.00  0.00     0.037 C 
BRANCH  29  30
HETATM   30  C21 UNL     1      19.446  24.980  18.107  1.00  0.00     0.055 C 
HETATM   31  C22 UNL     1      20.226  24.159  19.036  1.00  0.00     0.011 C 
ENDBRANCH  29  30
BRANCH  29  32
HETATM   32  N5  UNL     1      20.070  25.905  15.963  1.00  0.00    -0.337 N 
ATOM     33  H5  UNL     1      19.526  26.764  15.883  1.00  0.00     0.168 HD
BRANCH  32  34
HETATM   34  C23 UNL     1      21.358  25.869  15.415  1.00  0.00     0.168 C 
HETATM   35  C24 UNL     1      21.937  25.535  14.148  1.00  0.00     0.090 C 
BRANCH  34  36
HETATM   36  O3  UNL     1      22.250  26.255  16.325  1.00  0.00    -0.344 OA
ATOM     37  H3  UNL     1      21.836  26.828  16.960  1.00  0.00     0.219 HD
ENDBRANCH  34  36
BRANCH  35  38
HETATM   38  N6  UNL     1      22.946  26.537  13.743  1.00  0.00    -0.299 N 
HETATM   39  C25 UNL     1      24.314  26.357  13.690  1.00  0.00     0.364 C 
HETATM   40  O4  UNL     1      24.876  25.261  13.999  1.00  0.00    -0.238 OA
ATOM     41  H6  UNL     1      22.595  27.457  13.475  1.00  0.00     0.171 HD
BRANCH  39  42
HETATM   42  O5  UNL     1      25.144  27.384  13.292  1.00  0.00    -0.309 OA
HETATM   43  C26 UNL     1      24.895  28.243  12.195  1.00  0.00     0.215 C 
ENDBRANCH  39  42
ENDBRANCH  35  38
BRANCH  35  44
HETATM   44  C27 UNL     1      21.234  24.884  13.048  1.00  0.00    -0.053 C 
HETATM   45  C28 UNL     1      20.122  25.577  12.360  1.00  0.00     0.046 C 
BRANCH  44  46
HETATM   46  C29 UNL     1      20.892  23.425  13.229  1.00  0.00     0.031 C 
HETATM   47  C30 UNL     1      19.999  22.857  12.172  1.00  0.00     0.010 C 
ENDBRANCH  44  46
ENDBRANCH  35  44
ENDBRANCH  32  34
ENDBRANCH  29  32
ENDBRANCH   1  29
BRANCH   2  48
HETATM   48  C15 UNL     1      16.666  22.106  16.079  1.00  0.00     0.083 C 
HETATM   49  C16 UNL     1      17.290  21.924  14.625  1.00  0.00     0.015 C 
HETATM   50  C17 UNL     1      16.297  20.924  14.093  1.00  0.00     0.007 C 
HETATM   51  C18 UNL     1      15.948  20.038  15.259  1.00  0.00     0.080 C 
HETATM   52  C19 UNL     1      16.657  20.714  16.479  1.00  0.00     0.250 C 
HETATM   53  F1  UNL     1      15.825  20.346  17.519  1.00  0.00    -0.206 F 
HETATM   54  F2  UNL     1      17.886  20.087  16.497  1.00  0.00    -0.206 F 
ENDBRANCH   2  48
TORSDOF 17
ENDMDL
MODEL 2
REMARK VINA RESULT: -7.779489457      3.231      8.800
REMARK  17 active torsions:
REMARK  status: ('A' for Active; 'I' for Inactive)
REMARK    1  A    between atoms: C2_2  and  N1_3 
REMARK       I    between atoms: N1_3  and  C3_5 
REMARK    2  A    between atoms: C3_5  and  C4_7 
REMARK    3  A    between atoms: C6_11  and  C7_12 
REMARK    4  A    between atoms: C11_18  and  C12_19 
REMARK    5  A    between atoms: C12_19  and  O2_20 
REMARK    6  A    between atoms: C12_19  and  N4_22 
REMARK    7  A    between atoms: N4_22  and  C13_24 
REMARK    8  A    between atoms: C13_24  and  C20_33 
REMARK    9  A    between atoms: C14_25  and  C15_26 
REMARK   10  A    between atoms: C20_33  and  C21_34 
REMARK   11  A    between atoms: C20_33  and  N5_36 
REMARK   12  A    between atoms: N5_36  and  C23_38 
REMARK   13  A    between atoms: C23_38  and  O3_39 
REMARK   14  A    between atoms: C24_41  and  N6_42 
REMARK   15  A    between atoms: C24_41  and  C27_48 
REMARK       I    between atoms: N6_42  and  C25_44 
REMARK   16  A    between atoms: C25_44  and  O5_46 
REMARK   17  A    between atoms: C27_48  and  C29_50 
ROOT
HETATM    1  C13 UNL     1      16.527  22.947  15.355  1.00  0.00     0.053 C 
HETATM    2  C14 UNL     1      16.103  21.775  14.622  1.00  0.00     0.015 C 
ENDROOT
BRANCH   1   3
HETATM    3  N4  UNL     1      17.918  23.384  15.336  1.00  0.00    -0.335 N 
ATOM      4  H4  UNL     1      18.418  23.221  14.462  1.00  0.00     0.168 HD
BRANCH   3   5
HETATM    5  C12 UNL     1      18.652  23.986  16.336  1.00  0.00     0.152 C 
BRANCH   5   6
HETATM    6  C11 UNL     1      19.318  25.268  16.255  1.00  0.00     0.030 A 
HETATM    7  C9  UNL     1      18.862  26.385  16.894  1.00  0.00    -0.032 A 
HETATM    8  C8  UNL     1      19.580  27.568  16.750  1.00  0.00     0.096 A 
HETATM    9  C10 UNL     1      17.650  26.468  17.754  1.00  0.00     0.050 C 
HETATM   10  N3  UNL     1      20.675  27.620  16.018  1.00  0.00    -0.364 N 
HETATM   11  C7  UNL     1      21.197  26.547  15.347  1.00  0.00     0.057 A 
ATOM     12  H3  UNL     1      21.162  28.514  15.947  1.00  0.00     0.165 HD
HETATM   13  C31 UNL     1      20.500  25.384  15.488  1.00  0.00    -0.019 A 
HETATM   14  C32 UNL     1      21.100  24.159  14.879  1.00  0.00     0.052 C 
BRANCH  11  15
HETATM   15  C6  UNL     1      22.382  26.776  14.527  1.00  0.00     0.049 A 
HETATM   16  C5  UNL     1      22.385  27.433  13.316  1.00  0.00     0.110 A 
HETATM   17  N2  UNL     1      23.515  27.554  12.709  1.00  0.00    -0.354 N 
HETATM   18  C4  UNL     1      24.620  27.067  13.238  1.00  0.00     0.143 A 
ATOM     19  H2  UNL     1      23.555  28.033  11.809  1.00  0.00     0.166 HD
HETATM   20  S1  UNL     1      24.030  26.389  14.685  1.00  0.00    -0.063 SA
BRANCH  18  21
HETATM   21  C3  UNL     1      26.003  27.125  12.704  1.00  0.00     0.275 C 
HETATM   22  N1  UNL     1      26.516  28.364  12.226  1.00  0.00    -0.356 N 
ATOM     23  H1  UNL     1      25.943  29.208  12.242  1.00  0.00     0.162 HD
HETATM   24  O1  UNL     1      26.659  26.079  12.696  1.00  0.00    -0.265 OA
BRANCH  22  25
HETATM   25  C2  UNL     1      27.870  28.396  11.716  1.00  0.00     0.118 C 
HETATM   26  C1  UNL     1      28.001  29.399  10.584  1.00  0.00     0.026 C 
ENDBRANCH  22  25
ENDBRANCH  18  21
ENDBRANCH  11  15
ENDBRANCH   5   6
BRANCH   5  27
HETATM   27  O2  UNL     1      18.791  23.402  17.492  1.00  0.00    -0.345 OA
ATOM     28  H2  UNL     1      18.001  22.969  17.793  1.00  0.00     0.219 HD
ENDBRANCH   5  27
ENDBRANCH   3   5
ENDBRANCH   1   3
BRANCH   1  29
HETATM   29  C20 UNL     1      15.643  24.134  15.454  1.00  0.00     0.037 C 
BRANCH  29  30
HETATM   30  C21 UNL     1      14.916  24.452  16.694  1.00  0.00     0.055 C 
HETATM   31  C22 UNL     1      15.255  23.819  17.971  1.00  0.00     0.011 C 
ENDBRANCH  29  30
BRANCH  29  32
HETATM   32  N5  UNL     1      14.776  24.385  14.282  1.00  0.00    -0.337 N 
ATOM     33  H5  UNL     1      14.115  23.663  13.995  1.00  0.00     0.168 HD
BRANCH  32  34
HETATM   34  C23 UNL     1      14.830  25.579  13.553  1.00  0.00     0.168 C 
HETATM   35  C24 UNL     1      15.851  26.370  12.934  1.00  0.00     0.090 C 
BRANCH  34  36
HETATM   36  O3  UNL     1      13.605  26.079  13.408  1.00  0.00    -0.344 OA
ATOM     37  H3  UNL     1      13.146  25.615  12.718  1.00  0.00     0.219 HD
ENDBRANCH  34  36
BRANCH  35  38
HETATM   38  N6  UNL     1      15.440  26.808  11.583  1.00  0.00    -0.299 N 
HETATM   39  C25 UNL     1      14.781  27.976  11.258  1.00  0.00     0.364 C 
HETATM   40  O4  UNL     1      14.440  28.838  12.126  1.00  0.00    -0.238 OA
ATOM     41  H6  UNL     1      15.668  26.181  10.810  1.00  0.00     0.171 HD
BRANCH  39  42
HETATM   42  O5  UNL     1      14.455  28.260   9.947  1.00  0.00    -0.309 OA
HETATM   43  C26 UNL     1      13.139  28.266   9.427  1.00  0.00     0.215 C 
ENDBRANCH  39  42
ENDBRANCH  35  38
BRANCH  35  44
HETATM   44  C27 UNL     1      17.287  26.181  13.113  1.00  0.00    -0.053 C 
HETATM   45  C28 UNL     1      18.183  27.352  13.238  1.00  0.00     0.046 C 
BRANCH  44  46
HETATM   46  C29 UNL     1      17.944  25.124  12.259  1.00  0.00     0.031 C 
HETATM   47  C30 UNL     1      19.353  25.430  11.862  1.00  0.00     0.010 C 
ENDBRANCH  44  46
ENDBRANCH  35  44
ENDBRANCH  32  34
ENDBRANCH  29  32
ENDBRANCH   1  29
BRANCH   2  48
HETATM   48  C15 UNL     1      16.553  20.402  14.827  1.00  0.00     0.083 C 
HETATM   49  C16 UNL     1      16.330  20.166  16.386  1.00  0.00     0.015 C 
HETATM   50  C17 UNL     1      16.973  18.808  16.489  1.00  0.00     0.007 C 
HETATM   51  C18 UNL     1      16.625  18.097  15.209  1.00  0.00     0.080 C 
HETATM   52  C19 UNL     1      15.922  19.192  14.341  1.00  0.00     0.250 C 
HETATM   53  F1  UNL     1      16.232  18.770  13.062  1.00  0.00    -0.206 F 
HETATM   54  F2  UNL     1      14.593  19.033  14.676  1.00  0.00    -0.206 F 
ENDBRANCH   2  48
TORSDOF 17
ENDMDL
MODEL 3
REMARK VINA RESULT: -7.706836069      2.863      9.421
REMARK  17 active torsions:
REMARK  status: ('A' for Active; 'I' for Inactive)
REMARK    1  A    between atoms: C2_2  and  N1_3 
REMARK       I    between atoms: N1_3  and  C3_5 
REMARK    2  A    between atoms: C3_5  and  C4_7 
REMARK    3  A    between atoms: C6_11  and  C7_12 
REMARK    4  A    between atoms: C11_18  and  C12_19 
REMARK    5  A    between atoms: C12_19  and  O2_20 
REMARK    6  A    between atoms: C12_19  and  N4_22 
REMARK    7  A    between atoms: N4_22  and  C13_24 
REMARK    8  A    between atoms: C13_24  and  C20_33 
REMARK    9  A    between atoms: C14_25  and  C15_26 
REMARK   10  A    between atoms: C20_33  and  C21_34 
REMARK   11  A    between atoms: C20_33  and  N5_36 
REMARK   12  A    between atoms: N5_36  and  C23_38 
REMARK   13  A    between atoms: C23_38  and  O3_39 
REMARK   14  A    between atoms: C24_41  and  N6_42 
REMARK   15  A    between atoms: C24_41  and  C27_48 
REMARK       I    between atoms: N6_42  and  C25_44 
REMARK   16  A    between atoms: C25_44  and  O5_46 
REMARK   17  A    between atoms: C27_48  and  C29_50 
ROOT
HETATM    1  C13 UNL     1      14.772  23.731  13.578  1.00  0.00     0.053 C 
HETATM    2  C14 UNL     1      14.345  22.435  13.100  1.00  0.00     0.015 C 
ENDROOT
BRANCH   1   3
HETATM    3  N4  UNL     1      16.144  24.189  13.388  1.00  0.00    -0.335 N 
ATOM      4  H4  UNL     1      16.639  23.775  12.599  1.00  0.00     0.168 HD
BRANCH   3   5
HETATM    5  C12 UNL     1      16.863  25.103  14.127  1.00  0.00     0.152 C 
BRANCH   5   6
HETATM    6  C11 UNL     1      17.992  24.813  14.984  1.00  0.00     0.030 A 
HETATM    7  C9  UNL     1      17.864  24.223  16.209  1.00  0.00    -0.032 A 
HETATM    8  C8  UNL     1      19.018  23.988  16.953  1.00  0.00     0.096 A 
HETATM    9  C10 UNL     1      16.589  23.789  16.843  1.00  0.00     0.050 C 
HETATM   10  N3  UNL     1      20.207  24.322  16.495  1.00  0.00    -0.364 N 
HETATM   11  C7  UNL     1      20.420  24.916  15.280  1.00  0.00     0.057 A 
ATOM     12  H3  UNL     1      21.019  24.127  17.082  1.00  0.00     0.165 HD
HETATM   13  C31 UNL     1      19.295  25.145  14.546  1.00  0.00    -0.019 A 
HETATM   14  C32 UNL     1      19.487  25.674  13.162  1.00  0.00     0.052 C 
BRANCH  11  15
HETATM   15  C6  UNL     1      21.790  25.283  14.939  1.00  0.00     0.049 A 
HETATM   16  C5  UNL     1      22.781  24.388  14.595  1.00  0.00     0.110 A 
HETATM   17  N2  UNL     1      23.945  24.869  14.321  1.00  0.00    -0.354 N 
HETATM   18  C4  UNL     1      24.167  26.168  14.370  1.00  0.00     0.143 A 
ATOM     19  H2  UNL     1      24.703  24.237  14.064  1.00  0.00     0.166 HD
HETATM   20  S1  UNL     1      22.636  26.753  14.834  1.00  0.00    -0.063 SA
BRANCH  18  21
HETATM   21  C3  UNL     1      25.421  26.901  14.072  1.00  0.00     0.275 C 
HETATM   22  N1  UNL     1      25.916  26.927  12.738  1.00  0.00    -0.356 N 
ATOM     23  H1  UNL     1      25.422  26.444  11.987  1.00  0.00     0.162 HD
HETATM   24  O1  UNL     1      25.991  27.466  15.011  1.00  0.00    -0.265 OA
BRANCH  22  25
HETATM   25  C2  UNL     1      27.138  27.656  12.472  1.00  0.00     0.118 C 
HETATM   26  C1  UNL     1      26.882  28.822  11.536  1.00  0.00     0.026 C 
ENDBRANCH  22  25
ENDBRANCH  18  21
ENDBRANCH  11  15
ENDBRANCH   5   6
BRANCH   5  27
HETATM   27  O2  UNL     1      16.555  26.368  14.089  1.00  0.00    -0.345 OA
ATOM     28  H2  UNL     1      16.194  26.694  14.905  1.00  0.00     0.219 HD
ENDBRANCH   5  27
ENDBRANCH   3   5
ENDBRANCH   1   3
BRANCH   1  29
HETATM   29  C20 UNL     1      13.855  24.895  13.520  1.00  0.00     0.037 C 
BRANCH  29  30
HETATM   30  C21 UNL     1      12.916  25.193  14.614  1.00  0.00     0.055 C 
HETATM   31  C22 UNL     1      13.349  25.229  16.013  1.00  0.00     0.011 C 
ENDBRANCH  29  30
BRANCH  29  32
HETATM   32  N5  UNL     1      13.199  25.127  12.214  1.00  0.00    -0.337 N 
ATOM     33  H5  UNL     1      12.478  24.476  11.903  1.00  0.00     0.168 HD
BRANCH  32  34
HETATM   34  C23 UNL     1      13.532  26.210  11.391  1.00  0.00     0.168 C 
HETATM   35  C24 UNL     1      12.862  27.014  10.414  1.00  0.00     0.090 C 
BRANCH  34  36
HETATM   36  O3  UNL     1      14.799  26.563  11.597  1.00  0.00    -0.344 OA
ATOM     37  H3  UNL     1      15.074  27.183  10.932  1.00  0.00     0.219 HD
ENDBRANCH  34  36
BRANCH  35  38
HETATM   38  N6  UNL     1      13.153  28.450  10.615  1.00  0.00    -0.299 N 
HETATM   39  C25 UNL     1      13.390  29.390   9.633  1.00  0.00     0.364 C 
HETATM   40  O4  UNL     1      13.384  29.108   8.395  1.00  0.00    -0.238 OA
ATOM     41  H6  UNL     1      13.182  28.779  11.580  1.00  0.00     0.171 HD
BRANCH  39  42
HETATM   42  O5  UNL     1      13.651  30.704   9.964  1.00  0.00    -0.309 OA
HETATM   43  C26 UNL     1      14.655  31.122  10.869  1.00  0.00     0.215 C 
ENDBRANCH  39  42
ENDBRANCH  35  38
BRANCH  35  44
HETATM   44  C27 UNL     1      11.554  26.722   9.838  1.00  0.00    -0.053 C 
HETATM   45  C28 UNL     1      10.340  26.768  10.684  1.00  0.00     0.046 C 
BRANCH  44  46
HETATM   46  C29 UNL     1      11.474  25.547   8.894  1.00  0.00     0.031 C 
HETATM   47  C30 UNL     1      11.524  25.906   7.443  1.00  0.00     0.010 C 
ENDBRANCH  44  46
ENDBRANCH  35  44
ENDBRANCH  32  34
ENDBRANCH  29  32
ENDBRANCH   1  29
BRANCH   2  48
HETATM   48  C15 UNL     1      14.855  21.134  13.520  1.00  0.00     0.083 C 
HETATM   49  C16 UNL     1      15.317  20.457  12.154  1.00  0.00     0.015 C 
HETATM   50  C17 UNL     1      15.657  19.095  12.698  1.00  0.00     0.007 C 
HETATM   51  C18 UNL     1      16.249  19.337  14.060  1.00  0.00     0.080 C 
HETATM   52  C19 UNL     1      16.048  20.871  14.298  1.00  0.00     0.250 C 
HETATM   53  F1  UNL     1      15.947  20.924  15.675  1.00  0.00    -0.206 F 
HETATM   54  F2  UNL     1      17.218  21.407  13.801  1.00  0.00    -0.206 F 
ENDBRANCH   2  48
TORSDOF 17
ENDMDL
MODEL 4
REMARK VINA RESULT: -7.662415266      3.793      8.752
REMARK  17 active torsions:
REMARK  status: ('A' for Active; 'I' for Inactive)
REMARK    1  A    between atoms: C2_2  and  N1_3 
REMARK       I    between atoms: N1_3  and  C3_5 
REMARK    2  A    between atoms: C3_5  and  C4_7 
REMARK    3  A    between atoms: C6_11  and  C7_12 
REMARK    4  A    between atoms: C11_18  and  C12_19 
REMARK    5  A    between atoms: C12_19  and  O2_20 
REMARK    6  A    between atoms: C12_19  and  N4_22 
REMARK    7  A    between atoms: N4_22  and  C13_24 
REMARK    8  A    between atoms: C13_24  and  C20_33 
REMARK    9  A    between atoms: C14_25  and  C15_26 
REMARK   10  A    between atoms: C20_33  and  C21_34 
REMARK   11  A    between atoms: C20_33  and  N5_36 
REMARK   12  A    between atoms: N5_36  and  C23_38 
REMARK   13  A    between atoms: C23_38  and  O3_39 
REMARK   14  A    between atoms: C24_41  and  N6_42 
REMARK   15  A    between atoms: C24_41  and  C27_48 
REMARK       I    between atoms: N6_42  and  C25_44 
REMARK   16  A    between atoms: C25_44  and  O5_46 
REMARK   17  A    between atoms: C27_48  and  C29_50 
ROOT
HETATM    1  C13 UNL     1      15.478  22.556  14.577  1.00  0.00     0.053 C 
HETATM    2  C14 UNL     1      15.463  21.357  13.768  1.00  0.00     0.015 C 
ENDROOT
BRANCH   1   3
HETATM    3  N4  UNL     1      16.466  22.739  15.633  1.00  0.00    -0.335 N 
ATOM      4  H4  UNL     1      17.425  22.499  15.383  1.00  0.00     0.168 HD
BRANCH   3   5
HETATM    5  C12 UNL     1      16.284  23.192  16.922  1.00  0.00     0.152 C 
BRANCH   5   6
HETATM    6  C11 UNL     1      16.755  24.449  17.462  1.00  0.00     0.030 A 
HETATM    7  C9  UNL     1      15.954  25.546  17.599  1.00  0.00    -0.032 A 
HETATM    8  C8  UNL     1      16.509  26.707  18.132  1.00  0.00     0.096 A 
HETATM    9  C10 UNL     1      14.513  25.629  17.236  1.00  0.00     0.050 C 
HETATM   10  N3  UNL     1      17.774  26.755  18.498  1.00  0.00    -0.364 N 
HETATM   11  C7  UNL     1      18.641  25.701  18.393  1.00  0.00     0.057 A 
ATOM     12  H3  UNL     1      18.128  27.632  18.882  1.00  0.00     0.165 HD
HETATM   13  C31 UNL     1      18.102  24.561  17.876  1.00  0.00    -0.019 A 
HETATM   14  C32 UNL     1      18.975  23.348  17.860  1.00  0.00     0.052 C 
BRANCH  11  15
HETATM   15  C6  UNL     1      20.029  25.928  18.783  1.00  0.00     0.049 A 
HETATM   16  C5  UNL     1      20.534  25.717  20.048  1.00  0.00     0.110 A 
HETATM   17  N2  UNL     1      21.785  25.965  20.236  1.00  0.00    -0.354 N 
HETATM   18  C4  UNL     1      22.541  26.401  19.248  1.00  0.00     0.143 A 
ATOM     19  H2  UNL     1      22.194  25.822  21.159  1.00  0.00     0.166 HD
HETATM   20  S1  UNL     1      21.419  26.470  17.969  1.00  0.00    -0.063 SA
BRANCH  18  21
HETATM   21  C3  UNL     1      23.990  26.720  19.267  1.00  0.00     0.275 C 
HETATM   22  N1  UNL     1      24.850  26.016  20.157  1.00  0.00    -0.356 N 
ATOM     23  H1  UNL     1      24.480  25.300  20.783  1.00  0.00     0.162 HD
HETATM   24  O1  UNL     1      24.394  27.597  18.497  1.00  0.00    -0.265 OA
BRANCH  22  25
HETATM   25  C2  UNL     1      26.260  26.340  20.151  1.00  0.00     0.118 C 
HETATM   26  C1  UNL     1      27.067  25.240  19.486  1.00  0.00     0.026 C 
ENDBRANCH  22  25
ENDBRANCH  18  21
ENDBRANCH  11  15
ENDBRANCH   5   6
BRANCH   5  27
HETATM   27  O2  UNL     1      15.626  22.471  17.785  1.00  0.00    -0.345 OA
ATOM     28  H2  UNL     1      15.187  21.725  17.396  1.00  0.00     0.219 HD
ENDBRANCH   5  27
ENDBRANCH   3   5
ENDBRANCH   1   3
BRANCH   1  29
HETATM   29  C20 UNL     1      15.151  23.872  13.978  1.00  0.00     0.037 C 
BRANCH  29  30
HETATM   30  C21 UNL     1      13.764  24.358  13.890  1.00  0.00     0.055 C 
HETATM   31  C22 UNL     1      13.408  25.536  13.095  1.00  0.00     0.011 C 
ENDBRANCH  29  30
BRANCH  29  32
HETATM   32  N5  UNL     1      15.882  24.209  12.736  1.00  0.00    -0.337 N 
ATOM     33  H5  UNL     1      15.368  24.246  11.857  1.00  0.00     0.168 HD
BRANCH  32  34
HETATM   34  C23 UNL     1      17.256  24.480  12.727  1.00  0.00     0.168 C 
HETATM   35  C24 UNL     1      18.157  25.294  13.485  1.00  0.00     0.090 C 
BRANCH  34  36
HETATM   36  O3  UNL     1      17.849  23.782  11.761  1.00  0.00    -0.344 OA
ATOM     37  H3  UNL     1      18.134  24.366  11.068  1.00  0.00     0.219 HD
ENDBRANCH  34  36
BRANCH  35  38
HETATM   38  N6  UNL     1      19.388  24.549  13.828  1.00  0.00    -0.299 N 
HETATM   39  C25 UNL     1      20.542  24.468  13.076  1.00  0.00     0.364 C 
HETATM   40  O4  UNL     1      20.675  25.051  11.955  1.00  0.00    -0.238 OA
ATOM     41  H6  UNL     1      19.383  24.043  14.714  1.00  0.00     0.171 HD
BRANCH  39  42
HETATM   42  O5  UNL     1      21.622  23.732  13.519  1.00  0.00    -0.309 OA
HETATM   43  C26 UNL     1      22.447  24.090  14.611  1.00  0.00     0.215 C 
ENDBRANCH  39  42
ENDBRANCH  35  38
BRANCH  35  44
HETATM   44  C27 UNL     1      17.761  26.313  14.450  1.00  0.00    -0.053 C 
HETATM   45  C28 UNL     1      16.617  27.208  14.163  1.00  0.00     0.046 C 
BRANCH  44  46
HETATM   46  C29 UNL     1      18.873  27.100  15.102  1.00  0.00     0.031 C 
HETATM   47  C30 UNL     1      18.517  28.510  15.453  1.00  0.00     0.010 C 
ENDBRANCH  44  46
ENDBRANCH  35  44
ENDBRANCH  32  34
ENDBRANCH  29  32
ENDBRANCH   1  29
BRANCH   2  48
HETATM   48  C15 UNL     1      15.247  19.990  14.229  1.00  0.00     0.083 C 
HETATM   49  C16 UNL     1      15.665  19.103  12.974  1.00  0.00     0.015 C 
HETATM   50  C17 UNL     1      15.247  17.761  13.515  1.00  0.00     0.007 C 
HETATM   51  C18 UNL     1      15.561  17.800  14.986  1.00  0.00     0.080 C 
HETATM   52  C19 UNL     1      15.998  19.280  15.245  1.00  0.00     0.250 C 
HETATM   53  F1  UNL     1      15.622  19.451  16.564  1.00  0.00    -0.206 F 
HETATM   54  F2  UNL     1      17.363  19.227  15.055  1.00  0.00    -0.206 F 
ENDBRANCH   2  48
TORSDOF 17
ENDMDL
MODEL 5
REMARK VINA RESULT: -7.643195602      3.842      5.420
REMARK  17 active torsions:
REMARK  status: ('A' for Active; 'I' for Inactive)
REMARK    1  A    between atoms: C2_2  and  N1_3 
REMARK       I    between atoms: N1_3  and  C3_5 
REMARK    2  A    between atoms: C3_5  and  C4_7 
REMARK    3  A    between atoms: C6_11  and  C7_12 
REMARK    4  A    between atoms: C11_18  and  C12_19 
REMARK    5  A    between atoms: C12_19  and  O2_20 
REMARK    6  A    between atoms: C12_19  and  N4_22 
REMARK    7  A    between atoms: N4_22  and  C13_24 
REMARK    8  A    between atoms: C13_24  and  C20_33 
REMARK    9  A    between atoms: C14_25  and  C15_26 
REMARK   10  A    between atoms: C20_33  and  C21_34 
REMARK   11  A    between atoms: C20_33  and  N5_36 
REMARK   12  A    between atoms: N5_36  and  C23_38 
REMARK   13  A    between atoms: C23_38  and  O3_39 
REMARK   14  A    between atoms: C24_41  and  N6_42 
REMARK   15  A    between atoms: C24_41  and  C27_48 
REMARK       I    between atoms: N6_42  and  C25_44 
REMARK   16  A    between atoms: C25_44  and  O5_46 
REMARK   17  A    between atoms: C27_48  and  C29_50 
ROOT
HETATM    1  C13 UNL     1      16.990  22.575  15.523  1.00  0.00     0.053 C 
HETATM    2  C14 UNL     1      16.579  21.246  15.918  1.00  0.00     0.015 C 
ENDROOT
BRANCH   1   3
HETATM    3  N4  UNL     1      16.281  23.302  14.477  1.00  0.00    -0.335 N 
ATOM      4  H4  UNL     1      16.591  23.114  13.524  1.00  0.00     0.168 HD
BRANCH   3   5
HETATM    5  C12 UNL     1      15.250  24.209  14.597  1.00  0.00     0.152 C 
BRANCH   5   6
HETATM    6  C11 UNL     1      15.099  25.438  13.847  1.00  0.00     0.030 A 
HETATM    7  C9  UNL     1      15.865  26.545  14.070  1.00  0.00    -0.032 A 
HETATM    8  C8  UNL     1      15.637  27.675  13.290  1.00  0.00     0.096 A 
HETATM    9  C10 UNL     1      16.951  26.669  15.081  1.00  0.00     0.050 C 
HETATM   10  N3  UNL     1      14.705  27.686  12.358  1.00  0.00    -0.364 N 
HETATM   11  C7  UNL     1      13.897  26.620  12.073  1.00  0.00     0.057 A 
ATOM     12  H3  UNL     1      14.580  28.542  11.816  1.00  0.00     0.165 HD
HETATM   13  C31 UNL     1      14.119  25.509  12.830  1.00  0.00    -0.019 A 
HETATM   14  C32 UNL     1      13.348  24.280  12.471  1.00  0.00     0.052 C 
BRANCH  11  15
HETATM   15  C6  UNL     1      12.870  26.805  11.053  1.00  0.00     0.049 A 
HETATM   16  C5  UNL     1      13.034  27.536   9.896  1.00  0.00     0.110 A 
HETATM   17  N2  UNL     1      12.030  27.608   9.091  1.00  0.00    -0.354 N 
HETATM   18  C4  UNL     1      10.895  27.000   9.374  1.00  0.00     0.143 A 
ATOM     19  H2  UNL     1      12.114  28.141   8.226  1.00  0.00     0.166 HD
HETATM   20  S1  UNL     1      11.263  26.281  10.874  1.00  0.00    -0.063 SA
BRANCH  18  21
HETATM   21  C3  UNL     1       9.648  26.952   8.571  1.00  0.00     0.275 C 
HETATM   22  N1  UNL     1       9.526  25.994   7.526  1.00  0.00    -0.356 N 
ATOM     23  H1  UNL     1      10.286  25.345   7.321  1.00  0.00     0.162 HD
HETATM   24  O1  UNL     1       8.757  27.761   8.849  1.00  0.00    -0.265 OA
BRANCH  22  25
HETATM   25  C2  UNL     1       8.297  25.964   6.762  1.00  0.00     0.118 C 
HETATM   26  C1  UNL     1       7.372  24.872   7.265  1.00  0.00     0.026 C 
ENDBRANCH  22  25
ENDBRANCH  18  21
ENDBRANCH  11  15
ENDBRANCH   5   6
BRANCH   5  27
HETATM   27  O2  UNL     1      14.282  23.996  15.442  1.00  0.00    -0.345 OA
ATOM     28  H2  UNL     1      14.405  23.214  15.966  1.00  0.00     0.219 HD
ENDBRANCH   5  27
ENDBRANCH   3   5
ENDBRANCH   1   3
BRANCH   1  29
HETATM   29  C20 UNL     1      17.495  23.538  16.532  1.00  0.00     0.037 C 
BRANCH  29  30
HETATM   30  C21 UNL     1      18.934  23.807  16.689  1.00  0.00     0.055 C 
HETATM   31  C22 UNL     1      19.659  24.688  15.770  1.00  0.00     0.011 C 
ENDBRANCH  29  30
BRANCH  29  32
HETATM   32  N5  UNL     1      16.847  23.471  17.861  1.00  0.00    -0.337 N 
ATOM     33  H5  UNL     1      17.039  22.671  18.463  1.00  0.00     0.168 HD
BRANCH  32  34
HETATM   34  C23 UNL     1      15.978  24.469  18.320  1.00  0.00     0.168 C 
HETATM   35  C24 UNL     1      16.110  25.767  18.911  1.00  0.00     0.090 C 
BRANCH  34  36
HETATM   36  O3  UNL     1      14.715  24.088  18.143  1.00  0.00    -0.344 OA
ATOM     37  H3  UNL     1      14.624  23.649  17.305  1.00  0.00     0.219 HD
ENDBRANCH  34  36
BRANCH  35  38
HETATM   38  N6  UNL     1      15.179  26.732  18.288  1.00  0.00    -0.299 N 
HETATM   39  C25 UNL     1      14.564  27.802  18.905  1.00  0.00     0.364 C 
HETATM   40  O4  UNL     1      14.739  28.083  20.131  1.00  0.00    -0.238 OA
ATOM     41  H6  UNL     1      14.970  26.593  17.299  1.00  0.00     0.171 HD
BRANCH  39  42
HETATM   42  O5  UNL     1      13.712  28.628  18.200  1.00  0.00    -0.309 OA
HETATM   43  C26 UNL     1      13.878  30.026  18.061  1.00  0.00     0.215 C 
ENDBRANCH  39  42
ENDBRANCH  35  38
BRANCH  35  44
HETATM   44  C27 UNL     1      17.354  26.341  19.411  1.00  0.00    -0.053 C 
HETATM   45  C28 UNL     1      18.296  27.004  18.481  1.00  0.00     0.046 C 
BRANCH  44  46
HETATM   46  C29 UNL     1      18.124  25.521  20.418  1.00  0.00     0.031 C 
HETATM   47  C30 UNL     1      19.601  25.473  20.187  1.00  0.00     0.010 C 
ENDBRANCH  44  46
ENDBRANCH  35  44
ENDBRANCH  32  34
ENDBRANCH  29  32
ENDBRANCH   1  29
BRANCH   2  48
HETATM   48  C15 UNL     1      16.556  20.051  15.081  1.00  0.00     0.083 C 
HETATM   49  C16 UNL     1      16.067  18.909  16.077  1.00  0.00     0.015 C 
HETATM   50  C17 UNL     1      16.243  17.733  15.154  1.00  0.00     0.007 C 
HETATM   51  C18 UNL     1      15.867  18.232  13.785  1.00  0.00     0.080 C 
HETATM   52  C19 UNL     1      15.655  19.769  13.983  1.00  0.00     0.250 C 
HETATM   53  F1  UNL     1      15.988  20.256  12.732  1.00  0.00    -0.206 F 
HETATM   54  F2  UNL     1      14.309  19.851  14.274  1.00  0.00    -0.206 F 
ENDBRANCH   2  48
TORSDOF 17
ENDMDL
