MODEL 1
REMARK VINA RESULT: -7.926259443      0.000      0.000
REMARK  7 active torsions:
REMARK  status: ('A' for Active; 'I' for Inactive)
REMARK    1  A    between atoms: O1_2  and  C2_3 
REMARK    2  A    between atoms: C3_4  and  O2_5 
REMARK    3  A    between atoms: C8_11  and  O3_12 
REMARK    4  A    between atoms: C11_16  and  C12_17 
REMARK    5  A    between atoms: C12_17  and  C13_18 
REMARK    6  A    between atoms: C13_18  and  N1_19 
REMARK    7  A    between atoms: C16_25  and  N2_26 
ROOT
HETATM    1  C2  UNL     1      14.862  11.591  -8.432  1.00  0.00     0.136 A 
HETATM    2  C3  UNL     1      14.325  12.874  -8.557  1.00  0.00     0.110 A 
HETATM    3  C4  UNL     1      14.950  13.784  -9.373  1.00  0.00     0.009 A 
HETATM    4  C5  UNL     1      14.364  15.155  -9.497  1.00  0.00     0.054 C 
HETATM    5  C6  UNL     1      16.101  13.438 -10.069  1.00  0.00     0.094 A 
HETATM    6  C7  UNL     1      16.666  12.186  -9.977  1.00  0.00     0.023 A 
HETATM    7  C8  UNL     1      15.993  11.296  -9.133  1.00  0.00     0.111 A 
HETATM    8  C9  UNL     1      17.821  11.842 -10.657  1.00  0.00     0.086 A 
HETATM    9  C10 UNL     1      18.327  12.958 -11.493  1.00  0.00    -0.035 A 
HETATM   10  C11 UNL     1      17.780  14.139 -11.574  1.00  0.00     0.088 A 
HETATM   11  O4  UNL     1      16.630  14.449 -10.862  1.00  0.00    -0.309 OA
HETATM   12  C14 UNL     1      19.554  12.415 -12.222  1.00  0.00     0.040 C 
HETATM   13  C15 UNL     1      19.402  10.907 -12.128  1.00  0.00     0.038 C 
HETATM   14  C16 UNL     1      17.997  10.786 -11.655  1.00  0.00     0.196 C 
ENDROOT
BRANCH  10  15
HETATM   15  C12 UNL     1      18.429  15.110 -12.448  1.00  0.00     0.111 C 
BRANCH  15  16
HETATM   16  C13 UNL     1      18.259  16.391 -12.218  1.00  0.00    -0.046 C 
BRANCH  16  17
HETATM   17  N1  UNL     1      17.876  17.516 -11.736  1.00  0.00    -0.366 N 
ATOM     18  H12 UNL     1      18.425  17.418 -10.881  1.00  0.00     0.165 HD
ATOM     19  H11 UNL     1      17.426  18.421 -11.597  1.00  0.00     0.165 HD
ENDBRANCH  16  17
ENDBRANCH  15  16
ENDBRANCH  10  15
BRANCH  14  20
HETATM   20  N2  UNL     1      17.001  10.587 -12.630  1.00  0.00    -0.074 N 
ATOM     21  H23 UNL     1      16.554  11.482 -12.827  1.00  0.00     0.274 HD
ATOM     22  H22 UNL     1      17.452  10.388 -13.523  1.00  0.00     0.274 HD
ATOM     23  H21 UNL     1      16.276   9.889 -12.467  1.00  0.00     0.274 HD
ENDBRANCH  14  20
BRANCH   7  24
HETATM   24  O3  UNL     1      16.559  10.057  -9.047  1.00  0.00    -0.357 OA
ATOM     25  H3  UNL     1      17.456   9.955  -8.753  1.00  0.00     0.217 HD
ENDBRANCH   7  24
BRANCH   2  26
HETATM   26  O2  UNL     1      13.170  13.161  -7.833  1.00  0.00    -0.357 OA
ATOM     27  H2  UNL     1      12.407  13.447  -8.321  1.00  0.00     0.217 HD
ENDBRANCH   2  26
BRANCH   1  28
HETATM   28  O1  UNL     1      14.238  10.665  -7.608  1.00  0.00    -0.351 OA
HETATM   29  C1  UNL     1      14.550  10.470  -6.258  1.00  0.00     0.210 C 
ENDBRANCH   1  28
TORSDOF 7
ENDMDL
MODEL 2
REMARK VINA RESULT: -7.767198000      1.911      2.757
REMARK  7 active torsions:
REMARK  status: ('A' for Active; 'I' for Inactive)
REMARK    1  A    between atoms: O1_2  and  C2_3 
REMARK    2  A    between atoms: C3_4  and  O2_5 
REMARK    3  A    between atoms: C8_11  and  O3_12 
REMARK    4  A    between atoms: C11_16  and  C12_17 
REMARK    5  A    between atoms: C12_17  and  C13_18 
REMARK    6  A    between atoms: C13_18  and  N1_19 
REMARK    7  A    between atoms: C16_25  and  N2_26 
ROOT
HETATM    1  C2  UNL     1      15.781  10.855  -7.375  1.00  0.00     0.136 A 
HETATM    2  C3  UNL     1      14.458  11.288  -7.259  1.00  0.00     0.110 A 
HETATM    3  C4  UNL     1      14.015  12.308  -8.063  1.00  0.00     0.009 A 
HETATM    4  C5  UNL     1      12.596  12.761  -7.927  1.00  0.00     0.054 C 
HETATM    5  C6  UNL     1      14.867  12.905  -8.983  1.00  0.00     0.094 A 
HETATM    6  C7  UNL     1      16.178  12.513  -9.132  1.00  0.00     0.023 A 
HETATM    7  C8  UNL     1      16.581  11.471  -8.290  1.00  0.00     0.111 A 
HETATM    8  C9  UNL     1      17.033  13.117 -10.037  1.00  0.00     0.086 A 
HETATM    9  C10 UNL     1      16.356  14.183 -10.816  1.00  0.00    -0.035 A 
HETATM   10  C11 UNL     1      15.112  14.542 -10.667  1.00  0.00     0.088 A 
HETATM   11  O4  UNL     1      14.292  13.923  -9.735  1.00  0.00    -0.309 OA
HETATM   12  C14 UNL     1      17.397  14.706 -11.805  1.00  0.00     0.040 C 
HETATM   13  C15 UNL     1      18.442  13.607 -11.857  1.00  0.00     0.038 C 
HETATM   14  C16 UNL     1      17.734  12.498 -11.163  1.00  0.00     0.196 C 
ENDROOT
BRANCH  10  15
HETATM   15  C12 UNL     1      14.627  15.618 -11.526  1.00  0.00     0.111 C 
BRANCH  15  16
HETATM   16  C13 UNL     1      13.607  16.341 -11.127  1.00  0.00    -0.046 C 
BRANCH  16  17
HETATM   17  N1  UNL     1      12.550  17.065 -11.090  1.00  0.00    -0.366 N 
ATOM     18  H12 UNL     1      11.941  16.289 -10.829  1.00  0.00     0.165 HD
ATOM     19  H11 UNL     1      11.893  17.845 -11.133  1.00  0.00     0.165 HD
ENDBRANCH  16  17
ENDBRANCH  15  16
ENDBRANCH  10  15
BRANCH  14  20
HETATM   20  N2  UNL     1      17.054  11.562 -11.967  1.00  0.00    -0.074 N 
ATOM     21  H23 UNL     1      17.712  11.170 -12.639  1.00  0.00     0.274 HD
ATOM     22  H22 UNL     1      16.834  10.743 -11.400  1.00  0.00     0.274 HD
ATOM     23  H21 UNL     1      16.212  11.852 -12.464  1.00  0.00     0.274 HD
ENDBRANCH  14  20
BRANCH   7  24
HETATM   24  O3  UNL     1      17.882  11.088  -8.445  1.00  0.00    -0.357 OA
ATOM     25  H3  UNL     1      18.097  10.280  -8.895  1.00  0.00     0.217 HD
ENDBRANCH   7  24
BRANCH   2  26
HETATM   26  O2  UNL     1      13.654  10.649  -6.318  1.00  0.00    -0.357 OA
ATOM     27  H2  UNL     1      12.970  10.076  -6.642  1.00  0.00     0.217 HD
ENDBRANCH   2  26
BRANCH   1  28
HETATM   28  O1  UNL     1      16.239   9.826  -6.565  1.00  0.00    -0.351 OA
HETATM   29  C1  UNL     1      16.288   8.481  -6.947  1.00  0.00     0.210 C 
ENDBRANCH   1  28
TORSDOF 7
ENDMDL
MODEL 3
REMARK VINA RESULT: -7.660905339      1.676      2.148
REMARK  7 active torsions:
REMARK  status: ('A' for Active; 'I' for Inactive)
REMARK    1  A    between atoms: O1_2  and  C2_3 
REMARK    2  A    between atoms: C3_4  and  O2_5 
REMARK    3  A    between atoms: C8_11  and  O3_12 
REMARK    4  A    between atoms: C11_16  and  C12_17 
REMARK    5  A    between atoms: C12_17  and  C13_18 
REMARK    6  A    between atoms: C13_18  and  N1_19 
REMARK    7  A    between atoms: C16_25  and  N2_26 
ROOT
HETATM    1  C2  UNL     1      15.428  10.174  -7.653  1.00  0.00     0.136 A 
HETATM    2  C3  UNL     1      14.365  11.047  -7.411  1.00  0.00     0.110 A 
HETATM    3  C4  UNL     1      14.292  12.223  -8.115  1.00  0.00     0.009 A 
HETATM    4  C5  UNL     1      13.148  13.149  -7.845  1.00  0.00     0.054 C 
HETATM    5  C6  UNL     1      15.260  12.546  -9.057  1.00  0.00     0.094 A 
HETATM    6  C7  UNL     1      16.325  11.718  -9.329  1.00  0.00     0.023 A 
HETATM    7  C8  UNL     1      16.355  10.533  -8.586  1.00  0.00     0.111 A 
HETATM    8  C9  UNL     1      17.300  12.043 -10.256  1.00  0.00     0.086 A 
HETATM    9  C10 UNL     1      17.027  13.345 -10.914  1.00  0.00    -0.035 A 
HETATM   10  C11 UNL     1      16.012  14.119 -10.650  1.00  0.00     0.088 A 
HETATM   11  O4  UNL     1      15.065  13.763  -9.700  1.00  0.00    -0.309 OA
HETATM   12  C14 UNL     1      18.140  13.536 -11.944  1.00  0.00     0.040 C 
HETATM   13  C15 UNL     1      18.703  12.140 -12.143  1.00  0.00     0.038 C 
HETATM   14  C16 UNL     1      17.669  11.310 -11.468  1.00  0.00     0.196 C 
ENDROOT
BRANCH  10  15
HETATM   15  C12 UNL     1      15.918  15.366 -11.401  1.00  0.00     0.111 C 
BRANCH  15  16
HETATM   16  C13 UNL     1      14.794  16.043 -11.374  1.00  0.00    -0.046 C 
BRANCH  16  17
HETATM   17  N1  UNL     1      13.588  16.421 -11.159  1.00  0.00    -0.366 N 
ATOM     18  H12 UNL     1      13.430  16.709 -12.126  1.00  0.00     0.165 HD
ATOM     19  H11 UNL     1      12.690  16.636 -10.725  1.00  0.00     0.165 HD
ENDBRANCH  16  17
ENDBRANCH  15  16
ENDBRANCH  10  15
BRANCH  14  20
HETATM   20  N2  UNL     1      16.654  10.759 -12.275  1.00  0.00    -0.074 N 
ATOM     21  H23 UNL     1      16.783   9.748 -12.315  1.00  0.00     0.274 HD
ATOM     22  H22 UNL     1      15.767  10.829 -11.777  1.00  0.00     0.274 HD
ATOM     23  H21 UNL     1      16.526  11.111 -13.223  1.00  0.00     0.274 HD
ENDBRANCH  14  20
BRANCH   7  24
HETATM   24  O3  UNL     1      17.414   9.716  -8.862  1.00  0.00    -0.357 OA
ATOM     25  H3  UNL     1      18.060   9.967  -9.511  1.00  0.00     0.217 HD
ENDBRANCH   7  24
BRANCH   2  26
HETATM   26  O2  UNL     1      13.427  10.667  -6.454  1.00  0.00    -0.357 OA
ATOM     27  H2  UNL     1      12.510  10.718  -6.695  1.00  0.00     0.217 HD
ENDBRANCH   2  26
BRANCH   1  28
HETATM   28  O1  UNL     1      15.511   8.983  -6.946  1.00  0.00    -0.351 OA
HETATM   29  C1  UNL     1      16.243   8.813  -5.766  1.00  0.00     0.210 C 
ENDBRANCH   1  28
TORSDOF 7
ENDMDL
MODEL 4
REMARK VINA RESULT: -7.616946693      1.002      1.011
REMARK  7 active torsions:
REMARK  status: ('A' for Active; 'I' for Inactive)
REMARK    1  A    between atoms: O1_2  and  C2_3 
REMARK    2  A    between atoms: C3_4  and  O2_5 
REMARK    3  A    between atoms: C8_11  and  O3_12 
REMARK    4  A    between atoms: C11_16  and  C12_17 
REMARK    5  A    between atoms: C12_17  and  C13_18 
REMARK    6  A    between atoms: C13_18  and  N1_19 
REMARK    7  A    between atoms: C16_25  and  N2_26 
ROOT
HETATM    1  C2  UNL     1      14.306  11.779  -8.070  1.00  0.00     0.136 A 
HETATM    2  C3  UNL     1      13.672  13.009  -8.259  1.00  0.00     0.110 A 
HETATM    3  C4  UNL     1      14.230  13.925  -9.116  1.00  0.00     0.009 A 
HETATM    4  C5  UNL     1      13.540  15.239  -9.308  1.00  0.00     0.054 C 
HETATM    5  C6  UNL     1      15.409  13.637  -9.790  1.00  0.00     0.094 A 
HETATM    6  C7  UNL     1      16.069  12.439  -9.635  1.00  0.00     0.023 A 
HETATM    7  C8  UNL     1      15.462  11.540  -8.752  1.00  0.00     0.111 A 
HETATM    8  C9  UNL     1      17.253  12.154 -10.295  1.00  0.00     0.086 A 
HETATM    9  C10 UNL     1      17.676  13.265 -11.181  1.00  0.00    -0.035 A 
HETATM   10  C11 UNL     1      17.040  14.394 -11.321  1.00  0.00     0.088 A 
HETATM   11  O4  UNL     1      15.864  14.648 -10.629  1.00  0.00    -0.309 OA
HETATM   12  C14 UNL     1      18.947  12.785 -11.880  1.00  0.00     0.040 C 
HETATM   13  C15 UNL     1      18.912  11.277 -11.714  1.00  0.00     0.038 C 
HETATM   14  C16 UNL     1      17.518  11.068 -11.240  1.00  0.00     0.196 C 
ENDROOT
BRANCH  10  15
HETATM   15  C12 UNL     1      17.617  15.370 -12.240  1.00  0.00     0.111 C 
BRANCH  15  16
HETATM   16  C13 UNL     1      16.832  15.986 -13.092  1.00  0.00    -0.046 C 
BRANCH  16  17
HETATM   17  N1  UNL     1      15.888  16.670 -13.626  1.00  0.00    -0.366 N 
ATOM     18  H12 UNL     1      15.160  16.005 -13.362  1.00  0.00     0.165 HD
ATOM     19  H11 UNL     1      15.352  17.387 -14.115  1.00  0.00     0.165 HD
ENDBRANCH  16  17
ENDBRANCH  15  16
ENDBRANCH  10  15
BRANCH  14  20
HETATM   20  N2  UNL     1      16.547  10.746 -12.207  1.00  0.00    -0.074 N 
ATOM     21  H23 UNL     1      15.663  10.560 -11.734  1.00  0.00     0.274 HD
ATOM     22  H22 UNL     1      16.318  11.589 -12.734  1.00  0.00     0.274 HD
ATOM     23  H21 UNL     1      16.731   9.989 -12.865  1.00  0.00     0.274 HD
ENDBRANCH  14  20
BRANCH   7  24
HETATM   24  O3  UNL     1      16.122  10.355  -8.605  1.00  0.00    -0.357 OA
ATOM     25  H3  UNL     1      15.730   9.641  -8.116  1.00  0.00     0.217 HD
ENDBRANCH   7  24
BRANCH   2  26
HETATM   26  O2  UNL     1      12.493  13.239  -7.553  1.00  0.00    -0.357 OA
ATOM     27  H2  UNL     1      12.241  14.142  -7.402  1.00  0.00     0.217 HD
ENDBRANCH   2  26
BRANCH   1  28
HETATM   28  O1  UNL     1      13.751  10.848  -7.205  1.00  0.00    -0.351 OA
HETATM   29  C1  UNL     1      14.055  10.753  -5.842  1.00  0.00     0.210 C 
ENDBRANCH   1  28
TORSDOF 7
ENDMDL
MODEL 5
REMARK VINA RESULT: -7.587466862      1.940      4.427
REMARK  7 active torsions:
REMARK  status: ('A' for Active; 'I' for Inactive)
REMARK    1  A    between atoms: O1_2  and  C2_3 
REMARK    2  A    between atoms: C3_4  and  O2_5 
REMARK    3  A    between atoms: C8_11  and  O3_12 
REMARK    4  A    between atoms: C11_16  and  C12_17 
REMARK    5  A    between atoms: C12_17  and  C13_18 
REMARK    6  A    between atoms: C13_18  and  N1_19 
REMARK    7  A    between atoms: C16_25  and  N2_26 
ROOT
HETATM    1  C2  UNL     1      13.336  11.618  -6.774  1.00  0.00     0.136 A 
HETATM    2  C3  UNL     1      14.489  10.835  -6.674  1.00  0.00     0.110 A 
HETATM    3  C4  UNL     1      15.453  10.939  -7.645  1.00  0.00     0.009 A 
HETATM    4  C5  UNL     1      16.682  10.094  -7.526  1.00  0.00     0.054 C 
HETATM    5  C6  UNL     1      15.291  11.809  -8.715  1.00  0.00     0.094 A 
HETATM    6  C7  UNL     1      14.173  12.599  -8.855  1.00  0.00     0.023 A 
HETATM    7  C8  UNL     1      13.219  12.457  -7.841  1.00  0.00     0.111 A 
HETATM    8  C9  UNL     1      14.001  13.457  -9.928  1.00  0.00     0.086 A 
HETATM    9  C10 UNL     1      15.161  13.430 -10.852  1.00  0.00    -0.035 A 
HETATM   10  C11 UNL     1      16.216  12.679 -10.706  1.00  0.00     0.088 A 
HETATM   11  O4  UNL     1      16.342  11.819  -9.624  1.00  0.00    -0.309 OA
HETATM   12  C14 UNL     1      14.857  14.461 -11.937  1.00  0.00     0.040 C 
HETATM   13  C15 UNL     1      13.783  15.339 -11.323  1.00  0.00     0.038 C 
HETATM   14  C16 UNL     1      13.836  14.911  -9.899  1.00  0.00     0.196 C 
ENDROOT
BRANCH  10  15
HETATM   15  C12 UNL     1      17.254  12.790 -11.726  1.00  0.00     0.111 C 
BRANCH  15  16
HETATM   16  C13 UNL     1      17.552  11.737 -12.450  1.00  0.00    -0.046 C 
BRANCH  16  17
HETATM   17  N1  UNL     1      17.536  10.587 -13.017  1.00  0.00    -0.366 N 
ATOM     18  H12 UNL     1      16.884  10.184 -12.344  1.00  0.00     0.165 HD
ATOM     19  H11 UNL     1      17.704   9.802 -13.647  1.00  0.00     0.165 HD
ENDBRANCH  16  17
ENDBRANCH  15  16
ENDBRANCH  10  15
BRANCH  14  20
HETATM   20  N2  UNL     1      14.629  15.677  -9.023  1.00  0.00    -0.074 N 
ATOM     21  H23 UNL     1      14.690  15.190  -8.129  1.00  0.00     0.274 HD
ATOM     22  H22 UNL     1      15.598  15.637  -9.340  1.00  0.00     0.274 HD
ATOM     23  H21 UNL     1      14.381  16.651  -8.849  1.00  0.00     0.274 HD
ENDBRANCH  14  20
BRANCH   7  24
HETATM   24  O3  UNL     1      12.114  13.245  -7.987  1.00  0.00    -0.357 OA
ATOM     25  H3  UNL     1      11.575  13.181  -8.766  1.00  0.00     0.217 HD
ENDBRANCH   7  24
BRANCH   2  26
HETATM   26  O2  UNL     1      14.592   9.981  -5.578  1.00  0.00    -0.357 OA
ATOM     27  H2  UNL     1      14.117   9.160  -5.617  1.00  0.00     0.217 HD
ENDBRANCH   2  26
BRANCH   1  28
HETATM   28  O1  UNL     1      12.355  11.520  -5.798  1.00  0.00    -0.351 OA
HETATM   29  C1  UNL     1      12.278  12.341  -4.667  1.00  0.00     0.210 C 
ENDBRANCH   1  28
TORSDOF 7
ENDMDL
