MODEL 1
REMARK VINA RESULT: -8.418944768      0.000      0.000
REMARK  2 active torsions:
REMARK  status: ('A' for Active; 'I' for Inactive)
REMARK    1  A    between atoms: C3_3  and  N1_4 
REMARK    2  A    between atoms: C4_6  and  C5_8 
ROOT
HETATM    1  C1  UNL     1      16.001  11.156  -7.504  1.00  0.00     0.053 C 
HETATM    2  C2  UNL     1      15.846  12.153  -8.574  1.00  0.00    -0.004 A 
HETATM    3  C3  UNL     1      14.995  13.219  -8.407  1.00  0.00     0.068 A 
HETATM    4  C9  UNL     1      14.892  14.117  -9.441  1.00  0.00     0.100 A 
HETATM    5  N3  UNL     1      14.041  15.233  -9.344  1.00  0.00    -0.098 NA
HETATM    6  C10 UNL     1      15.620  13.965 -10.618  1.00  0.00     0.103 A 
HETATM    7  N4  UNL     1      15.531  14.880 -11.702  1.00  0.00    -0.098 NA
HETATM    8  C11 UNL     1      16.467  12.889 -10.763  1.00  0.00     0.101 A 
HETATM    9  C12 UNL     1      16.582  11.977  -9.735  1.00  0.00     0.071 A 
HETATM   10  N5  UNL     1      17.465  10.880  -9.918  1.00  0.00    -0.349 N 
ATOM     11  H5  UNL     1      17.555  10.202  -9.161  1.00  0.00     0.167 HD
HETATM   12  C13 UNL     1      18.160  10.695 -10.989  1.00  0.00     0.197 A 
HETATM   13  N6  UNL     1      18.058  11.618 -12.060  1.00  0.00    -0.296 N 
ATOM     14  H6  UNL     1      18.606  11.475 -12.908  1.00  0.00     0.187 HD
HETATM   15  N7  UNL     1      17.219  12.715 -11.958  1.00  0.00    -0.296 N 
ATOM     16  H7  UNL     1      17.140  13.383 -12.725  1.00  0.00     0.187 HD
ENDROOT
BRANCH   3  17
HETATM   17  N1  UNL     1      14.257  13.402  -7.250  1.00  0.00    -0.342 N 
HETATM   18  C4  UNL     1      13.140  12.905  -6.946  1.00  0.00     0.134 C 
HETATM   19  N2  UNL     1      12.448  12.036  -7.809  1.00  0.00    -0.081 NA
ATOM     20  H1  UNL     1      14.671  14.020  -6.552  1.00  0.00     0.167 HD
BRANCH  18  21
HETATM   21  C5  UNL     1      12.508  13.223  -5.653  1.00  0.00     0.046 A 
HETATM   22  C6  UNL     1      12.115  14.455  -5.201  1.00  0.00     0.023 A 
HETATM   23  C7  UNL     1      11.553  14.503  -3.971  1.00  0.00     0.009 A 
HETATM   24  C8  UNL     1      11.427  13.328  -3.291  1.00  0.00     0.050 A 
HETATM   25  S1  UNL     1      12.085  12.187  -4.362  1.00  0.00    -0.099 SA
ENDBRANCH  18  21
ENDBRANCH   3  17
TORSDOF 2
ENDMDL
MODEL 2
REMARK VINA RESULT: -8.307596313      3.170      6.181
REMARK  2 active torsions:
REMARK  status: ('A' for Active; 'I' for Inactive)
REMARK    1  A    between atoms: C3_3  and  N1_4 
REMARK    2  A    between atoms: C4_6  and  C5_8 
ROOT
HETATM    1  C1  UNL     1      17.691  11.493  -8.940  1.00  0.00     0.053 C 
HETATM    2  C2  UNL     1      16.383  11.703  -8.302  1.00  0.00    -0.004 A 
HETATM    3  C3  UNL     1      15.600  12.772  -8.668  1.00  0.00     0.068 A 
HETATM    4  C9  UNL     1      14.388  12.916  -8.038  1.00  0.00     0.100 A 
HETATM    5  N3  UNL     1      13.533  13.986  -8.358  1.00  0.00    -0.098 NA
HETATM    6  C10 UNL     1      13.958  12.017  -7.065  1.00  0.00     0.103 A 
HETATM    7  N4  UNL     1      12.708  12.145  -6.399  1.00  0.00    -0.098 NA
HETATM    8  C11 UNL     1      14.758  10.953  -6.715  1.00  0.00     0.101 A 
HETATM    9  C12 UNL     1      15.978  10.794  -7.338  1.00  0.00     0.071 A 
HETATM   10  N5  UNL     1      16.778   9.685  -6.953  1.00  0.00    -0.349 N 
ATOM     11  H5  UNL     1      17.682   9.561  -7.409  1.00  0.00     0.167 HD
HETATM   12  C13 UNL     1      16.424   8.827  -6.057  1.00  0.00     0.197 A 
HETATM   13  N6  UNL     1      15.174   8.970  -5.404  1.00  0.00    -0.296 N 
ATOM     14  H6  UNL     1      14.891   8.293  -4.695  1.00  0.00     0.187 HD
HETATM   15  N7  UNL     1      14.337  10.025  -5.723  1.00  0.00    -0.296 N 
ATOM     16  H7  UNL     1      13.436  10.134  -5.257  1.00  0.00     0.187 HD
ENDROOT
BRANCH   3  17
HETATM   17  N1  UNL     1      15.997  13.684  -9.632  1.00  0.00    -0.342 N 
HETATM   18  C4  UNL     1      15.859  13.612 -10.881  1.00  0.00     0.134 C 
HETATM   19  N2  UNL     1      15.240  12.514 -11.504  1.00  0.00    -0.081 NA
ATOM     20  H1  UNL     1      16.460  14.524  -9.284  1.00  0.00     0.167 HD
BRANCH  18  21
HETATM   21  C5  UNL     1      16.352  14.697 -11.750  1.00  0.00     0.046 A 
HETATM   22  C6  UNL     1      17.638  15.156 -11.856  1.00  0.00     0.023 A 
HETATM   23  C7  UNL     1      17.854  16.169 -12.727  1.00  0.00     0.009 A 
HETATM   24  C8  UNL     1      16.780  16.642 -13.420  1.00  0.00     0.050 A 
HETATM   25  S1  UNL     1      15.500  15.681 -12.856  1.00  0.00    -0.099 SA
ENDBRANCH  18  21
ENDBRANCH   3  17
TORSDOF 2
ENDMDL
MODEL 3
REMARK VINA RESULT: -8.210897497      3.110      7.120
REMARK  2 active torsions:
REMARK  status: ('A' for Active; 'I' for Inactive)
REMARK    1  A    between atoms: C3_3  and  N1_4 
REMARK    2  A    between atoms: C4_6  and  C5_8 
ROOT
HETATM    1  C1  UNL     1      14.509  15.091 -10.695  1.00  0.00     0.053 C 
HETATM    2  C2  UNL     1      13.997  14.299  -9.567  1.00  0.00    -0.004 A 
HETATM    3  C3  UNL     1      14.439  13.012  -9.370  1.00  0.00     0.068 A 
HETATM    4  C9  UNL     1      13.926  12.322  -8.299  1.00  0.00     0.100 A 
HETATM    5  N3  UNL     1      14.329  11.000  -8.034  1.00  0.00    -0.098 NA
HETATM    6  C10 UNL     1      12.995  12.894  -7.437  1.00  0.00     0.103 A 
HETATM    7  N4  UNL     1      12.449  12.201  -6.323  1.00  0.00    -0.098 NA
HETATM    8  C11 UNL     1      12.567  14.185  -7.653  1.00  0.00     0.101 A 
HETATM    9  C12 UNL     1      13.071  14.892  -8.725  1.00  0.00     0.071 A 
HETATM   10  N5  UNL     1      12.608  16.221  -8.917  1.00  0.00    -0.349 N 
ATOM     11  H5  UNL     1      12.978  16.750  -9.707  1.00  0.00     0.167 HD
HETATM   12  C13 UNL     1      11.747  16.795  -8.148  1.00  0.00     0.197 A 
HETATM   13  N6  UNL     1      11.214  16.088  -7.041  1.00  0.00    -0.296 N 
ATOM     14  H6  UNL     1      10.532  16.539  -6.430  1.00  0.00     0.187 HD
HETATM   15  N7  UNL     1      11.615  14.788  -6.785  1.00  0.00    -0.296 N 
ATOM     16  H7  UNL     1      11.236  14.273  -5.991  1.00  0.00     0.187 HD
ENDROOT
BRANCH   3  17
HETATM   17  N1  UNL     1      15.365  12.411 -10.207  1.00  0.00    -0.342 N 
HETATM   18  C4  UNL     1      16.610  12.306 -10.049  1.00  0.00     0.134 C 
HETATM   19  N2  UNL     1      17.268  12.825  -8.920  1.00  0.00    -0.081 NA
ATOM     20  H1  UNL     1      14.990  12.001 -11.062  1.00  0.00     0.167 HD
BRANCH  18  21
HETATM   21  C5  UNL     1      17.435  11.624 -11.062  1.00  0.00     0.046 A 
HETATM   22  C6  UNL     1      18.118  10.445 -10.920  1.00  0.00     0.023 A 
HETATM   23  C7  UNL     1      18.813  10.009 -11.996  1.00  0.00     0.009 A 
HETATM   24  C8  UNL     1      18.774  10.775 -13.122  1.00  0.00     0.050 A 
HETATM   25  S1  UNL     1      17.782  12.076 -12.673  1.00  0.00    -0.099 SA
ENDBRANCH  18  21
ENDBRANCH   3  17
TORSDOF 2
ENDMDL
MODEL 4
REMARK VINA RESULT: -8.170872017      3.151      5.703
REMARK  2 active torsions:
REMARK  status: ('A' for Active; 'I' for Inactive)
REMARK    1  A    between atoms: C3_3  and  N1_4 
REMARK    2  A    between atoms: C4_6  and  C5_8 
ROOT
HETATM    1  C1  UNL     1      16.945  12.529  -9.202  1.00  0.00     0.053 C 
HETATM    2  C2  UNL     1      15.742  12.382  -8.368  1.00  0.00    -0.004 A 
HETATM    3  C3  UNL     1      14.732  13.311  -8.444  1.00  0.00     0.068 A 
HETATM    4  C9  UNL     1      13.633  13.120  -7.642  1.00  0.00     0.100 A 
HETATM    5  N3  UNL     1      12.560  14.029  -7.664  1.00  0.00    -0.098 NA
HETATM    6  C10 UNL     1      13.535  12.030  -6.782  1.00  0.00     0.103 A 
HETATM    7  N4  UNL     1      12.409  11.811  -5.942  1.00  0.00    -0.098 NA
HETATM    8  C11 UNL     1      14.559  11.112  -6.723  1.00  0.00     0.101 A 
HETATM    9  C12 UNL     1      15.670  11.288  -7.521  1.00  0.00     0.071 A 
HETATM   10  N5  UNL     1      16.707  10.321  -7.435  1.00  0.00    -0.349 N 
ATOM     11  H5  UNL     1      17.531  10.445  -8.023  1.00  0.00     0.167 HD
HETATM   12  C13 UNL     1      16.663   9.296  -6.654  1.00  0.00     0.197 A 
HETATM   13  N6  UNL     1      15.532   9.093  -5.824  1.00  0.00    -0.296 N 
ATOM     14  H6  UNL     1      15.494   8.283  -5.205  1.00  0.00     0.187 HD
HETATM   15  N7  UNL     1      14.478   9.991  -5.850  1.00  0.00    -0.296 N 
ATOM     16  H7  UNL     1      13.661   9.852  -5.255  1.00  0.00     0.187 HD
ENDROOT
BRANCH   3  17
HETATM   17  N1  UNL     1      14.796  14.406  -9.289  1.00  0.00    -0.342 N 
HETATM   18  C4  UNL     1      14.497  14.472 -10.510  1.00  0.00     0.134 C 
HETATM   19  N2  UNL     1      14.026  13.357 -11.226  1.00  0.00    -0.081 NA
ATOM     20  H1  UNL     1      15.128  15.273  -8.866  1.00  0.00     0.167 HD
BRANCH  18  21
HETATM   21  C5  UNL     1      14.634  15.743 -11.245  1.00  0.00     0.046 A 
HETATM   22  C6  UNL     1      13.634  16.481 -11.821  1.00  0.00     0.023 A 
HETATM   23  C7  UNL     1      14.002  17.622 -12.447  1.00  0.00     0.009 A 
HETATM   24  C8  UNL     1      15.327  17.939 -12.450  1.00  0.00     0.050 A 
HETATM   25  S1  UNL     1      16.034  16.657 -11.591  1.00  0.00    -0.099 SA
ENDBRANCH  18  21
ENDBRANCH   3  17
TORSDOF 2
ENDMDL
MODEL 5
REMARK VINA RESULT: -8.158809562      0.958      2.570
REMARK  2 active torsions:
REMARK  status: ('A' for Active; 'I' for Inactive)
REMARK    1  A    between atoms: C3_3  and  N1_4 
REMARK    2  A    between atoms: C4_6  and  C5_8 
ROOT
HETATM    1  C1  UNL     1      14.341  15.036  -9.316  1.00  0.00     0.053 C 
HETATM    2  C2  UNL     1      15.178  13.827  -9.311  1.00  0.00    -0.004 A 
HETATM    3  C3  UNL     1      15.161  12.979  -8.230  1.00  0.00     0.068 A 
HETATM    4  C9  UNL     1      15.964  11.866  -8.283  1.00  0.00     0.100 A 
HETATM    5  N3  UNL     1      16.001  10.953  -7.214  1.00  0.00    -0.098 NA
HETATM    6  C10 UNL     1      16.767  11.595  -9.388  1.00  0.00     0.103 A 
HETATM    7  N4  UNL     1      17.606  10.451  -9.467  1.00  0.00    -0.098 NA
HETATM    8  C11 UNL     1      16.767  12.458 -10.460  1.00  0.00     0.101 A 
HETATM    9  C12 UNL     1      15.968  13.581 -10.423  1.00  0.00     0.071 A 
HETATM   10  N5  UNL     1      15.992  14.450 -11.547  1.00  0.00    -0.349 N 
ATOM     11  H5  UNL     1      15.403  15.282 -11.526  1.00  0.00     0.167 HD
HETATM   12  C13 UNL     1      16.719  14.243 -12.592  1.00  0.00     0.197 A 
HETATM   13  N6  UNL     1      17.550  13.096 -12.654  1.00  0.00    -0.296 N 
ATOM     14  H6  UNL     1      18.126  12.929 -13.479  1.00  0.00     0.187 HD
HETATM   15  N7  UNL     1      17.582  12.200 -11.598  1.00  0.00    -0.296 N 
ATOM     16  H7  UNL     1      18.177  11.373 -11.635  1.00  0.00     0.187 HD
ENDROOT
BRANCH   3  17
HETATM   17  N1  UNL     1      14.374  13.217  -7.115  1.00  0.00    -0.342 N 
HETATM   18  C4  UNL     1      13.213  12.795  -6.872  1.00  0.00     0.134 C 
HETATM   19  N2  UNL     1      12.515  11.966  -7.769  1.00  0.00    -0.081 NA
ATOM     20  H1  UNL     1      14.789  13.812  -6.398  1.00  0.00     0.167 HD
BRANCH  18  21
HETATM   21  C5  UNL     1      12.534  13.161  -5.616  1.00  0.00     0.046 A 
HETATM   22  C6  UNL     1      12.088  14.402  -5.244  1.00  0.00     0.023 A 
HETATM   23  C7  UNL     1      11.489  14.497  -4.035  1.00  0.00     0.009 A 
HETATM   24  C8  UNL     1      11.380  13.358  -3.295  1.00  0.00     0.050 A 
HETATM   25  S1  UNL     1      12.106  12.184  -4.282  1.00  0.00    -0.099 SA
ENDBRANCH  18  21
ENDBRANCH   3  17
TORSDOF 2
ENDMDL
