MODEL 1
REMARK VINA RESULT: -7.666225484      0.000      0.000
REMARK  6 active torsions:
REMARK  status: ('A' for Active; 'I' for Inactive)
REMARK    1  A    between atoms: C2_2  and  C3_3 
REMARK    2  A    between atoms: C8_11  and  C9_12 
REMARK    3  A    between atoms: C10_13  and  O1_14 
REMARK    4  A    between atoms: C11_17  and  O3_18 
REMARK    5  A    between atoms: C12_20  and  O4_21 
REMARK    6  A    between atoms: C13_24  and  O6_26 
ROOT
HETATM    1  C1  UNL     1      17.233  12.619  -8.580  1.00  0.00     0.021 C 
HETATM    2  C2  UNL     1      16.356  11.401  -8.720  1.00  0.00    -0.006 C 
HETATM    3  C4  UNL     1      15.905  10.796  -7.431  1.00  0.00     0.025 C 
HETATM    4  C5  UNL     1      14.514  10.204  -7.725  1.00  0.00     0.049 C 
HETATM    5  C6  UNL     1      14.536  10.105  -9.245  1.00  0.00     0.018 C 
HETATM    6  C7  UNL     1      15.149  11.509  -9.520  1.00  0.00     0.033 C 
HETATM    7  C8  UNL     1      14.034  12.430  -9.188  1.00  0.00     0.171 C 
HETATM    8  O5  UNL     1      13.987  12.483  -7.754  1.00  0.00    -0.345 OA
HETATM    9  C13 UNL     1      13.519  11.258  -7.300  1.00  0.00     0.162 C 
HETATM   10  C14 UNL     1      13.532  11.340  -5.766  1.00  0.00     0.079 C 
ENDROOT
BRANCH   7  11
HETATM   11  C9  UNL     1      14.157  13.795  -9.690  1.00  0.00     0.067 A 
HETATM   12  C10 UNL     1      13.568  14.888  -9.098  1.00  0.00     0.197 A 
HETATM   13  O2  UNL     1      13.954  15.940  -9.719  1.00  0.00    -0.262 OA
HETATM   14  C11 UNL     1      14.766  15.648 -10.702  1.00  0.00     0.220 A 
HETATM   15  C12 UNL     1      14.922  14.261 -10.709  1.00  0.00     0.138 A 
BRANCH  12  16
HETATM   16  O1  UNL     1      12.693  14.862  -7.982  1.00  0.00    -0.340 OA
ATOM     17  H1  UNL     1      12.941  14.984  -7.074  1.00  0.00     0.220 HD
ENDBRANCH  12  16
BRANCH  14  18
HETATM   18  O3  UNL     1      15.373  16.545 -11.589  1.00  0.00    -0.339 OA
ATOM     19  H3  UNL     1      16.013  16.341 -12.261  1.00  0.00     0.220 HD
ENDBRANCH  14  18
BRANCH  15  20
HETATM   20  O4  UNL     1      15.738  13.576 -11.626  1.00  0.00    -0.356 OA
ATOM     21  H4  UNL     1      15.851  13.697 -12.562  1.00  0.00     0.218 HD
ENDBRANCH  15  20
ENDBRANCH   7  11
BRANCH   2  22
HETATM   22  C3  UNL     1      17.267  10.393  -9.414  1.00  0.00     0.062 C 
HETATM   23  N1  UNL     1      17.970  10.755 -10.428  1.00  0.00    -0.410 N 
ATOM     24  H12 UNL     1      17.909  11.719 -10.755  1.00  0.00     0.155 HD
ATOM     25  H11 UNL     1      18.579  10.081 -10.892  1.00  0.00     0.155 HD
ENDBRANCH   2  22
BRANCH   9  26
HETATM   26  O6  UNL     1      12.225  11.005  -7.759  1.00  0.00    -0.365 OA
ATOM     27  H6  UNL     1      12.080  11.301  -8.649  1.00  0.00     0.213 HD
ENDBRANCH   9  26
TORSDOF 6
ENDMDL
MODEL 2
REMARK VINA RESULT: -7.551215260      1.839      2.444
REMARK  6 active torsions:
REMARK  status: ('A' for Active; 'I' for Inactive)
REMARK    1  A    between atoms: C2_2  and  C3_3 
REMARK    2  A    between atoms: C8_11  and  C9_12 
REMARK    3  A    between atoms: C10_13  and  O1_14 
REMARK    4  A    between atoms: C11_17  and  O3_18 
REMARK    5  A    between atoms: C12_20  and  O4_21 
REMARK    6  A    between atoms: C13_24  and  O6_26 
ROOT
HETATM    1  C1  UNL     1      17.297  10.929  -7.852  1.00  0.00     0.021 C 
HETATM    2  C2  UNL     1      15.924  10.311  -7.774  1.00  0.00    -0.006 C 
HETATM    3  C4  UNL     1      15.117  10.714  -6.583  1.00  0.00     0.025 C 
HETATM    4  C5  UNL     1      13.653  10.698  -7.061  1.00  0.00     0.049 C 
HETATM    5  C6  UNL     1      13.746   9.828  -8.308  1.00  0.00     0.018 C 
HETATM    6  C7  UNL     1      15.028  10.480  -8.903  1.00  0.00     0.033 C 
HETATM    7  C8  UNL     1      14.543  11.805  -9.365  1.00  0.00     0.171 C 
HETATM    8  O5  UNL     1      14.413  12.606  -8.182  1.00  0.00    -0.345 OA
HETATM    9  C13 UNL     1      13.333  12.120  -7.458  1.00  0.00     0.162 C 
HETATM   10  C14 UNL     1      13.261  12.971  -6.180  1.00  0.00     0.079 C 
ENDROOT
BRANCH   7  11
HETATM   11  C9  UNL     1      15.410  12.514 -10.302  1.00  0.00     0.067 A 
HETATM   12  C10 UNL     1      15.492  13.884 -10.387  1.00  0.00     0.197 A 
HETATM   13  O2  UNL     1      16.411  14.182 -11.228  1.00  0.00    -0.262 OA
HETATM   14  C11 UNL     1      16.968  13.111 -11.732  1.00  0.00     0.220 A 
HETATM   15  C12 UNL     1      16.341  12.009 -11.149  1.00  0.00     0.138 A 
BRANCH  12  16
HETATM   16  O1  UNL     1      14.703  14.814  -9.661  1.00  0.00    -0.340 OA
ATOM     17  H1  UNL     1      13.839  15.123  -9.904  1.00  0.00     0.220 HD
ENDBRANCH  12  16
BRANCH  14  18
HETATM   18  O3  UNL     1      17.997  13.063 -12.679  1.00  0.00    -0.339 OA
ATOM     19  H3  UNL     1      18.679  13.710 -12.817  1.00  0.00     0.220 HD
ENDBRANCH  14  18
BRANCH  15  20
HETATM   20  O4  UNL     1      16.684  10.677 -11.441  1.00  0.00    -0.356 OA
ATOM     21  H4  UNL     1      16.635  10.191 -12.256  1.00  0.00     0.218 HD
ENDBRANCH  15  20
ENDBRANCH   7  11
BRANCH   2  22
HETATM   22  C3  UNL     1      16.219   8.819  -7.654  1.00  0.00     0.062 C 
HETATM   23  N1  UNL     1      16.510   8.312  -6.509  1.00  0.00    -0.410 N 
ATOM     24  H12 UNL     1      16.539   8.921  -5.690  1.00  0.00     0.155 HD
ATOM     25  H11 UNL     1      16.708   7.315  -6.429  1.00  0.00     0.155 HD
ENDBRANCH   2  22
BRANCH   9  26
HETATM   26  O6  UNL     1      12.143  12.232  -8.180  1.00  0.00    -0.365 OA
ATOM     27  H6  UNL     1      11.422  12.565  -7.659  1.00  0.00     0.213 HD
ENDBRANCH   9  26
TORSDOF 6
ENDMDL
MODEL 3
REMARK VINA RESULT: -7.482100525      2.971      4.539
REMARK  6 active torsions:
REMARK  status: ('A' for Active; 'I' for Inactive)
REMARK    1  A    between atoms: C2_2  and  C3_3 
REMARK    2  A    between atoms: C8_11  and  C9_12 
REMARK    3  A    between atoms: C10_13  and  O1_14 
REMARK    4  A    between atoms: C11_17  and  O3_18 
REMARK    5  A    between atoms: C12_20  and  O4_21 
REMARK    6  A    between atoms: C13_24  and  O6_26 
ROOT
HETATM    1  C1  UNL     1      14.323  13.540 -11.175  1.00  0.00     0.021 C 
HETATM    2  C2  UNL     1      14.546  13.538  -9.683  1.00  0.00    -0.006 C 
HETATM    3  C4  UNL     1      13.547  12.754  -8.897  1.00  0.00     0.025 C 
HETATM    4  C5  UNL     1      14.323  12.208  -7.685  1.00  0.00     0.049 C 
HETATM    5  C6  UNL     1      15.535  13.129  -7.654  1.00  0.00     0.018 C 
HETATM    6  C7  UNL     1      15.836  13.103  -9.181  1.00  0.00     0.033 C 
HETATM    7  C8  UNL     1      16.371  11.734  -9.390  1.00  0.00     0.171 C 
HETATM    8  O5  UNL     1      15.231  10.864  -9.372  1.00  0.00    -0.345 OA
HETATM    9  C13 UNL     1      14.758  10.812  -8.068  1.00  0.00     0.162 C 
HETATM   10  C14 UNL     1      13.512   9.914  -8.103  1.00  0.00     0.079 C 
ENDROOT
BRANCH   7  11
HETATM   11  C9  UNL     1      17.093  11.512 -10.639  1.00  0.00     0.067 A 
HETATM   12  C10 UNL     1      18.423  11.813 -10.823  1.00  0.00     0.197 A 
HETATM   13  O2  UNL     1      18.772  11.405 -11.985  1.00  0.00    -0.262 OA
HETATM   14  C11 UNL     1      17.774  10.845 -12.619  1.00  0.00     0.220 A 
HETATM   15  C12 UNL     1      16.667  10.896 -11.770  1.00  0.00     0.138 A 
BRANCH  12  16
HETATM   16  O1  UNL     1      19.271  12.455  -9.884  1.00  0.00    -0.340 OA
ATOM     17  H1  UNL     1      20.205  12.315  -9.788  1.00  0.00     0.220 HD
ENDBRANCH  12  16
BRANCH  14  18
HETATM   18  O3  UNL     1      17.794  10.295 -13.906  1.00  0.00    -0.339 OA
ATOM     19  H3  UNL     1      17.395  10.656 -14.689  1.00  0.00     0.220 HD
ENDBRANCH  14  18
BRANCH  15  20
HETATM   20  O4  UNL     1      15.405  10.378 -12.109  1.00  0.00    -0.356 OA
ATOM     21  H4  UNL     1      14.877   9.712 -11.684  1.00  0.00     0.218 HD
ENDBRANCH  15  20
ENDBRANCH   7  11
BRANCH   2  22
HETATM   22  C3  UNL     1      14.388  15.007  -9.304  1.00  0.00     0.062 C 
HETATM   23  N1  UNL     1      13.234  15.462  -8.965  1.00  0.00    -0.410 N 
ATOM     24  H12 UNL     1      12.435  14.828  -8.954  1.00  0.00     0.155 HD
ATOM     25  H11 UNL     1      13.129  16.444  -8.712  1.00  0.00     0.155 HD
ENDBRANCH   2  22
BRANCH   9  26
HETATM   26  O6  UNL     1      15.713  10.279  -7.200  1.00  0.00    -0.365 OA
ATOM     27  H6  UNL     1      15.371  10.102  -6.332  1.00  0.00     0.213 HD
ENDBRANCH   9  26
TORSDOF 6
ENDMDL
MODEL 4
REMARK VINA RESULT: -7.429310345      1.872      2.786
REMARK  6 active torsions:
REMARK  status: ('A' for Active; 'I' for Inactive)
REMARK    1  A    between atoms: C2_2  and  C3_3 
REMARK    2  A    between atoms: C8_11  and  C9_12 
REMARK    3  A    between atoms: C10_13  and  O1_14 
REMARK    4  A    between atoms: C11_17  and  O3_18 
REMARK    5  A    between atoms: C12_20  and  O4_21 
REMARK    6  A    between atoms: C13_24  and  O6_26 
ROOT
HETATM    1  C1  UNL     1      17.349  10.919  -7.880  1.00  0.00     0.021 C 
HETATM    2  C2  UNL     1      15.980  10.292  -7.808  1.00  0.00    -0.006 C 
HETATM    3  C4  UNL     1      15.150  10.722  -6.643  1.00  0.00     0.025 C 
HETATM    4  C5  UNL     1      13.694  10.680  -7.145  1.00  0.00     0.049 C 
HETATM    5  C6  UNL     1      13.814   9.776  -8.364  1.00  0.00     0.018 C 
HETATM    6  C7  UNL     1      15.102  10.421  -8.956  1.00  0.00     0.033 C 
HETATM    7  C8  UNL     1      14.615  11.727  -9.465  1.00  0.00     0.171 C 
HETATM    8  O5  UNL     1      14.459  12.562  -8.307  1.00  0.00    -0.345 OA
HETATM    9  C13 UNL     1      13.370  12.088  -7.588  1.00  0.00     0.162 C 
HETATM   10  C14 UNL     1      13.270  12.975  -6.337  1.00  0.00     0.079 C 
ENDROOT
BRANCH   7  11
HETATM   11  C9  UNL     1      15.492  12.416 -10.407  1.00  0.00     0.067 A 
HETATM   12  C10 UNL     1      16.215  11.781 -11.389  1.00  0.00     0.197 A 
HETATM   13  O2  UNL     1      16.796  12.671 -12.103  1.00  0.00    -0.262 OA
HETATM   14  C11 UNL     1      16.527  13.879 -11.678  1.00  0.00     0.220 A 
HETATM   15  C12 UNL     1      15.679  13.748 -10.577  1.00  0.00     0.138 A 
BRANCH  12  16
HETATM   16  O1  UNL     1      16.297  10.379 -11.591  1.00  0.00    -0.340 OA
ATOM     17  H1  UNL     1      16.069   9.914 -12.387  1.00  0.00     0.220 HD
ENDBRANCH  12  16
BRANCH  14  18
HETATM   18  O3  UNL     1      16.994  15.085 -12.215  1.00  0.00    -0.339 OA
ATOM     19  H3  UNL     1      16.540  15.920 -12.225  1.00  0.00     0.220 HD
ENDBRANCH  14  18
BRANCH  15  20
HETATM   20  O4  UNL     1      15.167  14.843  -9.858  1.00  0.00    -0.356 OA
ATOM     21  H4  UNL     1      14.270  15.127  -9.722  1.00  0.00     0.218 HD
ENDBRANCH  15  20
ENDBRANCH   7  11
BRANCH   2  22
HETATM   22  C3  UNL     1      16.284   8.806  -7.639  1.00  0.00     0.062 C 
HETATM   23  N1  UNL     1      16.559   8.335  -6.475  1.00  0.00    -0.410 N 
ATOM     24  H12 UNL     1      16.569   8.967  -5.674  1.00  0.00     0.155 HD
ATOM     25  H11 UNL     1      16.762   7.342  -6.363  1.00  0.00     0.155 HD
ENDBRANCH   2  22
BRANCH   9  26
HETATM   26  O6  UNL     1      12.192  12.170  -8.333  1.00  0.00    -0.365 OA
ATOM     27  H6  UNL     1      11.443  12.442  -7.816  1.00  0.00     0.213 HD
ENDBRANCH   9  26
TORSDOF 6
ENDMDL
MODEL 5
REMARK VINA RESULT: -7.406077681      3.131      5.556
REMARK  6 active torsions:
REMARK  status: ('A' for Active; 'I' for Inactive)
REMARK    1  A    between atoms: C2_2  and  C3_3 
REMARK    2  A    between atoms: C8_11  and  C9_12 
REMARK    3  A    between atoms: C10_13  and  O1_14 
REMARK    4  A    between atoms: C11_17  and  O3_18 
REMARK    5  A    between atoms: C12_20  and  O4_21 
REMARK    6  A    between atoms: C13_24  and  O6_26 
ROOT
HETATM    1  C1  UNL     1      16.478  13.064  -8.799  1.00  0.00     0.021 C 
HETATM    2  C2  UNL     1      15.309  13.482  -9.654  1.00  0.00    -0.006 C 
HETATM    3  C4  UNL     1      15.043  14.952  -9.683  1.00  0.00     0.025 C 
HETATM    4  C5  UNL     1      14.472  15.233 -11.086  1.00  0.00     0.049 C 
HETATM    5  C6  UNL     1      14.025  13.844 -11.521  1.00  0.00     0.018 C 
HETATM    6  C7  UNL     1      15.293  13.075 -11.047  1.00  0.00     0.033 C 
HETATM    7  C8  UNL     1      16.323  13.497 -12.029  1.00  0.00     0.171 C 
HETATM    8  O5  UNL     1      16.708  14.824 -11.643  1.00  0.00    -0.345 OA
HETATM    9  C13 UNL     1      15.647  15.673 -11.927  1.00  0.00     0.162 C 
HETATM   10  C14 UNL     1      16.081  17.069 -11.454  1.00  0.00     0.079 C 
ENDROOT
BRANCH   7  11
HETATM   11  C9  UNL     1      17.527  12.674 -12.089  1.00  0.00     0.067 A 
HETATM   12  C10 UNL     1      17.517  11.298 -12.119  1.00  0.00     0.197 A 
HETATM   13  O2  UNL     1      18.721  10.889 -12.274  1.00  0.00    -0.262 OA
HETATM   14  C11 UNL     1      19.562  11.888 -12.351  1.00  0.00     0.220 A 
HETATM   15  C12 UNL     1      18.817  13.063 -12.236  1.00  0.00     0.138 A 
BRANCH  12  16
HETATM   16  O1  UNL     1      16.371  10.469 -12.009  1.00  0.00    -0.340 OA
ATOM     17  H1  UNL     1      15.777  10.432 -11.269  1.00  0.00     0.220 HD
ENDBRANCH  12  16
BRANCH  14  18
HETATM   18  O3  UNL     1      20.951  11.810 -12.515  1.00  0.00    -0.339 OA
ATOM     19  H3  UNL     1      21.580  11.456 -11.898  1.00  0.00     0.220 HD
ENDBRANCH  14  18
BRANCH  15  20
HETATM   20  O4  UNL     1      19.385  14.348 -12.284  1.00  0.00    -0.356 OA
ATOM     21  H4  UNL     1      20.179  14.688 -11.887  1.00  0.00     0.218 HD
ENDBRANCH  15  20
ENDBRANCH   7  11
BRANCH   2  22
HETATM   22  C3  UNL     1      14.121  12.807  -8.975  1.00  0.00     0.062 C 
HETATM   23  N1  UNL     1      13.615  13.317  -7.909  1.00  0.00    -0.410 N 
ATOM     24  H12 UNL     1      14.020  14.173  -7.529  1.00  0.00     0.155 HD
ATOM     25  H11 UNL     1      12.822  12.865  -7.455  1.00  0.00     0.155 HD
ENDBRANCH   2  22
BRANCH   9  26
HETATM   26  O6  UNL     1      15.364  15.694 -13.294  1.00  0.00    -0.365 OA
ATOM     27  H6  UNL     1      14.765  15.007 -13.561  1.00  0.00     0.213 HD
ENDBRANCH   9  26
TORSDOF 6
ENDMDL
