MODEL 1
REMARK VINA RESULT: -8.577594598      0.000      0.000
REMARK  7 active torsions:
REMARK  status: ('A' for Active; 'I' for Inactive)
REMARK    1  A    between atoms: O1_2  and  C2_3 
REMARK    2  A    between atoms: C2_3  and  O3_5 
REMARK    3  A    between atoms: O3_5  and  C3_6 
REMARK    4  A    between atoms: C8_11  and  O4_12 
REMARK    5  A    between atoms: C9_16  and  C11_18 
REMARK    6  A    between atoms: C11_18  and  O5_19 
REMARK    7  A    between atoms: N2_21  and  O6_23 
ROOT
HETATM    1  C3  UNL     1      14.698  11.125  -7.460  1.00  0.00     0.115 A 
HETATM    2  C4  UNL     1      15.863  11.806  -7.735  1.00  0.00     0.049 A 
HETATM    3  C5  UNL     1      16.443  11.710  -8.996  1.00  0.00    -0.029 A 
HETATM    4  C6  UNL     1      15.906  10.957 -10.009  1.00  0.00     0.038 A 
HETATM    5  C7  UNL     1      14.734  10.276  -9.722  1.00  0.00     0.069 A 
HETATM    6  C8  UNL     1      14.155  10.365  -8.477  1.00  0.00     0.101 A 
HETATM    7  N1  UNL     1      16.522  10.883 -11.280  1.00  0.00    -0.373 N 
ATOM      8  H1  UNL     1      16.053  10.381 -12.034  1.00  0.00     0.161 HD
HETATM    9  C9  UNL     1      17.787  11.497 -11.526  1.00  0.00     0.093 C 
HETATM   10  C10 UNL     1      17.534  12.764 -12.349  1.00  0.00     0.048 C 
HETATM   11  C12 UNL     1      18.552  11.882 -10.293  1.00  0.00     0.044 C 
HETATM   12  C13 UNL     1      17.677  12.459  -9.213  1.00  0.00     0.044 C 
ENDROOT
BRANCH   9  13
HETATM   13  C11 UNL     1      18.578  10.564 -12.357  1.00  0.00     0.164 C 
HETATM   14  N2  UNL     1      19.831  10.733 -12.546  1.00  0.00    -0.249 N 
ATOM     15  H2  UNL     1      20.271  11.539 -12.101  1.00  0.00     0.196 HD
BRANCH  13  16
HETATM   16  O5  UNL     1      17.929   9.494 -12.931  1.00  0.00    -0.346 OA
ATOM     17  H5  UNL     1      17.833   9.482 -13.876  1.00  0.00     0.219 HD
ENDBRANCH  13  16
BRANCH  14  18
HETATM   18  O6  UNL     1      20.619   9.921 -13.293  1.00  0.00    -0.288 OA
ATOM     19  H6  UNL     1      21.514  10.116 -13.546  1.00  0.00     0.244 HD
ENDBRANCH  14  18
ENDBRANCH   9  13
BRANCH   6  20
HETATM   20  O4  UNL     1      12.963   9.653  -8.236  1.00  0.00    -0.358 OA
ATOM     21  H4  UNL     1      12.914   8.740  -8.490  1.00  0.00     0.217 HD
ENDBRANCH   6  20
BRANCH   1  22
HETATM   22  O3  UNL     1      14.066  11.177  -6.221  1.00  0.00    -0.253 OA
BRANCH  22  23
HETATM   23  C2  UNL     1      12.897  11.891  -6.015  1.00  0.00     0.411 C 
HETATM   24  O2  UNL     1      12.533  12.661  -6.946  1.00  0.00    -0.229 OA
BRANCH  23  25
HETATM   25  O1  UNL     1      12.122  11.818  -4.888  1.00  0.00    -0.303 OA
HETATM   26  C1  UNL     1      11.885  12.985  -4.130  1.00  0.00     0.215 C 
ENDBRANCH  23  25
ENDBRANCH  22  23
ENDBRANCH   1  22
TORSDOF 7
ENDMDL
MODEL 2
REMARK VINA RESULT: -8.398264962      2.515      7.152
REMARK  7 active torsions:
REMARK  status: ('A' for Active; 'I' for Inactive)
REMARK    1  A    between atoms: O1_2  and  C2_3 
REMARK    2  A    between atoms: C2_3  and  O3_5 
REMARK    3  A    between atoms: O3_5  and  C3_6 
REMARK    4  A    between atoms: C8_11  and  O4_12 
REMARK    5  A    between atoms: C9_16  and  C11_18 
REMARK    6  A    between atoms: C11_18  and  O5_19 
REMARK    7  A    between atoms: N2_21  and  O6_23 
ROOT
HETATM    1  C3  UNL     1      18.041  12.796 -10.760  1.00  0.00     0.115 A 
HETATM    2  C4  UNL     1      18.030  11.805  -9.804  1.00  0.00     0.049 A 
HETATM    3  C5  UNL     1      16.822  11.371  -9.267  1.00  0.00    -0.029 A 
HETATM    4  C6  UNL     1      15.609  11.887  -9.645  1.00  0.00     0.038 A 
HETATM    5  C7  UNL     1      15.631  12.883 -10.608  1.00  0.00     0.069 A 
HETATM    6  C8  UNL     1      16.822  13.318 -11.144  1.00  0.00     0.101 A 
HETATM    7  N1  UNL     1      14.399  11.422  -9.080  1.00  0.00    -0.373 N 
ATOM      8  H1  UNL     1      13.512  11.767  -9.443  1.00  0.00     0.161 HD
HETATM    9  C9  UNL     1      14.399  10.477  -8.008  1.00  0.00     0.093 C 
HETATM   10  C10 UNL     1      13.991   9.119  -8.590  1.00  0.00     0.048 C 
HETATM   11  C12 UNL     1      15.718  10.313  -7.311  1.00  0.00     0.044 C 
HETATM   12  C13 UNL     1      16.888  10.318  -8.257  1.00  0.00     0.044 C 
ENDROOT
BRANCH   9  13
HETATM   13  C11 UNL     1      13.353  10.895  -7.050  1.00  0.00     0.164 C 
HETATM   14  N2  UNL     1      13.523  10.789  -5.787  1.00  0.00    -0.249 N 
ATOM     15  H2  UNL     1      14.409  10.405  -5.460  1.00  0.00     0.196 HD
BRANCH  13  16
HETATM   16  O5  UNL     1      12.178  11.408  -7.551  1.00  0.00    -0.346 OA
ATOM     17  H5  UNL     1      12.072  12.352  -7.568  1.00  0.00     0.219 HD
ENDBRANCH  13  16
BRANCH  14  18
HETATM   18  O6  UNL     1      12.612  11.152  -4.850  1.00  0.00    -0.288 OA
ATOM     19  H6  UNL     1      12.799  11.696  -4.094  1.00  0.00     0.244 HD
ENDBRANCH  14  18
ENDBRANCH   9  13
BRANCH   6  20
HETATM   20  O4  UNL     1      16.791  14.334 -12.119  1.00  0.00    -0.358 OA
ATOM     21  H4  UNL     1      16.078  14.348 -12.746  1.00  0.00     0.217 HD
ENDBRANCH   6  20
BRANCH   1  22
HETATM   22  O3  UNL     1      19.213  13.276 -11.338  1.00  0.00    -0.253 OA
BRANCH  22  23
HETATM   23  C2  UNL     1      19.978  12.513 -12.204  1.00  0.00     0.411 C 
HETATM   24  O2  UNL     1      21.211  12.774 -12.251  1.00  0.00    -0.229 OA
BRANCH  23  25
HETATM   25  O1  UNL     1      19.493  11.509 -13.001  1.00  0.00    -0.303 OA
HETATM   26  C1  UNL     1      19.757  10.164 -12.664  1.00  0.00     0.215 C 
ENDBRANCH  23  25
ENDBRANCH  22  23
ENDBRANCH   1  22
TORSDOF 7
ENDMDL
MODEL 3
REMARK VINA RESULT: -8.308448187      1.511      1.776
REMARK  7 active torsions:
REMARK  status: ('A' for Active; 'I' for Inactive)
REMARK    1  A    between atoms: O1_2  and  C2_3 
REMARK    2  A    between atoms: C2_3  and  O3_5 
REMARK    3  A    between atoms: O3_5  and  C3_6 
REMARK    4  A    between atoms: C8_11  and  O4_12 
REMARK    5  A    between atoms: C9_16  and  C11_18 
REMARK    6  A    between atoms: C11_18  and  O5_19 
REMARK    7  A    between atoms: N2_21  and  O6_23 
ROOT
HETATM    1  C3  UNL     1      15.332  12.122  -7.826  1.00  0.00     0.115 A 
HETATM    2  C4  UNL     1      15.571  12.899  -8.938  1.00  0.00     0.049 A 
HETATM    3  C5  UNL     1      16.378  12.416  -9.964  1.00  0.00    -0.029 A 
HETATM    4  C6  UNL     1      16.964  11.177  -9.931  1.00  0.00     0.038 A 
HETATM    5  C7  UNL     1      16.717  10.403  -8.809  1.00  0.00     0.069 A 
HETATM    6  C8  UNL     1      15.920  10.873  -7.791  1.00  0.00     0.101 A 
HETATM    7  N1  UNL     1      17.778  10.717 -10.992  1.00  0.00    -0.373 N 
ATOM      8  H1  UNL     1      18.130   9.760 -10.974  1.00  0.00     0.161 HD
HETATM    9  C9  UNL     1      18.116  11.568 -12.088  1.00  0.00     0.093 C 
HETATM   10  C10 UNL     1      17.276  11.127 -13.291  1.00  0.00     0.048 C 
HETATM   11  C12 UNL     1      17.868  13.030 -11.851  1.00  0.00     0.044 C 
HETATM   12  C13 UNL     1      16.587  13.297 -11.109  1.00  0.00     0.044 C 
ENDROOT
BRANCH   9  13
HETATM   13  C11 UNL     1      19.538  11.328 -12.412  1.00  0.00     0.164 C 
HETATM   14  N2  UNL     1      19.958  10.175 -12.771  1.00  0.00    -0.249 N 
ATOM     15  H2  UNL     1      19.274   9.420 -12.826  1.00  0.00     0.196 HD
BRANCH  13  16
HETATM   16  O5  UNL     1      20.414  12.387 -12.320  1.00  0.00    -0.346 OA
ATOM     17  H5  UNL     1      20.380  12.930 -11.541  1.00  0.00     0.219 HD
ENDBRANCH  13  16
BRANCH  14  18
HETATM   18  O6  UNL     1      21.244   9.881 -13.083  1.00  0.00    -0.288 OA
ATOM     19  H6  UNL     1      21.649   9.029 -12.969  1.00  0.00     0.244 HD
ENDBRANCH  14  18
ENDBRANCH   9  13
BRANCH   6  20
HETATM   20  O4  UNL     1      15.700  10.047  -6.671  1.00  0.00    -0.358 OA
ATOM     21  H4  UNL     1      16.261   9.293  -6.538  1.00  0.00     0.217 HD
ENDBRANCH   6  20
BRANCH   1  22
HETATM   22  O3  UNL     1      14.535  12.543  -6.766  1.00  0.00    -0.253 OA
BRANCH  22  23
HETATM   23  C2  UNL     1      13.163  12.356  -6.750  1.00  0.00     0.411 C 
HETATM   24  O2  UNL     1      12.632  11.967  -7.827  1.00  0.00    -0.229 OA
BRANCH  23  25
HETATM   25  O1  UNL     1      12.356  12.560  -5.662  1.00  0.00    -0.303 OA
HETATM   26  C1  UNL     1      12.379  11.635  -4.596  1.00  0.00     0.215 C 
ENDBRANCH  23  25
ENDBRANCH  22  23
ENDBRANCH   1  22
TORSDOF 7
ENDMDL
MODEL 4
REMARK VINA RESULT: -8.277044311      2.516      6.996
REMARK  7 active torsions:
REMARK  status: ('A' for Active; 'I' for Inactive)
REMARK    1  A    between atoms: O1_2  and  C2_3 
REMARK    2  A    between atoms: C2_3  and  O3_5 
REMARK    3  A    between atoms: O3_5  and  C3_6 
REMARK    4  A    between atoms: C8_11  and  O4_12 
REMARK    5  A    between atoms: C9_16  and  C11_18 
REMARK    6  A    between atoms: C11_18  and  O5_19 
REMARK    7  A    between atoms: N2_21  and  O6_23 
ROOT
HETATM    1  C3  UNL     1      18.414  12.863 -11.749  1.00  0.00     0.115 A 
HETATM    2  C4  UNL     1      17.474  13.487 -10.959  1.00  0.00     0.049 A 
HETATM    3  C5  UNL     1      16.690  12.739 -10.088  1.00  0.00    -0.029 A 
HETATM    4  C6  UNL     1      16.803  11.377  -9.965  1.00  0.00     0.038 A 
HETATM    5  C7  UNL     1      17.751  10.759 -10.764  1.00  0.00     0.069 A 
HETATM    6  C8  UNL     1      18.530  11.492 -11.628  1.00  0.00     0.101 A 
HETATM    7  N1  UNL     1      15.990  10.647  -9.068  1.00  0.00    -0.373 N 
ATOM      8  H1  UNL     1      16.156   9.649  -8.942  1.00  0.00     0.161 HD
HETATM    9  C9  UNL     1      14.940  11.281  -8.336  1.00  0.00     0.093 C 
HETATM   10  C10 UNL     1      15.417  11.439  -6.889  1.00  0.00     0.048 C 
HETATM   11  C12 UNL     1      14.541  12.634  -8.851  1.00  0.00     0.044 C 
HETATM   12  C13 UNL     1      15.715  13.469  -9.284  1.00  0.00     0.044 C 
ENDROOT
BRANCH   9  13
HETATM   13  C11 UNL     1      13.782  10.362  -8.337  1.00  0.00     0.164 C 
HETATM   14  N2  UNL     1      13.862   9.185  -8.830  1.00  0.00    -0.249 N 
ATOM     15  H2  UNL     1      14.757   8.899  -9.226  1.00  0.00     0.196 HD
BRANCH  13  16
HETATM   16  O5  UNL     1      12.600  10.805  -7.788  1.00  0.00    -0.346 OA
ATOM     17  H5  UNL     1      11.844  10.231  -7.826  1.00  0.00     0.219 HD
ENDBRANCH  13  16
BRANCH  14  18
HETATM   18  O6  UNL     1      12.844   8.290  -8.866  1.00  0.00    -0.288 OA
ATOM     19  H6  UNL     1      12.548   7.836  -9.646  1.00  0.00     0.244 HD
ENDBRANCH  14  18
ENDBRANCH   9  13
BRANCH   6  20
HETATM   20  O4  UNL     1      19.480  10.816 -12.419  1.00  0.00    -0.358 OA
ATOM     21  H4  UNL     1      19.645  11.123 -13.302  1.00  0.00     0.217 HD
ENDBRANCH   6  20
BRANCH   1  22
HETATM   22  O3  UNL     1      19.231  13.552 -12.641  1.00  0.00    -0.253 OA
BRANCH  22  23
HETATM   23  C2  UNL     1      20.472  14.045 -12.278  1.00  0.00     0.411 C 
HETATM   24  O2  UNL     1      21.363  13.194 -12.007  1.00  0.00    -0.229 OA
BRANCH  23  25
HETATM   25  O1  UNL     1      20.794  15.375 -12.196  1.00  0.00    -0.303 OA
HETATM   26  C1  UNL     1      19.763  16.339 -12.164  1.00  0.00     0.215 C 
ENDBRANCH  23  25
ENDBRANCH  22  23
ENDBRANCH   1  22
TORSDOF 7
ENDMDL
MODEL 5
REMARK VINA RESULT: -8.256965895      2.818      7.171
REMARK  7 active torsions:
REMARK  status: ('A' for Active; 'I' for Inactive)
REMARK    1  A    between atoms: O1_2  and  C2_3 
REMARK    2  A    between atoms: C2_3  and  O3_5 
REMARK    3  A    between atoms: O3_5  and  C3_6 
REMARK    4  A    between atoms: C8_11  and  O4_12 
REMARK    5  A    between atoms: C9_16  and  C11_18 
REMARK    6  A    between atoms: C11_18  and  O5_19 
REMARK    7  A    between atoms: N2_21  and  O6_23 
ROOT
HETATM    1  C3  UNL     1      17.754  13.275 -11.031  1.00  0.00     0.115 A 
HETATM    2  C4  UNL     1      17.913  12.361 -10.013  1.00  0.00     0.049 A 
HETATM    3  C5  UNL     1      16.797  11.774  -9.425  1.00  0.00    -0.029 A 
HETATM    4  C6  UNL     1      15.513  12.059  -9.813  1.00  0.00     0.038 A 
HETATM    5  C7  UNL     1      15.364  12.980 -10.839  1.00  0.00     0.069 A 
HETATM    6  C8  UNL     1      16.463  13.565 -11.424  1.00  0.00     0.101 A 
HETATM    7  N1  UNL     1      14.400  11.443  -9.195  1.00  0.00    -0.373 N 
ATOM      8  H1  UNL     1      13.465  11.615  -9.563  1.00  0.00     0.161 HD
HETATM    9  C9  UNL     1      14.563  10.585  -8.065  1.00  0.00     0.093 C 
HETATM   10  C10 UNL     1      14.377   9.143  -8.550  1.00  0.00     0.048 C 
HETATM   11  C12 UNL     1      15.898  10.684  -7.385  1.00  0.00     0.044 C 
HETATM   12  C13 UNL     1      17.043  10.816  -8.351  1.00  0.00     0.044 C 
ENDROOT
BRANCH   9  13
HETATM   13  C11 UNL     1      13.472  10.891  -7.116  1.00  0.00     0.164 C 
HETATM   14  N2  UNL     1      13.633  10.778  -5.852  1.00  0.00    -0.249 N 
ATOM     15  H2  UNL     1      14.545  10.467  -5.519  1.00  0.00     0.196 HD
BRANCH  13  16
HETATM   16  O5  UNL     1      12.263  11.306  -7.626  1.00  0.00    -0.346 OA
ATOM     17  H5  UNL     1      11.564  10.667  -7.701  1.00  0.00     0.219 HD
ENDBRANCH  13  16
BRANCH  14  18
HETATM   18  O6  UNL     1      12.681  11.040  -4.924  1.00  0.00    -0.288 OA
ATOM     19  H6  UNL     1      11.756  10.849  -5.026  1.00  0.00     0.244 HD
ENDBRANCH  14  18
ENDBRANCH   9  13
BRANCH   6  20
HETATM   20  O4  UNL     1      16.258  14.494 -12.463  1.00  0.00    -0.358 OA
ATOM     21  H4  UNL     1      15.440  14.473 -12.944  1.00  0.00     0.217 HD
ENDBRANCH   6  20
BRANCH   1  22
HETATM   22  O3  UNL     1      18.827  13.899 -11.661  1.00  0.00    -0.253 OA
BRANCH  22  23
HETATM   23  C2  UNL     1      19.932  13.196 -12.111  1.00  0.00     0.411 C 
HETATM   24  O2  UNL     1      19.732  12.009 -12.491  1.00  0.00    -0.229 OA
BRANCH  23  25
HETATM   25  O1  UNL     1      21.207  13.694 -12.171  1.00  0.00    -0.303 OA
HETATM   26  C1  UNL     1      21.406  15.090 -12.234  1.00  0.00     0.215 C 
ENDBRANCH  23  25
ENDBRANCH  22  23
ENDBRANCH   1  22
TORSDOF 7
ENDMDL
