MODEL 1
REMARK VINA RESULT: -8.994755756      0.000      0.000
REMARK  4 active torsions:
REMARK  status: ('A' for Active; 'I' for Inactive)
REMARK    1  A    between atoms: N3_10  and  N4_12 
REMARK    2  A    between atoms: C11_20  and  O1_21 
REMARK    3  A    between atoms: C12_24  and  O3_25 
REMARK    4  A    between atoms: C14_28  and  N5_29 
ROOT
HETATM    1  N1  UNL     1      13.520  11.093  -5.582  1.00  0.00    -0.403 N 
ATOM      2  H11 UNL     1      12.871  11.775  -5.973  1.00  0.00     0.155 HD
ATOM      3  H12 UNL     1      13.465  10.869  -4.589  1.00  0.00     0.155 HD
HETATM    4  C1  UNL     1      14.390  10.519  -6.304  1.00  0.00     0.019 C 
HETATM    5  C2  UNL     1      15.330   9.532  -5.739  1.00  0.00     0.074 C 
HETATM    6  C3  UNL     1      16.507   9.237  -6.607  1.00  0.00     0.127 C 
HETATM    7  N2  UNL     1      16.865  10.290  -7.516  1.00  0.00    -0.376 N 
ATOM      8  H2  UNL     1      17.838  10.385  -7.810  1.00  0.00     0.160 HD
HETATM    9  C4  UNL     1      15.895  11.205  -8.015  1.00  0.00     0.128 C 
HETATM   10  N3  UNL     1      16.294  12.224  -8.631  1.00  0.00    -0.287 N 
ATOM     11  H3  UNL     1      17.307  12.306  -8.721  1.00  0.00     0.188 HD
HETATM   12  C14 UNL     1      14.470  10.843  -7.744  1.00  0.00     0.296 C 
ENDROOT
BRANCH  10  13
HETATM   13  N4  UNL     1      15.580  13.236  -9.198  1.00  0.00    -0.302 N 
HETATM   14  C5  UNL     1      15.765  13.842 -10.291  1.00  0.00     0.041 C 
HETATM   15  C6  UNL     1      16.914  13.474 -11.179  1.00  0.00     0.059 C 
HETATM   16  C13 UNL     1      14.811  14.896 -10.622  1.00  0.00     0.057 A 
HETATM   17  C7  UNL     1      17.577  14.730 -11.596  1.00  0.00     0.006 C 
HETATM   18  C8  UNL     1      17.004  15.548 -12.660  1.00  0.00     0.005 C 
HETATM   19  C9  UNL     1      15.560  15.437 -12.989  1.00  0.00     0.044 C 
HETATM   20  C10 UNL     1      14.686  15.622 -11.793  1.00  0.00     0.017 A 
HETATM   21  C11 UNL     1      13.647  16.507 -11.647  1.00  0.00     0.193 A 
HETATM   22  O2  UNL     1      13.172  16.326 -10.458  1.00  0.00    -0.263 OA
HETATM   23  C12 UNL     1      13.820  15.384  -9.801  1.00  0.00     0.198 A 
ATOM     24  H4  UNL     1      14.775  13.553  -8.658  1.00  0.00     0.186 HD
BRANCH  21  25
HETATM   25  O1  UNL     1      13.265  17.385 -12.654  1.00  0.00    -0.340 OA
ATOM     26  H1  UNL     1      12.878  18.234 -12.474  1.00  0.00     0.220 HD
ENDBRANCH  21  25
BRANCH  23  27
HETATM   27  O3  UNL     1      13.606  14.912  -8.517  1.00  0.00    -0.340 OA
ATOM     28  H3  UNL     1      14.242  14.696  -7.845  1.00  0.00     0.220 HD
ENDBRANCH  23  27
ENDBRANCH  10  13
BRANCH  12  29
HETATM   29  N5  UNL     1      14.175   9.643  -8.543  1.00  0.00    -0.063 N 
ATOM     30  H53 UNL     1      14.098   8.807  -7.964  1.00  0.00     0.275 HD
ATOM     31  H52 UNL     1      13.225   9.653  -8.915  1.00  0.00     0.275 HD
ATOM     32  H51 UNL     1      14.873   9.537  -9.279  1.00  0.00     0.275 HD
ENDBRANCH  12  29
TORSDOF 4
ENDMDL
MODEL 2
REMARK VINA RESULT: -8.753169889      3.775      5.133
REMARK  4 active torsions:
REMARK  status: ('A' for Active; 'I' for Inactive)
REMARK    1  A    between atoms: N3_10  and  N4_12 
REMARK    2  A    between atoms: C11_20  and  O1_21 
REMARK    3  A    between atoms: C12_24  and  O3_25 
REMARK    4  A    between atoms: C14_28  and  N5_29 
ROOT
HETATM    1  N1  UNL     1      13.505  10.027  -7.789  1.00  0.00    -0.403 N 
ATOM      2  H11 UNL     1      14.285   9.439  -8.085  1.00  0.00     0.155 HD
ATOM      3  H12 UNL     1      12.638   9.584  -7.487  1.00  0.00     0.155 HD
HETATM    4  C1  UNL     1      13.593  11.292  -7.791  1.00  0.00     0.019 C 
HETATM    5  C2  UNL     1      12.466  12.143  -7.365  1.00  0.00     0.074 C 
HETATM    6  C3  UNL     1      12.587  13.573  -7.773  1.00  0.00     0.127 C 
HETATM    7  N2  UNL     1      13.400  13.802  -8.935  1.00  0.00    -0.376 N 
ATOM      8  H2  UNL     1      13.205  14.609  -9.528  1.00  0.00     0.160 HD
HETATM    9  C4  UNL     1      14.471  12.929  -9.279  1.00  0.00     0.128 C 
HETATM   10  N3  UNL     1      15.007  13.054 -10.408  1.00  0.00    -0.287 N 
ATOM     11  H3  UNL     1      14.615  13.791 -10.993  1.00  0.00     0.188 HD
HETATM   12  C14 UNL     1      14.851  11.932  -8.230  1.00  0.00     0.296 C 
ENDROOT
BRANCH  10  13
HETATM   13  N4  UNL     1      16.032  12.354 -10.969  1.00  0.00    -0.302 N 
HETATM   14  C5  UNL     1      17.214  12.719 -11.224  1.00  0.00     0.041 C 
HETATM   15  C6  UNL     1      17.667  14.111 -10.904  1.00  0.00     0.059 C 
HETATM   16  C13 UNL     1      18.087  11.722 -11.836  1.00  0.00     0.057 A 
HETATM   17  C7  UNL     1      18.382  14.633 -12.091  1.00  0.00     0.006 C 
HETATM   18  C8  UNL     1      19.761  14.235 -12.354  1.00  0.00     0.005 C 
HETATM   19  C9  UNL     1      20.296  12.976 -11.776  1.00  0.00     0.044 C 
HETATM   20  C10 UNL     1      19.444  11.793 -12.097  1.00  0.00     0.017 A 
HETATM   21  C11 UNL     1      19.836  10.616 -12.683  1.00  0.00     0.193 A 
HETATM   22  O2  UNL     1      18.779   9.877 -12.771  1.00  0.00    -0.263 OA
HETATM   23  C12 UNL     1      17.710  10.477 -12.285  1.00  0.00     0.198 A 
ATOM     24  H4  UNL     1      15.812  11.391 -11.221  1.00  0.00     0.186 HD
BRANCH  21  25
HETATM   25  O1  UNL     1      21.149  10.373 -13.069  1.00  0.00    -0.340 OA
ATOM     26  H1  UNL     1      21.399   9.618 -13.589  1.00  0.00     0.220 HD
ENDBRANCH  21  25
BRANCH  23  27
HETATM   27  O3  UNL     1      16.408  10.010 -12.205  1.00  0.00    -0.340 OA
ATOM     28  H3  UNL     1      15.640  10.437 -11.845  1.00  0.00     0.220 HD
ENDBRANCH  23  27
ENDBRANCH  10  13
BRANCH  12  29
HETATM   29  N5  UNL     1      15.441  12.691  -7.115  1.00  0.00    -0.063 N 
ATOM     30  H53 UNL     1      16.453  12.779  -7.205  1.00  0.00     0.275 HD
ATOM     31  H52 UNL     1      15.201  13.681  -7.156  1.00  0.00     0.275 HD
ATOM     32  H51 UNL     1      15.171  12.267  -6.227  1.00  0.00     0.275 HD
ENDBRANCH  12  29
TORSDOF 4
ENDMDL
MODEL 3
REMARK VINA RESULT: -8.551557383      2.751      3.814
REMARK  4 active torsions:
REMARK  status: ('A' for Active; 'I' for Inactive)
REMARK    1  A    between atoms: N3_10  and  N4_12 
REMARK    2  A    between atoms: C11_20  and  O1_21 
REMARK    3  A    between atoms: C12_24  and  O3_25 
REMARK    4  A    between atoms: C14_28  and  N5_29 
ROOT
HETATM    1  N1  UNL     1      17.136  10.827  -8.893  1.00  0.00    -0.403 N 
ATOM      2  H11 UNL     1      16.327  11.182  -8.384  1.00  0.00     0.155 HD
ATOM      3  H12 UNL     1      17.880  10.358  -8.376  1.00  0.00     0.155 HD
HETATM    4  C1  UNL     1      17.236  10.956 -10.150  1.00  0.00     0.019 C 
HETATM    5  C2  UNL     1      18.407  10.442 -10.887  1.00  0.00     0.074 C 
HETATM    6  C3  UNL     1      18.554  10.991 -12.267  1.00  0.00     0.127 C 
HETATM    7  N2  UNL     1      17.950  12.278 -12.471  1.00  0.00    -0.376 N 
ATOM      8  H2  UNL     1      18.341  12.905 -13.175  1.00  0.00     0.160 HD
HETATM    9  C4  UNL     1      16.819  12.700 -11.716  1.00  0.00     0.128 C 
HETATM   10  N3  UNL     1      16.467  13.903 -11.785  1.00  0.00    -0.287 N 
ATOM     11  H3  UNL     1      17.039  14.486 -12.395  1.00  0.00     0.188 HD
HETATM   12  C14 UNL     1      16.158  11.635 -10.900  1.00  0.00     0.296 C 
ENDROOT
BRANCH  10  13
HETATM   13  N4  UNL     1      15.436  14.547 -11.169  1.00  0.00    -0.302 N 
HETATM   14  C5  UNL     1      14.693  15.474 -11.597  1.00  0.00     0.041 C 
HETATM   15  C6  UNL     1      14.883  16.026 -12.976  1.00  0.00     0.059 C 
HETATM   16  C13 UNL     1      13.663  15.959 -10.683  1.00  0.00     0.057 A 
HETATM   17  C7  UNL     1      14.864  17.503 -12.874  1.00  0.00     0.006 C 
HETATM   18  C8  UNL     1      13.597  18.217 -12.752  1.00  0.00     0.005 C 
HETATM   19  C9  UNL     1      12.393  17.516 -12.238  1.00  0.00     0.044 C 
HETATM   20  C10 UNL     1      12.636  16.854 -10.923  1.00  0.00     0.017 A 
HETATM   21  C11 UNL     1      11.915  17.009  -9.765  1.00  0.00     0.193 A 
HETATM   22  O2  UNL     1      12.473  16.252  -8.878  1.00  0.00    -0.263 OA
HETATM   23  C12 UNL     1      13.515  15.602  -9.362  1.00  0.00     0.198 A 
ATOM     24  H4  UNL     1      15.235  14.233 -10.220  1.00  0.00     0.186 HD
BRANCH  21  25
HETATM   25  O1  UNL     1      10.811  17.848  -9.678  1.00  0.00    -0.340 OA
ATOM     26  H1  UNL     1      10.109  17.707  -9.053  1.00  0.00     0.220 HD
ENDBRANCH  21  25
BRANCH  23  27
HETATM   27  O3  UNL     1      14.359  14.709  -8.724  1.00  0.00    -0.340 OA
ATOM     28  H3  UNL     1      15.128  14.885  -8.196  1.00  0.00     0.220 HD
ENDBRANCH  23  27
ENDBRANCH  10  13
BRANCH  12  29
HETATM   29  N5  UNL     1      15.539  10.694 -11.847  1.00  0.00    -0.063 N 
ATOM     30  H53 UNL     1      15.801  10.895 -12.812  1.00  0.00     0.275 HD
ATOM     31  H52 UNL     1      15.940   9.759 -11.777  1.00  0.00     0.275 HD
ATOM     32  H51 UNL     1      14.527  10.688 -11.718  1.00  0.00     0.275 HD
ENDBRANCH  12  29
TORSDOF 4
ENDMDL
MODEL 4
REMARK VINA RESULT: -8.532321757      3.026      6.164
REMARK  4 active torsions:
REMARK  status: ('A' for Active; 'I' for Inactive)
REMARK    1  A    between atoms: N3_10  and  N4_12 
REMARK    2  A    between atoms: C11_20  and  O1_21 
REMARK    3  A    between atoms: C12_24  and  O3_25 
REMARK    4  A    between atoms: C14_28  and  N5_29 
ROOT
HETATM    1  N1  UNL     1      16.964  10.227 -12.664  1.00  0.00    -0.403 N 
ATOM      2  H11 UNL     1      16.015  10.169 -12.294  1.00  0.00     0.155 HD
ATOM      3  H12 UNL     1      17.324   9.457 -13.227  1.00  0.00     0.155 HD
HETATM    4  C1  UNL     1      17.701  11.234 -12.440  1.00  0.00     0.019 C 
HETATM    5  C2  UNL     1      19.073  11.318 -12.974  1.00  0.00     0.074 C 
HETATM    6  C3  UNL     1      19.922  12.359 -12.326  1.00  0.00     0.127 C 
HETATM    7  N2  UNL     1      19.537  12.703 -10.986  1.00  0.00    -0.376 N 
ATOM      8  H2  UNL     1      20.247  13.035 -10.333  1.00  0.00     0.160 HD
HETATM    9  C4  UNL     1      18.187  12.592 -10.547  1.00  0.00     0.128 C 
HETATM   10  N3  UNL     1      17.945  12.701  -9.319  1.00  0.00    -0.287 N 
ATOM     11  H3  UNL     1      18.762  12.865  -8.731  1.00  0.00     0.188 HD
HETATM   12  C14 UNL     1      17.178  12.350 -11.624  1.00  0.00     0.296 C 
ENDROOT
BRANCH  10  13
HETATM   13  N4  UNL     1      16.758  12.634  -8.655  1.00  0.00    -0.302 N 
HETATM   14  C5  UNL     1      16.303  11.727  -7.903  1.00  0.00     0.041 C 
HETATM   15  C6  UNL     1      17.106  10.491  -7.631  1.00  0.00     0.059 C 
HETATM   16  C13 UNL     1      14.979  11.954  -7.333  1.00  0.00     0.057 A 
HETATM   17  C7  UNL     1      16.206   9.327  -7.798  1.00  0.00     0.006 C 
HETATM   18  C8  UNL     1      15.269   8.962  -6.742  1.00  0.00     0.005 C 
HETATM   19  C9  UNL     1      14.839   9.976  -5.745  1.00  0.00     0.044 C 
HETATM   20  C10 UNL     1      14.299  11.212  -6.384  1.00  0.00     0.017 A 
HETATM   21  C11 UNL     1      13.084  11.807  -6.155  1.00  0.00     0.193 A 
HETATM   22  O2  UNL     1      13.032  12.848  -6.920  1.00  0.00    -0.263 OA
HETATM   23  C12 UNL     1      14.127  12.990  -7.643  1.00  0.00     0.198 A 
ATOM     24  H4  UNL     1      16.143  13.438  -8.784  1.00  0.00     0.186 HD
BRANCH  21  25
HETATM   25  O1  UNL     1      12.160  11.299  -5.249  1.00  0.00    -0.340 OA
ATOM     26  H1  UNL     1      11.230  11.485  -5.308  1.00  0.00     0.220 HD
ENDBRANCH  21  25
BRANCH  23  27
HETATM   27  O3  UNL     1      14.441  13.972  -8.567  1.00  0.00    -0.340 OA
ATOM     28  H3  UNL     1      15.293  14.240  -8.890  1.00  0.00     0.220 HD
ENDBRANCH  23  27
ENDBRANCH  10  13
BRANCH  12  29
HETATM   29  N5  UNL     1      17.119  13.577 -12.436  1.00  0.00    -0.063 N 
ATOM     30  H53 UNL     1      17.976  14.126 -12.363  1.00  0.00     0.275 HD
ATOM     31  H52 UNL     1      17.157  13.377 -13.435  1.00  0.00     0.275 HD
ATOM     32  H51 UNL     1      16.294  14.120 -12.184  1.00  0.00     0.275 HD
ENDBRANCH  12  29
TORSDOF 4
ENDMDL
MODEL 5
REMARK VINA RESULT: -8.434510482      1.816      2.609
REMARK  4 active torsions:
REMARK  status: ('A' for Active; 'I' for Inactive)
REMARK    1  A    between atoms: N3_10  and  N4_12 
REMARK    2  A    between atoms: C11_20  and  O1_21 
REMARK    3  A    between atoms: C12_24  and  O3_25 
REMARK    4  A    between atoms: C14_28  and  N5_29 
ROOT
HETATM    1  N1  UNL     1      14.508  10.829  -7.863  1.00  0.00    -0.403 N 
ATOM      2  H11 UNL     1      13.617  11.321  -7.927  1.00  0.00     0.155 HD
ATOM      3  H12 UNL     1      14.689  10.237  -7.052  1.00  0.00     0.155 HD
HETATM    4  C1  UNL     1      15.391  10.938  -8.766  1.00  0.00     0.019 C 
HETATM    5  C2  UNL     1      16.680  10.226  -8.673  1.00  0.00     0.074 C 
HETATM    6  C3  UNL     1      17.733  10.740  -9.596  1.00  0.00     0.127 C 
HETATM    7  N2  UNL     1      17.576  12.113  -9.986  1.00  0.00    -0.376 N 
ATOM      8  H2  UNL     1      18.403  12.662 -10.224  1.00  0.00     0.160 HD
HETATM    9  C4  UNL     1      16.293  12.728 -10.049  1.00  0.00     0.128 C 
HETATM   10  N3  UNL     1      16.231  13.974 -10.188  1.00  0.00    -0.287 N 
ATOM     11  H3  UNL     1      17.133  14.448 -10.245  1.00  0.00     0.188 HD
HETATM   12  C14 UNL     1      15.127  11.797  -9.940  1.00  0.00     0.296 C 
ENDROOT
BRANCH  10  13
HETATM   13  N4  UNL     1      15.144  14.790 -10.274  1.00  0.00    -0.302 N 
HETATM   14  C5  UNL     1      14.770  15.541 -11.219  1.00  0.00     0.041 C 
HETATM   15  C6  UNL     1      15.568  15.626 -12.483  1.00  0.00     0.059 C 
HETATM   16  C13 UNL     1      13.542  16.300 -11.002  1.00  0.00     0.057 A 
HETATM   17  C7  UNL     1      15.719  17.060 -12.822  1.00  0.00     0.006 C 
HETATM   18  C8  UNL     1      14.623  17.787 -13.453  1.00  0.00     0.005 C 
HETATM   19  C9  UNL     1      13.228  17.296 -13.318  1.00  0.00     0.044 C 
HETATM   20  C10 UNL     1      12.832  17.083 -11.894  1.00  0.00     0.017 A 
HETATM   21  C11 UNL     1      11.742  17.604 -11.244  1.00  0.00     0.193 A 
HETATM   22  O2  UNL     1      11.789  17.161 -10.030  1.00  0.00    -0.263 OA
HETATM   23  C12 UNL     1      12.834  16.382  -9.825  1.00  0.00     0.198 A 
ATOM     24  H4  UNL     1      14.540  14.795  -9.452  1.00  0.00     0.186 HD
BRANCH  21  25
HETATM   25  O1  UNL     1      10.824  18.438 -11.872  1.00  0.00    -0.340 OA
ATOM     26  H1  UNL     1      10.243  18.135 -12.560  1.00  0.00     0.220 HD
ENDBRANCH  21  25
BRANCH  23  27
HETATM   27  O3  UNL     1      13.220  15.728  -8.667  1.00  0.00    -0.340 OA
ATOM     28  H3  UNL     1      12.860  14.942  -8.275  1.00  0.00     0.220 HD
ENDBRANCH  23  27
ENDBRANCH  10  13
BRANCH  12  29
HETATM   29  N5  UNL     1      15.119  10.979 -11.164  1.00  0.00    -0.063 N 
ATOM     30  H53 UNL     1      15.979  11.085 -11.701  1.00  0.00     0.275 HD
ATOM     31  H52 UNL     1      15.192   9.982 -10.960  1.00  0.00     0.275 HD
ATOM     32  H51 UNL     1      14.291  11.196 -11.720  1.00  0.00     0.275 HD
ENDBRANCH  12  29
TORSDOF 4
ENDMDL
