MODEL 1
REMARK VINA RESULT: -7.337305877      0.000      0.000
REMARK  5 active torsions:
REMARK  status: ('A' for Active; 'I' for Inactive)
REMARK    1  A    between atoms: C2_2  and  C4_4 
REMARK    2  A    between atoms: C5_5  and  O1_6 
REMARK    3  A    between atoms: C9_11  and  O2_12 
REMARK    4  A    between atoms: C10_15  and  O4_16 
REMARK    5  A    between atoms: C12_19  and  O5_20 
ROOT
HETATM    1  C4  UNL     1     -21.505   0.158 -23.904  1.00  0.00     0.037 A 
HETATM    2  C5  UNL     1     -20.934  -0.821 -24.726  1.00  0.00     0.086 A 
HETATM    3  C6  UNL     1     -21.028  -0.778 -26.097  1.00  0.00    -0.012 A 
HETATM    4  C7  UNL     1     -20.411  -1.816 -26.943  1.00  0.00     0.052 C 
HETATM    5  C8  UNL     1     -21.723   0.288 -26.636  1.00  0.00     0.049 A 
HETATM    6  C9  UNL     1     -22.042   0.688 -27.927  1.00  0.00     0.197 A 
HETATM    7  O3  UNL     1     -22.744   1.812 -27.872  1.00  0.00    -0.263 OA
HETATM    8  C10 UNL     1     -22.923   2.201 -26.636  1.00  0.00     0.199 A 
HETATM    9  C11 UNL     1     -22.293   1.263 -25.847  1.00  0.00     0.072 A 
HETATM   10  C12 UNL     1     -22.191   1.214 -24.461  1.00  0.00     0.095 A 
ENDROOT
BRANCH   1  11
HETATM   11  C2  UNL     1     -21.318   0.015 -22.459  1.00  0.00    -0.056 C 
HETATM   12  C1  UNL     1     -20.385   0.665 -21.822  1.00  0.00     0.019 C 
HETATM   13  C3  UNL     1     -22.158  -0.937 -21.654  1.00  0.00     0.048 C 
ENDBRANCH   1  11
BRANCH   2  14
HETATM   14  O1  UNL     1     -20.261  -1.854 -24.096  1.00  0.00    -0.359 OA
ATOM     15  H1  UNL     1     -19.884  -1.665 -23.244  1.00  0.00     0.217 HD
ENDBRANCH   2  14
BRANCH  10  16
HETATM   16  O5  UNL     1     -22.778   2.223 -23.719  1.00  0.00    -0.359 OA
ATOM     17  H5  UNL     1     -23.177   2.087 -22.867  1.00  0.00     0.217 HD
ENDBRANCH  10  16
BRANCH   8  18
HETATM   18  O4  UNL     1     -23.618   3.347 -26.216  1.00  0.00    -0.340 OA
ATOM     19  H4  UNL     1     -24.522   3.382 -25.926  1.00  0.00     0.220 HD
ENDBRANCH   8  18
BRANCH   6  20
HETATM   20  O2  UNL     1     -21.668  -0.008 -29.069  1.00  0.00    -0.340 OA
ATOM     21  H2  UNL     1     -22.182  -0.031 -29.867  1.00  0.00     0.220 HD
ENDBRANCH   6  20
TORSDOF 5
ENDMDL
MODEL 2
REMARK VINA RESULT: -7.332295091      1.113      3.552
REMARK  5 active torsions:
REMARK  status: ('A' for Active; 'I' for Inactive)
REMARK    1  A    between atoms: C2_2  and  C4_4 
REMARK    2  A    between atoms: C5_5  and  O1_6 
REMARK    3  A    between atoms: C9_11  and  O2_12 
REMARK    4  A    between atoms: C10_15  and  O4_16 
REMARK    5  A    between atoms: C12_19  and  O5_20 
ROOT
HETATM    1  C4  UNL     1     -21.446  -0.162 -23.909  1.00  0.00     0.037 A 
HETATM    2  C5  UNL     1     -22.020   0.818 -24.730  1.00  0.00     0.086 A 
HETATM    3  C6  UNL     1     -21.930   0.774 -26.101  1.00  0.00    -0.012 A 
HETATM    4  C7  UNL     1     -22.550   1.811 -26.946  1.00  0.00     0.052 C 
HETATM    5  C8  UNL     1     -21.236  -0.291 -26.642  1.00  0.00     0.049 A 
HETATM    6  C9  UNL     1     -20.920  -0.691 -27.934  1.00  0.00     0.197 A 
HETATM    7  O3  UNL     1     -20.217  -1.815 -27.881  1.00  0.00    -0.263 OA
HETATM    8  C10 UNL     1     -20.035  -2.204 -26.645  1.00  0.00     0.199 A 
HETATM    9  C11 UNL     1     -20.663  -1.266 -25.854  1.00  0.00     0.072 A 
HETATM   10  C12 UNL     1     -20.761  -1.217 -24.468  1.00  0.00     0.095 A 
ENDROOT
BRANCH   1  11
HETATM   11  C2  UNL     1     -21.629  -0.018 -22.464  1.00  0.00    -0.056 C 
HETATM   12  C1  UNL     1     -22.576  -0.649 -21.828  1.00  0.00     0.019 C 
HETATM   13  C3  UNL     1     -20.768   0.913 -21.657  1.00  0.00     0.048 C 
ENDBRANCH   1  11
BRANCH   2  14
HETATM   14  O1  UNL     1     -22.693   1.850 -24.099  1.00  0.00    -0.359 OA
ATOM     15  H1  UNL     1     -23.624   1.730 -23.952  1.00  0.00     0.217 HD
ENDBRANCH   2  14
BRANCH  10  16
HETATM   16  O5  UNL     1     -20.171  -2.226 -23.728  1.00  0.00    -0.359 OA
ATOM     17  H5  UNL     1     -19.830  -2.103 -22.849  1.00  0.00     0.217 HD
ENDBRANCH  10  16
BRANCH   8  18
HETATM   18  O4  UNL     1     -19.337  -3.349 -26.227  1.00  0.00    -0.340 OA
ATOM     19  H4  UNL     1     -18.597  -3.371 -25.633  1.00  0.00     0.220 HD
ENDBRANCH   8  18
BRANCH   6  20
HETATM   20  O2  UNL     1     -21.297   0.004 -29.075  1.00  0.00    -0.340 OA
ATOM     21  H2  UNL     1     -20.812  -0.013 -29.890  1.00  0.00     0.220 HD
ENDBRANCH   6  20
TORSDOF 5
ENDMDL
MODEL 3
REMARK VINA RESULT: -7.172474658      1.611      4.249
REMARK  5 active torsions:
REMARK  status: ('A' for Active; 'I' for Inactive)
REMARK    1  A    between atoms: C2_2  and  C4_4 
REMARK    2  A    between atoms: C5_5  and  O1_6 
REMARK    3  A    between atoms: C9_11  and  O2_12 
REMARK    4  A    between atoms: C10_15  and  O4_16 
REMARK    5  A    between atoms: C12_19  and  O5_20 
ROOT
HETATM    1  C4  UNL     1     -21.689  -0.526 -27.456  1.00  0.00     0.037 A 
HETATM    2  C5  UNL     1     -20.911  -1.214 -26.516  1.00  0.00     0.086 A 
HETATM    3  C6  UNL     1     -20.737  -0.758 -25.230  1.00  0.00    -0.012 A 
HETATM    4  C7  UNL     1     -19.921  -1.504 -24.254  1.00  0.00     0.052 C 
HETATM    5  C8  UNL     1     -21.367   0.426 -24.902  1.00  0.00     0.049 A 
HETATM    6  C9  UNL     1     -21.441   1.204 -23.755  1.00  0.00     0.197 A 
HETATM    7  O3  UNL     1     -22.199   2.265 -23.996  1.00  0.00    -0.263 OA
HETATM    8  C10 UNL     1     -22.645   2.260 -25.226  1.00  0.00     0.199 A 
HETATM    9  C11 UNL     1     -22.137   1.120 -25.811  1.00  0.00     0.072 A 
HETATM   10  C12 UNL     1     -22.312   0.651 -27.109  1.00  0.00     0.095 A 
ENDROOT
BRANCH   1  11
HETATM   11  C2  UNL     1     -21.818  -1.123 -28.786  1.00  0.00    -0.056 C 
HETATM   12  C1  UNL     1     -21.239  -0.599 -29.830  1.00  0.00     0.019 C 
HETATM   13  C3  UNL     1     -22.676  -2.335 -29.019  1.00  0.00     0.048 C 
ENDBRANCH   1  11
BRANCH   2  14
HETATM   14  O1  UNL     1     -20.314  -2.390 -26.936  1.00  0.00    -0.359 OA
ATOM     15  H1  UNL     1     -19.804  -2.868 -26.292  1.00  0.00     0.217 HD
ENDBRANCH   2  14
BRANCH  10  16
HETATM   16  O5  UNL     1     -23.100   1.386 -27.976  1.00  0.00    -0.359 OA
ATOM     17  H5  UNL     1     -23.678   2.086 -27.697  1.00  0.00     0.217 HD
ENDBRANCH  10  16
BRANCH   8  18
HETATM   18  O4  UNL     1     -23.473   3.229 -25.815  1.00  0.00    -0.340 OA
ATOM     19  H4  UNL     1     -24.422   3.214 -25.847  1.00  0.00     0.220 HD
ENDBRANCH   8  18
BRANCH   6  20
HETATM   20  O2  UNL     1     -20.804   0.888 -22.562  1.00  0.00    -0.340 OA
ATOM     21  H2  UNL     1     -20.495   0.017 -22.341  1.00  0.00     0.220 HD
ENDBRANCH   6  20
TORSDOF 5
ENDMDL
MODEL 4
REMARK VINA RESULT: -7.167971647      1.648      5.484
REMARK  5 active torsions:
REMARK  status: ('A' for Active; 'I' for Inactive)
REMARK    1  A    between atoms: C2_2  and  C4_4 
REMARK    2  A    between atoms: C5_5  and  O1_6 
REMARK    3  A    between atoms: C9_11  and  O2_12 
REMARK    4  A    between atoms: C10_15  and  O4_16 
REMARK    5  A    between atoms: C12_19  and  O5_20 
ROOT
HETATM    1  C4  UNL     1     -21.235   0.550 -27.453  1.00  0.00     0.037 A 
HETATM    2  C5  UNL     1     -22.015   1.240 -26.517  1.00  0.00     0.086 A 
HETATM    3  C6  UNL     1     -22.204   0.781 -25.235  1.00  0.00    -0.012 A 
HETATM    4  C7  UNL     1     -23.022   1.530 -24.263  1.00  0.00     0.052 C 
HETATM    5  C8  UNL     1     -21.584  -0.408 -24.905  1.00  0.00     0.049 A 
HETATM    6  C9  UNL     1     -21.526  -1.191 -23.760  1.00  0.00     0.197 A 
HETATM    7  O3  UNL     1     -20.773  -2.257 -23.998  1.00  0.00    -0.263 OA
HETATM    8  C10 UNL     1     -20.317  -2.251 -25.225  1.00  0.00     0.199 A 
HETATM    9  C11 UNL     1     -20.812  -1.105 -25.810  1.00  0.00     0.072 A 
HETATM   10  C12 UNL     1     -20.623  -0.634 -27.104  1.00  0.00     0.095 A 
ENDROOT
BRANCH   1  11
HETATM   11  C2  UNL     1     -21.090   1.149 -28.780  1.00  0.00    -0.056 C 
HETATM   12  C1  UNL     1     -21.696   0.656 -29.823  1.00  0.00     0.019 C 
HETATM   13  C3  UNL     1     -20.186   2.328 -29.010  1.00  0.00     0.048 C 
ENDBRANCH   1  11
BRANCH   2  14
HETATM   14  O1  UNL     1     -22.600   2.421 -26.938  1.00  0.00    -0.359 OA
ATOM     15  H1  UNL     1     -22.742   3.091 -26.278  1.00  0.00     0.217 HD
ENDBRANCH   2  14
BRANCH  10  16
HETATM   16  O5  UNL     1     -19.834  -1.371 -27.968  1.00  0.00    -0.359 OA
ATOM     17  H5  UNL     1     -19.138  -1.951 -27.680  1.00  0.00     0.217 HD
ENDBRANCH  10  16
BRANCH   8  18
HETATM   18  O4  UNL     1     -19.492  -3.224 -25.810  1.00  0.00    -0.340 OA
ATOM     19  H4  UNL     1     -18.827  -3.074 -26.472  1.00  0.00     0.220 HD
ENDBRANCH   8  18
BRANCH   6  20
HETATM   20  O2  UNL     1     -22.170  -0.874 -22.571  1.00  0.00    -0.340 OA
ATOM     21  H2  UNL     1     -21.729  -0.793 -21.735  1.00  0.00     0.220 HD
ENDBRANCH   6  20
TORSDOF 5
ENDMDL
MODEL 5
REMARK VINA RESULT: -6.555253524      1.579      5.319
REMARK  5 active torsions:
REMARK  status: ('A' for Active; 'I' for Inactive)
REMARK    1  A    between atoms: C2_2  and  C4_4 
REMARK    2  A    between atoms: C5_5  and  O1_6 
REMARK    3  A    between atoms: C9_11  and  O2_12 
REMARK    4  A    between atoms: C10_15  and  O4_16 
REMARK    5  A    between atoms: C12_19  and  O5_20 
ROOT
HETATM    1  C4  UNL     1     -21.689  -0.539 -27.472  1.00  0.00     0.037 A 
HETATM    2  C5  UNL     1     -22.381   0.639 -27.161  1.00  0.00     0.086 A 
HETATM    3  C6  UNL     1     -22.282   1.248 -25.933  1.00  0.00    -0.012 A 
HETATM    4  C7  UNL     1     -23.012   2.493 -25.631  1.00  0.00     0.052 C 
HETATM    5  C8  UNL     1     -21.461   0.639 -25.004  1.00  0.00     0.049 A 
HETATM    6  C9  UNL     1     -21.101   0.917 -23.692  1.00  0.00     0.197 A 
HETATM    7  O3  UNL     1     -20.265  -0.019 -23.263  1.00  0.00    -0.263 OA
HETATM    8  C10 UNL     1     -20.033  -0.911 -24.191  1.00  0.00     0.199 A 
HETATM    9  C11 UNL     1     -20.771  -0.520 -25.288  1.00  0.00     0.072 A 
HETATM   10  C12 UNL     1     -20.874  -1.130 -26.534  1.00  0.00     0.095 A 
ENDROOT
BRANCH   1  11
HETATM   11  C2  UNL     1     -21.859  -1.081 -28.821  1.00  0.00    -0.056 C 
HETATM   12  C1  UNL     1     -21.273  -0.543 -29.854  1.00  0.00     0.019 C 
HETATM   13  C3  UNL     1     -22.766  -2.250 -29.085  1.00  0.00     0.048 C 
ENDBRANCH   1  11
BRANCH   2  14
HETATM   14  O1  UNL     1     -23.183   1.175 -28.154  1.00  0.00    -0.359 OA
ATOM     15  H1  UNL     1     -24.050   0.799 -28.257  1.00  0.00     0.217 HD
ENDBRANCH   2  14
BRANCH  10  16
HETATM   16  O5  UNL     1     -20.154  -2.288 -26.764  1.00  0.00    -0.359 OA
ATOM     17  H5  UNL     1     -20.154  -3.034 -26.176  1.00  0.00     0.217 HD
ENDBRANCH  10  16
BRANCH   8  18
HETATM   18  O4  UNL     1     -19.199  -2.034 -24.076  1.00  0.00    -0.340 OA
ATOM     19  H4  UNL     1     -19.037  -2.686 -24.747  1.00  0.00     0.220 HD
ENDBRANCH   8  18
BRANCH   6  20
HETATM   20  O2  UNL     1     -21.566   2.012 -22.977  1.00  0.00    -0.340 OA
ATOM     21  H2  UNL     1     -21.037   2.509 -22.365  1.00  0.00     0.220 HD
ENDBRANCH   6  20
TORSDOF 5
ENDMDL
