MODEL 1
REMARK VINA RESULT: -6.290500243      0.000      0.000
REMARK  2 active torsions:
REMARK  status: ('A' for Active; 'I' for Inactive)
REMARK    1  A    between atoms: C1_2  and  C2_4 
REMARK    2  A    between atoms: C3_5  and  O3_6 
ROOT
HETATM    1  C2  UNL     1     -21.064   0.984 -22.279  1.00  0.00     0.112 A 
HETATM    2  C3  UNL     1     -21.269  -0.071 -21.422  1.00  0.00     0.160 A 
HETATM    3  N1  UNL     1     -21.305  -1.199 -22.142  1.00  0.00    -0.321 N 
ATOM      4  H1  UNL     1     -21.446  -2.128 -21.744  1.00  0.00     0.169 HD
HETATM    5  C4  UNL     1     -21.131  -0.955 -23.475  1.00  0.00     0.127 A 
HETATM    6  N2  UNL     1     -21.077  -1.634 -24.588  1.00  0.00    -0.326 N 
ATOM      7  H2  UNL     1     -21.182  -2.648 -24.587  1.00  0.00     0.169 HD
HETATM    8  C5  UNL     1     -20.880  -0.971 -25.730  1.00  0.00     0.145 A 
HETATM    9  S1  UNL     1     -20.774  -1.595 -27.262  1.00  0.00    -0.052 SA
HETATM   10  S2  UNL     1     -20.769   0.654 -25.216  1.00  0.00    -0.056 SA
HETATM   11  C6  UNL     1     -20.982   0.402 -23.544  1.00  0.00     0.073 A 
ENDROOT
BRANCH   1  12
HETATM   12  C1  UNL     1     -20.951   2.399 -21.974  1.00  0.00     0.215 C 
HETATM   13  O1  UNL     1     -21.624   3.199 -22.707  1.00  0.00    -0.644 OA
HETATM   14  O2  UNL     1     -20.171   2.904 -20.959  1.00  0.00    -0.644 OA
ENDBRANCH   1  12
BRANCH   2  15
HETATM   15  O3  UNL     1     -21.413   0.040 -20.023  1.00  0.00    -0.345 OA
ATOM     16  H3  UNL     1     -22.154  -0.286 -19.524  1.00  0.00     0.219 HD
ENDBRANCH   2  15
TORSDOF 2
ENDMDL
MODEL 2
REMARK VINA RESULT: -6.266632457      2.350      3.443
REMARK  2 active torsions:
REMARK  status: ('A' for Active; 'I' for Inactive)
REMARK    1  A    between atoms: C1_2  and  C2_4 
REMARK    2  A    between atoms: C3_5  and  O3_6 
ROOT
HETATM    1  C2  UNL     1     -21.895  -0.983 -22.335  1.00  0.00     0.112 A 
HETATM    2  C3  UNL     1     -21.720   0.082 -21.482  1.00  0.00     0.160 A 
HETATM    3  N1  UNL     1     -21.694   1.205 -22.208  1.00  0.00    -0.321 N 
ATOM      4  H1  UNL     1     -21.575   2.139 -21.814  1.00  0.00     0.169 HD
HETATM    5  C4  UNL     1     -21.846   0.950 -23.542  1.00  0.00     0.127 A 
HETATM    6  N2  UNL     1     -21.898   1.622 -24.661  1.00  0.00    -0.326 N 
ATOM      7  H2  UNL     1     -21.811   2.638 -24.664  1.00  0.00     0.169 HD
HETATM    8  C5  UNL     1     -22.068   0.948 -25.801  1.00  0.00     0.145 A 
HETATM    9  S1  UNL     1     -22.165   1.561 -27.338  1.00  0.00    -0.052 SA
HETATM   10  S2  UNL     1     -22.157  -0.675 -25.278  1.00  0.00    -0.056 SA
HETATM   11  C6  UNL     1     -21.970  -0.409 -23.605  1.00  0.00     0.073 A 
ENDROOT
BRANCH   1  12
HETATM   12  C1  UNL     1     -21.986  -2.397 -22.023  1.00  0.00     0.215 C 
HETATM   13  O1  UNL     1     -21.288  -3.189 -22.741  1.00  0.00    -0.644 OA
HETATM   14  O2  UNL     1     -22.772  -2.910 -21.016  1.00  0.00    -0.644 OA
ENDBRANCH   1  12
BRANCH   2  15
HETATM   15  O3  UNL     1     -21.591  -0.019 -20.081  1.00  0.00    -0.345 OA
ATOM     16  H3  UNL     1     -22.115  -0.586 -19.525  1.00  0.00     0.219 HD
ENDBRANCH   2  15
TORSDOF 2
ENDMDL
MODEL 3
REMARK VINA RESULT: -6.186060768      2.564      3.607
REMARK  2 active torsions:
REMARK  status: ('A' for Active; 'I' for Inactive)
REMARK    1  A    between atoms: C1_2  and  C2_4 
REMARK    2  A    between atoms: C3_5  and  O3_6 
ROOT
HETATM    1  C2  UNL     1     -21.880  -0.740 -22.137  1.00  0.00     0.112 A 
HETATM    2  C3  UNL     1     -21.612   0.199 -21.169  1.00  0.00     0.160 A 
HETATM    3  N1  UNL     1     -21.690   1.413 -21.727  1.00  0.00    -0.321 N 
ATOM      4  H1  UNL     1     -21.533   2.286 -21.222  1.00  0.00     0.169 HD
HETATM    5  C4  UNL     1     -22.004   1.342 -23.055  1.00  0.00     0.127 A 
HETATM    6  N2  UNL     1     -22.203   2.161 -24.052  1.00  0.00    -0.326 N 
ATOM      7  H2  UNL     1     -22.128   3.170 -23.922  1.00  0.00     0.169 HD
HETATM    8  C5  UNL     1     -22.505   1.648 -25.247  1.00  0.00     0.145 A 
HETATM    9  S1  UNL     1     -22.800   2.465 -26.658  1.00  0.00    -0.052 SA
HETATM   10  S2  UNL     1     -22.510  -0.034 -24.952  1.00  0.00    -0.056 SA
HETATM   11  C6  UNL     1     -22.119   0.002 -23.294  1.00  0.00     0.073 A 
ENDROOT
BRANCH   1  12
HETATM   12  C1  UNL     1     -21.916  -2.187 -22.019  1.00  0.00     0.215 C 
HETATM   13  O1  UNL     1     -22.639  -2.668 -21.083  1.00  0.00    -0.644 OA
HETATM   14  O2  UNL     1     -21.224  -3.040 -22.848  1.00  0.00    -0.644 OA
ENDBRANCH   1  12
BRANCH   2  15
HETATM   15  O3  UNL     1     -21.309  -0.091 -19.823  1.00  0.00    -0.345 OA
ATOM     16  H3  UNL     1     -20.528  -0.545 -19.526  1.00  0.00     0.219 HD
ENDBRANCH   2  15
TORSDOF 2
ENDMDL
MODEL 4
REMARK VINA RESULT: -6.157806699      1.710      2.731
REMARK  2 active torsions:
REMARK  status: ('A' for Active; 'I' for Inactive)
REMARK    1  A    between atoms: C1_2  and  C2_4 
REMARK    2  A    between atoms: C3_5  and  O3_6 
ROOT
HETATM    1  C2  UNL     1     -21.566   0.592 -22.452  1.00  0.00     0.112 A 
HETATM    2  C3  UNL     1     -21.555   1.961 -22.583  1.00  0.00     0.160 A 
HETATM    3  N1  UNL     1     -21.413   2.260 -23.879  1.00  0.00    -0.321 N 
ATOM      4  H1  UNL     1     -21.376   3.211 -24.246  1.00  0.00     0.169 HD
HETATM    5  C4  UNL     1     -21.325   1.136 -24.652  1.00  0.00     0.127 A 
HETATM    6  N2  UNL     1     -21.186   0.833 -25.914  1.00  0.00    -0.326 N 
ATOM      7  H2  UNL     1     -21.110   1.564 -26.621  1.00  0.00     0.169 HD
HETATM    8  C5  UNL     1     -21.144  -0.456 -26.259  1.00  0.00     0.145 A 
HETATM    9  S1  UNL     1     -20.975  -1.097 -27.778  1.00  0.00    -0.052 SA
HETATM   10  S2  UNL     1     -21.307  -1.259 -24.760  1.00  0.00    -0.056 SA
HETATM   11  C6  UNL     1     -21.422   0.111 -23.753  1.00  0.00     0.073 A 
ENDROOT
BRANCH   1  12
HETATM   12  C1  UNL     1     -21.696  -0.209 -21.248  1.00  0.00     0.215 C 
HETATM   13  O1  UNL     1     -21.274   0.314 -20.163  1.00  0.00    -0.644 OA
HETATM   14  O2  UNL     1     -22.239  -1.474 -21.225  1.00  0.00    -0.644 OA
ENDBRANCH   1  12
BRANCH   2  15
HETATM   15  O3  UNL     1     -21.675   2.875 -21.515  1.00  0.00    -0.345 OA
ATOM     16  H3  UNL     1     -22.492   3.262 -21.219  1.00  0.00     0.219 HD
ENDBRANCH   2  15
TORSDOF 2
ENDMDL
MODEL 5
REMARK VINA RESULT: -6.139248126      1.600      2.118
REMARK  2 active torsions:
REMARK  status: ('A' for Active; 'I' for Inactive)
REMARK    1  A    between atoms: C1_2  and  C2_4 
REMARK    2  A    between atoms: C3_5  and  O3_6 
ROOT
HETATM    1  C2  UNL     1     -21.676  -0.369 -22.272  1.00  0.00     0.112 A 
HETATM    2  C3  UNL     1     -22.310  -1.589 -22.266  1.00  0.00     0.160 A 
HETATM    3  N1  UNL     1     -22.580  -1.930 -23.532  1.00  0.00    -0.321 N 
ATOM      4  H1  UNL     1     -23.049  -2.795 -23.804  1.00  0.00     0.169 HD
HETATM    5  C4  UNL     1     -22.151  -0.981 -24.416  1.00  0.00     0.127 A 
HETATM    6  N2  UNL     1     -22.144  -0.786 -25.706  1.00  0.00    -0.326 N 
ATOM      7  H2  UNL     1     -22.549  -1.475 -26.340  1.00  0.00     0.169 HD
HETATM    8  C5  UNL     1     -21.596   0.335 -26.179  1.00  0.00     0.145 A 
HETATM    9  S1  UNL     1     -21.463   0.813 -27.760  1.00  0.00    -0.052 SA
HETATM   10  S2  UNL     1     -21.076   1.134 -24.762  1.00  0.00    -0.056 SA
HETATM   11  C6  UNL     1     -21.593  -0.020 -23.620  1.00  0.00     0.073 A 
ENDROOT
BRANCH   1  12
HETATM   12  C1  UNL     1     -21.187   0.411 -21.149  1.00  0.00     0.215 C 
HETATM   13  O1  UNL     1     -21.437  -0.044 -19.983  1.00  0.00    -0.644 OA
HETATM   14  O2  UNL     1     -20.487   1.588 -21.282  1.00  0.00    -0.644 OA
ENDBRANCH   1  12
BRANCH   2  15
HETATM   15  O3  UNL     1     -22.613  -2.337 -21.109  1.00  0.00    -0.345 OA
ATOM     16  H3  UNL     1     -23.353  -2.927 -21.020  1.00  0.00     0.219 HD
ENDBRANCH   2  15
TORSDOF 2
ENDMDL
