MODEL 1
REMARK VINA RESULT: -5.735636979      0.000      0.000
REMARK  1 active torsions:
REMARK  status: ('A' for Active; 'I' for Inactive)
REMARK    1  A    between atoms: C2_2  and  C3_3 
ROOT
HETATM    1  C3  UNL     1     -21.337   1.281 -28.694  1.00  0.00     0.197 A 
HETATM    2  N1  UNL     1     -20.956  -0.023 -29.117  1.00  0.00    -0.312 N 
ATOM      3  H1  UNL     1     -20.865  -0.170 -30.122  1.00  0.00     0.182 HD
HETATM    4  N2  UNL     1     -20.719  -1.016 -28.375  1.00  0.00    -0.286 N 
ATOM      5  H2  UNL     1     -20.454  -1.899 -28.812  1.00  0.00     0.188 HD
HETATM    6  C4  UNL     1     -20.803  -0.960 -26.968  1.00  0.00     0.150 A 
HETATM    7  N3  UNL     1     -20.611  -1.836 -25.956  1.00  0.00    -0.324 N 
ATOM      8  H3  UNL     1     -20.336  -2.812 -26.068  1.00  0.00     0.169 HD
HETATM    9  C5  UNL     1     -20.837  -1.230 -24.785  1.00  0.00     0.138 A 
HETATM   10  N4  UNL     1     -20.859  -1.386 -23.468  1.00  0.00    -0.317 N 
ATOM     11  H4  UNL     1     -20.644  -2.255 -22.979  1.00  0.00     0.170 HD
HETATM   12  C6  UNL     1     -21.211  -0.216 -22.861  1.00  0.00     0.178 A 
HETATM   13  S1  UNL     1     -21.364   0.055 -21.280  1.00  0.00    -0.040 SA
HETATM   14  N5  UNL     1     -21.414   0.689 -23.826  1.00  0.00    -0.328 N 
ATOM     15  H5  UNL     1     -21.690   1.661 -23.687  1.00  0.00     0.168 HD
HETATM   16  C7  UNL     1     -21.191   0.096 -25.007  1.00  0.00     0.109 A 
HETATM   17  C8  UNL     1     -21.163   0.240 -26.395  1.00  0.00     0.106 A 
HETATM   18  N6  UNL     1     -21.425   1.344 -27.248  1.00  0.00    -0.363 N 
ATOM     19  H6  UNL     1     -21.690   2.231 -26.820  1.00  0.00     0.162 HD
ENDROOT
BRANCH   1  20
HETATM   20  C2  UNL     1     -20.457   2.376 -29.249  1.00  0.00     0.043 C 
HETATM   21  C1  UNL     1     -19.008   2.183 -28.906  1.00  0.00     0.009 C 
ENDBRANCH   1  20
TORSDOF 1
ENDMDL
MODEL 2
REMARK VINA RESULT: -5.714401351      1.723      2.972
REMARK  1 active torsions:
REMARK  status: ('A' for Active; 'I' for Inactive)
REMARK    1  A    between atoms: C2_2  and  C3_3 
ROOT
HETATM    1  C3  UNL     1     -21.589  -1.206 -28.717  1.00  0.00     0.197 A 
HETATM    2  N1  UNL     1     -21.973   0.103 -29.122  1.00  0.00    -0.312 N 
ATOM      3  H1  UNL     1     -22.054   0.266 -30.126  1.00  0.00     0.182 HD
HETATM    4  N2  UNL     1     -22.223   1.083 -28.367  1.00  0.00    -0.286 N 
ATOM      5  H2  UNL     1     -22.488   1.970 -28.793  1.00  0.00     0.188 HD
HETATM    6  C4  UNL     1     -22.152   1.004 -26.961  1.00  0.00     0.150 A 
HETATM    7  N3  UNL     1     -22.360   1.863 -25.936  1.00  0.00    -0.324 N 
ATOM      8  H3  UNL     1     -22.639   2.839 -26.036  1.00  0.00     0.169 HD
HETATM    9  C5  UNL     1     -22.143   1.239 -24.773  1.00  0.00     0.138 A 
HETATM   10  N4  UNL     1     -22.135   1.374 -23.453  1.00  0.00    -0.317 N 
ATOM     11  H4  UNL     1     -22.360   2.233 -22.953  1.00  0.00     0.170 HD
HETATM   12  C6  UNL     1     -21.783   0.196 -22.862  1.00  0.00     0.178 A 
HETATM   13  S1  UNL     1     -21.645  -0.099 -21.284  1.00  0.00    -0.040 SA
HETATM   14  N5  UNL     1     -21.566  -0.692 -23.840  1.00  0.00    -0.328 N 
ATOM     15  H5  UNL     1     -21.286  -1.665 -23.713  1.00  0.00     0.168 HD
HETATM   16  C7  UNL     1     -21.779  -0.082 -25.013  1.00  0.00     0.109 A 
HETATM   17  C8  UNL     1     -21.792  -0.203 -26.403  1.00  0.00     0.106 A 
HETATM   18  N6  UNL     1     -21.515  -1.292 -27.271  1.00  0.00    -0.363 N 
ATOM     19  H6  UNL     1     -21.250  -2.184 -26.854  1.00  0.00     0.162 HD
ENDROOT
BRANCH   1  20
HETATM   20  C2  UNL     1     -22.457  -2.297 -29.298  1.00  0.00     0.043 C 
HETATM   21  C1  UNL     1     -23.901  -2.154 -28.911  1.00  0.00     0.009 C 
ENDBRANCH   1  20
TORSDOF 1
ENDMDL
MODEL 3
REMARK VINA RESULT: -5.678728744      2.771      5.140
REMARK  1 active torsions:
REMARK  status: ('A' for Active; 'I' for Inactive)
REMARK    1  A    between atoms: C2_2  and  C3_3 
ROOT
HETATM    1  C3  UNL     1     -20.488   0.244 -23.037  1.00  0.00     0.197 A 
HETATM    2  N1  UNL     1     -21.493  -0.762 -23.082  1.00  0.00    -0.312 N 
ATOM      3  H1  UNL     1     -21.742  -1.201 -22.196  1.00  0.00     0.182 HD
HETATM    4  N2  UNL     1     -22.110  -1.165 -24.107  1.00  0.00    -0.286 N 
ATOM      5  H2  UNL     1     -22.812  -1.897 -23.996  1.00  0.00     0.188 HD
HETATM    6  C4  UNL     1     -21.873  -0.649 -25.397  1.00  0.00     0.150 A 
HETATM    7  N3  UNL     1     -22.367  -0.882 -26.634  1.00  0.00    -0.324 N 
ATOM      8  H3  UNL     1     -23.092  -1.565 -26.858  1.00  0.00     0.169 HD
HETATM    9  C5  UNL     1     -21.763  -0.083 -27.521  1.00  0.00     0.138 A 
HETATM   10  N4  UNL     1     -21.691   0.263 -28.799  1.00  0.00    -0.317 N 
ATOM     11  H4  UNL     1     -22.253  -0.145 -29.546  1.00  0.00     0.170 HD
HETATM   12  C6  UNL     1     -20.757   1.243 -28.971  1.00  0.00     0.178 A 
HETATM   13  S1  UNL     1     -20.340   1.960 -30.352  1.00  0.00    -0.040 SA
HETATM   14  N5  UNL     1     -20.236   1.511 -27.768  1.00  0.00    -0.328 N 
ATOM     15  H5  UNL     1     -19.510   2.200 -27.571  1.00  0.00     0.168 HD
HETATM   16  C7  UNL     1     -20.832   0.718 -26.868  1.00  0.00     0.109 A 
HETATM   17  C8  UNL     1     -20.921   0.339 -25.527  1.00  0.00     0.106 A 
HETATM   18  N6  UNL     1     -20.240   0.779 -24.362  1.00  0.00    -0.363 N 
ATOM     19  H6  UNL     1     -19.537   1.511 -24.462  1.00  0.00     0.162 HD
ENDROOT
BRANCH   1  20
HETATM   20  C2  UNL     1     -20.774   1.339 -22.036  1.00  0.00     0.043 C 
HETATM   21  C1  UNL     1     -21.074   2.656 -22.691  1.00  0.00     0.009 C 
ENDBRANCH   1  20
TORSDOF 1
ENDMDL
MODEL 4
REMARK VINA RESULT: -5.663790893      2.978      5.508
REMARK  1 active torsions:
REMARK  status: ('A' for Active; 'I' for Inactive)
REMARK    1  A    between atoms: C2_2  and  C3_3 
ROOT
HETATM    1  C3  UNL     1     -22.345  -0.207 -23.060  1.00  0.00     0.197 A 
HETATM    2  N1  UNL     1     -21.320   0.777 -23.134  1.00  0.00    -0.312 N 
ATOM      3  H1  UNL     1     -21.044   1.218 -22.257  1.00  0.00     0.182 HD
HETATM    4  N2  UNL     1     -20.718   1.161 -24.176  1.00  0.00    -0.286 N 
ATOM      5  H2  UNL     1     -19.999   1.879 -24.086  1.00  0.00     0.188 HD
HETATM    6  C4  UNL     1     -20.994   0.640 -25.457  1.00  0.00     0.150 A 
HETATM    7  N3  UNL     1     -20.522   0.854 -26.706  1.00  0.00    -0.324 N 
ATOM      8  H3  UNL     1     -19.789   1.520 -26.950  1.00  0.00     0.169 HD
HETATM    9  C5  UNL     1     -21.162   0.061 -27.573  1.00  0.00     0.138 A 
HETATM   10  N4  UNL     1     -21.268  -0.292 -28.847  1.00  0.00    -0.317 N 
ATOM     11  H4  UNL     1     -20.715   0.098 -29.609  1.00  0.00     0.170 HD
HETATM   12  C6  UNL     1     -22.226  -1.254 -28.990  1.00  0.00     0.178 A 
HETATM   13  S1  UNL     1     -22.688  -1.973 -30.357  1.00  0.00    -0.040 SA
HETATM   14  N5  UNL     1     -22.726  -1.503 -27.775  1.00  0.00    -0.328 N 
ATOM     15  H5  UNL     1     -23.461  -2.175 -27.556  1.00  0.00     0.168 HD
HETATM   16  C7  UNL     1     -22.095  -0.715 -26.894  1.00  0.00     0.109 A 
HETATM   17  C8  UNL     1     -21.968  -0.329 -25.558  1.00  0.00     0.106 A 
HETATM   18  N6  UNL     1     -22.633  -0.746 -24.375  1.00  0.00    -0.363 N 
ATOM     19  H6  UNL     1     -23.353  -1.464 -24.455  1.00  0.00     0.162 HD
ENDROOT
BRANCH   1  20
HETATM   20  C2  UNL     1     -22.060  -1.300 -22.058  1.00  0.00     0.043 C 
HETATM   21  C1  UNL     1     -21.878  -2.643 -22.703  1.00  0.00     0.009 C 
ENDBRANCH   1  20
TORSDOF 1
ENDMDL
MODEL 5
REMARK VINA RESULT: -5.610892756      1.466      1.739
REMARK  1 active torsions:
REMARK  status: ('A' for Active; 'I' for Inactive)
REMARK    1  A    between atoms: C2_2  and  C3_3 
ROOT
HETATM    1  C3  UNL     1     -22.078  -0.472 -28.642  1.00  0.00     0.197 A 
HETATM    2  N1  UNL     1     -21.431  -1.703 -28.343  1.00  0.00    -0.312 N 
ATOM      3  H1  UNL     1     -21.412  -2.403 -29.084  1.00  0.00     0.182 HD
HETATM    4  N2  UNL     1     -20.879  -2.019 -27.252  1.00  0.00    -0.286 N 
ATOM      5  H2  UNL     1     -20.450  -2.941 -27.172  1.00  0.00     0.188 HD
HETATM    6  C4  UNL     1     -20.827  -1.153 -26.140  1.00  0.00     0.150 A 
HETATM    7  N3  UNL     1     -20.319  -1.221 -24.889  1.00  0.00    -0.324 N 
ATOM      8  H3  UNL     1     -19.823  -2.023 -24.500  1.00  0.00     0.169 HD
HETATM    9  C5  UNL     1     -20.564  -0.078 -24.238  1.00  0.00     0.138 A 
HETATM   10  N4  UNL     1     -20.409   0.575 -23.095  1.00  0.00    -0.317 N 
ATOM     11  H4  UNL     1     -19.935   0.206 -22.271  1.00  0.00     0.170 HD
HETATM   12  C6  UNL     1     -20.975   1.814 -23.180  1.00  0.00     0.178 A 
HETATM   13  S1  UNL     1     -21.024   2.944 -22.032  1.00  0.00    -0.040 SA
HETATM   14  N5  UNL     1     -21.495   1.931 -24.407  1.00  0.00    -0.328 N 
ATOM     15  H5  UNL     1     -21.988   2.746 -24.772  1.00  0.00     0.168 HD
HETATM   16  C7  UNL     1     -21.258   0.793 -25.072  1.00  0.00     0.109 A 
HETATM   17  C8  UNL     1     -21.411   0.089 -26.267  1.00  0.00     0.106 A 
HETATM   18  N6  UNL     1     -22.027   0.423 -27.502  1.00  0.00    -0.363 N 
ATOM     19  H6  UNL     1     -22.458   1.343 -27.592  1.00  0.00     0.162 HD
ENDROOT
BRANCH   1  20
HETATM   20  C2  UNL     1     -21.560   0.192 -29.896  1.00  0.00     0.043 C 
HETATM   21  C1  UNL     1     -20.755   1.426 -29.608  1.00  0.00     0.009 C 
ENDBRANCH   1  20
TORSDOF 1
ENDMDL
