MODEL 1
REMARK VINA RESULT: -7.785990079      0.000      0.000
REMARK  4 active torsions:
REMARK  status: ('A' for Active; 'I' for Inactive)
REMARK    1  A    between atoms: C3_3  and  O1_4 
REMARK    2  A    between atoms: C6_10  and  O2_11 
REMARK    3  A    between atoms: C7_13  and  N2_14 
REMARK    4  A    between atoms: N2_14  and  O3_16 
ROOT
HETATM    1  C1  UNL     1     -20.607  -1.259 -27.817  1.00  0.00     0.052 C 
HETATM    2  C2  UNL     1     -20.632  -1.178 -26.303  1.00  0.00    -0.022 A 
HETATM    3  C3  UNL     1     -20.211  -2.252 -25.565  1.00  0.00     0.074 A 
HETATM    4  C4  UNL     1     -20.223  -2.206 -24.196  1.00  0.00     0.067 A 
HETATM    5  C5  UNL     1     -20.669  -1.052 -23.563  1.00  0.00     0.050 A 
HETATM    6  N1  UNL     1     -20.688  -0.987 -22.214  1.00  0.00    -0.334 N 
ATOM      7  H1  UNL     1     -20.374  -1.786 -21.663  1.00  0.00     0.168 HD
HETATM    8  C6  UNL     1     -21.117   0.118 -21.599  1.00  0.00     0.172 A 
HETATM    9  C7  UNL     1     -21.551   1.224 -22.296  1.00  0.00     0.132 A 
HETATM   10  C8  UNL     1     -21.520   1.132 -23.683  1.00  0.00     0.072 A 
HETATM   11  N3  UNL     1     -21.923   2.159 -24.323  1.00  0.00    -0.396 N 
ATOM     12  H31 UNL     1     -21.901   2.092 -25.340  1.00  0.00     0.156 HD
ATOM     13  H32 UNL     1     -22.248   2.998 -23.842  1.00  0.00     0.156 HD
HETATM   14  C9  UNL     1     -21.088   0.016 -24.324  1.00  0.00     0.026 A 
HETATM   15  C10 UNL     1     -21.086  -0.004 -25.729  1.00  0.00    -0.038 A 
HETATM   16  C11 UNL     1     -21.530   1.126 -26.561  1.00  0.00     0.050 C 
ENDROOT
BRANCH   9  17
HETATM   17  N2  UNL     1     -22.008   2.406 -21.647  1.00  0.00    -0.263 N 
ATOM     18  H2  UNL     1     -22.891   2.413 -21.137  1.00  0.00     0.194 HD
BRANCH  17  19
HETATM   19  O3  UNL     1     -21.309   3.424 -21.716  1.00  0.00    -0.289 OA
ATOM     20  H3  UNL     1     -20.516   3.394 -22.239  1.00  0.00     0.244 HD
ENDBRANCH  17  19
ENDBRANCH   9  17
BRANCH   8  21
HETATM   21  O2  UNL     1     -21.130   0.165 -20.217  1.00  0.00    -0.344 OA
ATOM     22  H2  UNL     1     -21.911   0.464 -19.767  1.00  0.00     0.219 HD
ENDBRANCH   8  21
BRANCH   3  23
HETATM   23  O1  UNL     1     -19.773  -3.381 -26.239  1.00  0.00    -0.360 OA
ATOM     24  H1  UNL     1     -20.338  -3.754 -26.906  1.00  0.00     0.217 HD
ENDBRANCH   3  23
TORSDOF 4
ENDMDL
MODEL 2
REMARK VINA RESULT: -7.709415298      2.041      3.858
REMARK  4 active torsions:
REMARK  status: ('A' for Active; 'I' for Inactive)
REMARK    1  A    between atoms: C3_3  and  O1_4 
REMARK    2  A    between atoms: C6_10  and  O2_11 
REMARK    3  A    between atoms: C7_13  and  N2_14 
REMARK    4  A    between atoms: N2_14  and  O3_16 
ROOT
HETATM    1  C1  UNL     1     -22.320   1.223 -27.765  1.00  0.00     0.052 C 
HETATM    2  C2  UNL     1     -22.306   1.110 -26.254  1.00  0.00    -0.022 A 
HETATM    3  C3  UNL     1     -22.711   2.175 -25.495  1.00  0.00     0.074 A 
HETATM    4  C4  UNL     1     -22.708   2.100 -24.127  1.00  0.00     0.067 A 
HETATM    5  C5  UNL     1     -22.288   0.924 -23.517  1.00  0.00     0.050 A 
HETATM    6  N1  UNL     1     -22.279   0.830 -22.169  1.00  0.00    -0.334 N 
ATOM      7  H1  UNL     1     -22.580   1.623 -21.603  1.00  0.00     0.168 HD
HETATM    8  C6  UNL     1     -21.876  -0.296 -21.576  1.00  0.00     0.172 A 
HETATM    9  C7  UNL     1     -21.459  -1.395 -22.293  1.00  0.00     0.132 A 
HETATM   10  C8  UNL     1     -21.479  -1.273 -23.679  1.00  0.00     0.072 A 
HETATM   11  N3  UNL     1     -21.092  -2.294 -24.338  1.00  0.00    -0.396 N 
ATOM     12  H31 UNL     1     -21.107  -2.205 -25.354  1.00  0.00     0.156 HD
ATOM     13  H32 UNL     1     -20.787  -3.149 -23.873  1.00  0.00     0.156 HD
HETATM   14  C9  UNL     1     -21.886  -0.135 -24.298  1.00  0.00     0.026 A 
HETATM   15  C10 UNL     1     -21.878  -0.086 -25.703  1.00  0.00    -0.038 A 
HETATM   16  C11 UNL     1     -21.451  -1.206 -26.556  1.00  0.00     0.050 C 
ENDROOT
BRANCH   9  17
HETATM   17  N2  UNL     1     -21.029  -2.600 -21.667  1.00  0.00    -0.263 N 
ATOM     18  H2  UNL     1     -20.112  -2.659 -21.225  1.00  0.00     0.194 HD
BRANCH  17  19
HETATM   19  O3  UNL     1     -21.794  -3.572 -21.673  1.00  0.00    -0.289 OA
ATOM     20  H3  UNL     1     -21.631  -4.273 -22.295  1.00  0.00     0.244 HD
ENDBRANCH  17  19
ENDBRANCH   9  17
BRANCH   8  21
HETATM   21  O2  UNL     1     -21.873  -0.373 -20.195  1.00  0.00    -0.344 OA
ATOM     22  H2  UNL     1     -22.575  -0.834 -19.752  1.00  0.00     0.219 HD
ENDBRANCH   8  21
BRANCH   3  23
HETATM   23  O1  UNL     1     -23.122   3.326 -26.147  1.00  0.00    -0.360 OA
ATOM     24  H1  UNL     1     -24.015   3.624 -26.015  1.00  0.00     0.217 HD
ENDBRANCH   3  23
TORSDOF 4
ENDMDL
MODEL 3
REMARK VINA RESULT: -7.669981112      1.793      2.438
REMARK  4 active torsions:
REMARK  status: ('A' for Active; 'I' for Inactive)
REMARK    1  A    between atoms: C3_3  and  O1_4 
REMARK    2  A    between atoms: C6_10  and  O2_11 
REMARK    3  A    between atoms: C7_13  and  N2_14 
REMARK    4  A    between atoms: N2_14  and  O3_16 
ROOT
HETATM    1  C1  UNL     1     -21.590   1.580 -27.896  1.00  0.00     0.052 C 
HETATM    2  C2  UNL     1     -21.407   0.526 -26.822  1.00  0.00    -0.022 A 
HETATM    3  C3  UNL     1     -20.803  -0.662 -27.140  1.00  0.00     0.074 A 
HETATM    4  C4  UNL     1     -20.625  -1.631 -26.189  1.00  0.00     0.067 A 
HETATM    5  C5  UNL     1     -21.066  -1.393 -24.892  1.00  0.00     0.050 A 
HETATM    6  N1  UNL     1     -20.900  -2.337 -23.940  1.00  0.00    -0.334 N 
ATOM      7  H1  UNL     1     -20.450  -3.222 -24.175  1.00  0.00     0.168 HD
HETATM    8  C6  UNL     1     -21.322  -2.116 -22.692  1.00  0.00     0.172 A 
HETATM    9  C7  UNL     1     -21.935  -0.940 -22.322  1.00  0.00     0.132 A 
HETATM   10  C8  UNL     1     -22.094   0.015 -23.321  1.00  0.00     0.072 A 
HETATM   11  N3  UNL     1     -22.661   1.103 -22.972  1.00  0.00    -0.396 N 
ATOM     12  H31 UNL     1     -22.778   1.803 -23.704  1.00  0.00     0.156 HD
ATOM     13  H32 UNL     1     -22.979   1.260 -22.016  1.00  0.00     0.156 HD
HETATM   14  C9  UNL     1     -21.670  -0.193 -24.594  1.00  0.00     0.026 A 
HETATM   15  C10 UNL     1     -21.866   0.819 -25.550  1.00  0.00    -0.038 A 
HETATM   16  C11 UNL     1     -22.509   2.108 -25.252  1.00  0.00     0.050 C 
ENDROOT
BRANCH   9  17
HETATM   17  N2  UNL     1     -22.386  -0.697 -20.994  1.00  0.00    -0.263 N 
ATOM     18  H2  UNL     1     -23.323  -0.976 -20.702  1.00  0.00     0.194 HD
BRANCH  17  19
HETATM   19  O3  UNL     1     -21.616  -0.140 -20.202  1.00  0.00    -0.289 OA
ATOM     20  H3  UNL     1     -20.809  -0.583 -19.968  1.00  0.00     0.244 HD
ENDBRANCH  17  19
ENDBRANCH   9  17
BRANCH   8  21
HETATM   21  O2  UNL     1     -21.143  -3.095 -21.731  1.00  0.00    -0.344 OA
ATOM     22  H2  UNL     1     -21.837  -3.723 -21.570  1.00  0.00     0.219 HD
ENDBRANCH   8  21
BRANCH   3  23
HETATM   23  O1  UNL     1     -20.379  -0.853 -28.444  1.00  0.00    -0.360 OA
ATOM     24  H1  UNL     1     -20.505  -1.709 -28.838  1.00  0.00     0.217 HD
ENDBRANCH   3  23
TORSDOF 4
ENDMDL
MODEL 4
REMARK VINA RESULT: -7.654309819      1.650      3.090
REMARK  4 active torsions:
REMARK  status: ('A' for Active; 'I' for Inactive)
REMARK    1  A    between atoms: C3_3  and  O1_4 
REMARK    2  A    between atoms: C6_10  and  O2_11 
REMARK    3  A    between atoms: C7_13  and  N2_14 
REMARK    4  A    between atoms: N2_14  and  O3_16 
ROOT
HETATM    1  C1  UNL     1     -21.263  -1.539 -27.934  1.00  0.00     0.052 C 
HETATM    2  C2  UNL     1     -21.471  -0.495 -26.855  1.00  0.00    -0.022 A 
HETATM    3  C3  UNL     1     -22.088   0.687 -27.171  1.00  0.00     0.074 A 
HETATM    4  C4  UNL     1     -22.289   1.647 -26.215  1.00  0.00     0.067 A 
HETATM    5  C5  UNL     1     -21.858   1.407 -24.916  1.00  0.00     0.050 A 
HETATM    6  N1  UNL     1     -22.047   2.342 -23.959  1.00  0.00    -0.334 N 
ATOM      7  H1  UNL     1     -22.507   3.222 -24.193  1.00  0.00     0.168 HD
HETATM    8  C6  UNL     1     -21.634   2.119 -22.709  1.00  0.00     0.172 A 
HETATM    9  C7  UNL     1     -21.009   0.948 -22.341  1.00  0.00     0.132 A 
HETATM   10  C8  UNL     1     -20.827   0.002 -23.343  1.00  0.00     0.072 A 
HETATM   11  N3  UNL     1     -20.248  -1.080 -22.997  1.00  0.00    -0.396 N 
ATOM     12  H31 UNL     1     -20.114  -1.774 -23.732  1.00  0.00     0.156 HD
ATOM     13  H32 UNL     1     -19.937  -1.238 -22.038  1.00  0.00     0.156 HD
HETATM   14  C9  UNL     1     -21.240   0.213 -24.619  1.00  0.00     0.026 A 
HETATM   15  C10 UNL     1     -21.021  -0.790 -25.580  1.00  0.00    -0.038 A 
HETATM   16  C11 UNL     1     -20.363  -2.072 -25.284  1.00  0.00     0.050 C 
ENDROOT
BRANCH   9  17
HETATM   17  N2  UNL     1     -20.567   0.703 -21.009  1.00  0.00    -0.263 N 
ATOM     18  H2  UNL     1     -19.631   0.975 -20.712  1.00  0.00     0.194 HD
BRANCH  17  19
HETATM   19  O3  UNL     1     -21.346   0.151 -20.222  1.00  0.00    -0.289 OA
ATOM     20  H3  UNL     1     -21.032  -0.067 -19.352  1.00  0.00     0.244 HD
ENDBRANCH  17  19
ENDBRANCH   9  17
BRANCH   8  21
HETATM   21  O2  UNL     1     -21.837   3.088 -21.743  1.00  0.00    -0.344 OA
ATOM     22  H2  UNL     1     -21.107   3.369 -21.205  1.00  0.00     0.219 HD
ENDBRANCH   8  21
BRANCH   3  23
HETATM   23  O1  UNL     1     -22.502   0.881 -28.478  1.00  0.00    -0.360 OA
ATOM     24  H1  UNL     1     -23.029   1.648 -28.675  1.00  0.00     0.217 HD
ENDBRANCH   3  23
TORSDOF 4
ENDMDL
MODEL 5
REMARK VINA RESULT: -6.639117509      2.075      4.896
REMARK  4 active torsions:
REMARK  status: ('A' for Active; 'I' for Inactive)
REMARK    1  A    between atoms: C3_3  and  O1_4 
REMARK    2  A    between atoms: C6_10  and  O2_11 
REMARK    3  A    between atoms: C7_13  and  N2_14 
REMARK    4  A    between atoms: N2_14  and  O3_16 
ROOT
HETATM    1  C1  UNL     1     -21.759   2.951 -22.372  1.00  0.00     0.052 C 
HETATM    2  C2  UNL     1     -21.227   1.659 -22.961  1.00  0.00    -0.022 A 
HETATM    3  C3  UNL     1     -20.439   0.843 -22.193  1.00  0.00     0.074 A 
HETATM    4  C4  UNL     1     -19.946  -0.330 -22.699  1.00  0.00     0.067 A 
HETATM    5  C5  UNL     1     -20.256  -0.684 -24.007  1.00  0.00     0.050 A 
HETATM    6  N1  UNL     1     -19.779  -1.837 -24.525  1.00  0.00    -0.334 N 
ATOM      7  H1  UNL     1     -19.193  -2.445 -23.954  1.00  0.00     0.168 HD
HETATM    8  C6  UNL     1     -20.072  -2.182 -25.781  1.00  0.00     0.172 A 
HETATM    9  C7  UNL     1     -20.859  -1.397 -26.594  1.00  0.00     0.132 A 
HETATM   10  C8  UNL     1     -21.338  -0.216 -26.037  1.00  0.00     0.072 A 
HETATM   11  N3  UNL     1     -22.066   0.507 -26.794  1.00  0.00    -0.396 N 
ATOM     12  H31 UNL     1     -22.417   1.373 -26.386  1.00  0.00     0.156 HD
ATOM     13  H32 UNL     1     -22.283   0.231 -27.752  1.00  0.00     0.156 HD
HETATM   14  C9  UNL     1     -21.050   0.150 -24.762  1.00  0.00     0.026 A 
HETATM   15  C10 UNL     1     -21.569   1.359 -24.268  1.00  0.00    -0.038 A 
HETATM   16  C11 UNL     1     -22.418   2.265 -25.057  1.00  0.00     0.050 C 
ENDROOT
BRANCH   9  17
HETATM   17  N2  UNL     1     -21.176  -1.760 -27.934  1.00  0.00    -0.263 N 
ATOM     18  H2  UNL     1     -21.699  -2.613 -28.134  1.00  0.00     0.194 HD
BRANCH  17  19
HETATM   19  O3  UNL     1     -20.802  -1.017 -28.850  1.00  0.00    -0.289 OA
ATOM     20  H3  UNL     1     -20.500  -1.413 -29.659  1.00  0.00     0.244 HD
ENDBRANCH  17  19
ENDBRANCH   9  17
BRANCH   8  21
HETATM   21  O2  UNL     1     -19.574  -3.366 -26.293  1.00  0.00    -0.344 OA
ATOM     22  H2  UNL     1     -18.860  -3.805 -25.846  1.00  0.00     0.219 HD
ENDBRANCH   8  21
BRANCH   3  23
HETATM   23  O1  UNL     1     -20.158   1.236 -20.894  1.00  0.00    -0.360 OA
ATOM     24  H1  UNL     1     -20.352   0.629 -20.189  1.00  0.00     0.217 HD
ENDBRANCH   3  23
TORSDOF 4
ENDMDL
