MODEL 1
REMARK VINA RESULT: -8.486770761      0.000      0.000
REMARK  2 active torsions:
REMARK  status: ('A' for Active; 'I' for Inactive)
REMARK    1  A    between atoms: C3_5  and  C4_6 
REMARK    2  A    between atoms: N1_12  and  C8_13 
ROOT
HETATM    1  O1  UNL     1      46.505  62.554  83.558  1.00  0.00    -0.272 OA
HETATM    2  C1  UNL     1      46.759  61.737  82.636  1.00  0.00     0.234 C 
HETATM    3  C2  UNL     1      47.881  60.774  82.780  1.00  0.00     0.179 C 
HETATM    4  S1  UNL     1      48.326  60.525  81.025  1.00  0.00    -0.129 SA
HETATM    5  C3  UNL     1      47.049  61.611  80.331  1.00  0.00     0.191 C 
HETATM    6  N1  UNL     1      46.050  61.644  81.431  1.00  0.00    -0.306 N 
ENDROOT
BRANCH   6   7
HETATM    7  C8  UNL     1      44.625  61.599  81.226  1.00  0.00     0.002 C 
HETATM    8  C9  UNL     1      43.836  60.658  82.057  1.00  0.00     0.033 C 
HETATM    9  C10 UNL     1      42.572  60.298  81.258  1.00  0.00     0.015 C 
HETATM   10  C14 UNL     1      43.315  61.219  83.349  1.00  0.00     0.015 C 
HETATM   11  C11 UNL     1      41.849  61.586  80.965  1.00  0.00    -0.013 C 
HETATM   12  C12 UNL     1      41.333  62.109  82.288  1.00  0.00     0.009 C 
HETATM   13  C17 UNL     1      42.674  62.590  80.204  1.00  0.00     0.015 C 
HETATM   14  C13 UNL     1      42.559  62.486  83.135  1.00  0.00    -0.013 C 
HETATM   15  C15 UNL     1      43.312  63.504  82.304  1.00  0.00     0.015 C 
HETATM   16  C16 UNL     1      43.916  62.912  81.079  1.00  0.00     0.033 C 
ENDBRANCH   6   7
BRANCH   5  17
HETATM   17  C4  UNL     1      46.483  61.002  79.107  1.00  0.00     0.021 A 
HETATM   18  C5  UNL     1      46.477  59.669  78.761  1.00  0.00     0.153 A 
HETATM   19  O2  UNL     1      45.896  59.485  77.605  1.00  0.00    -0.332 OA
HETATM   20  C6  UNL     1      45.503  60.655  77.146  1.00  0.00     0.165 A 
HETATM   21  C7  UNL     1      45.850  61.644  78.057  1.00  0.00     0.067 A 
HETATM   22 CL1  UNL     1      45.546  63.349  77.901  1.00  0.00    -0.082 Cl
ENDBRANCH   5  17
TORSDOF 2
ENDMDL
MODEL 2
REMARK VINA RESULT: -8.387099932      1.149      1.303
REMARK  2 active torsions:
REMARK  status: ('A' for Active; 'I' for Inactive)
REMARK    1  A    between atoms: C3_5  and  C4_6 
REMARK    2  A    between atoms: N1_12  and  C8_13 
ROOT
HETATM    1  O1  UNL     1      45.223  63.304  84.004  1.00  0.00    -0.272 OA
HETATM    2  C1  UNL     1      45.575  62.389  83.216  1.00  0.00     0.234 C 
HETATM    3  C2  UNL     1      46.599  61.397  83.635  1.00  0.00     0.179 C 
HETATM    4  S1  UNL     1      47.309  60.956  82.009  1.00  0.00    -0.129 SA
HETATM    5  C3  UNL     1      46.230  62.022  81.014  1.00  0.00     0.191 C 
HETATM    6  N1  UNL     1      45.069  62.208  81.922  1.00  0.00    -0.306 N 
ENDROOT
BRANCH   6   7
HETATM    7  C8  UNL     1      43.697  62.205  81.485  1.00  0.00     0.002 C 
HETATM    8  C9  UNL     1      42.674  61.679  82.420  1.00  0.00     0.033 C 
HETATM    9  C10 UNL     1      41.502  61.162  81.566  1.00  0.00     0.015 C 
HETATM   10  C14 UNL     1      42.050  62.695  83.333  1.00  0.00     0.015 C 
HETATM   11  C11 UNL     1      41.013  62.318  80.736  1.00  0.00    -0.013 C 
HETATM   12  C12 UNL     1      40.385  63.309  81.691  1.00  0.00     0.009 C 
HETATM   13  C17 UNL     1      42.070  62.925  79.850  1.00  0.00     0.015 C 
HETATM   14  C13 UNL     1      41.514  63.862  82.575  1.00  0.00    -0.013 C 
HETATM   15  C15 UNL     1      42.512  64.464  81.609  1.00  0.00     0.015 C 
HETATM   16  C16 UNL     1      43.203  63.436  80.783  1.00  0.00     0.033 C 
ENDBRANCH   6   7
BRANCH   5  17
HETATM   17  C4  UNL     1      45.838  61.321  79.772  1.00  0.00     0.021 A 
HETATM   18  C5  UNL     1      45.534  59.986  79.626  1.00  0.00     0.153 A 
HETATM   19  O2  UNL     1      45.232  59.704  78.386  1.00  0.00    -0.332 OA
HETATM   20  C6  UNL     1      45.320  60.809  77.675  1.00  0.00     0.165 A 
HETATM   21  C7  UNL     1      45.699  61.857  78.504  1.00  0.00     0.067 A 
HETATM   22 CL1  UNL     1      45.949  63.513  78.033  1.00  0.00    -0.082 Cl
ENDBRANCH   5  17
TORSDOF 2
ENDMDL
MODEL 3
REMARK VINA RESULT: -7.964648393      2.874      5.671
REMARK  2 active torsions:
REMARK  status: ('A' for Active; 'I' for Inactive)
REMARK    1  A    between atoms: C3_5  and  C4_6 
REMARK    2  A    between atoms: N1_12  and  C8_13 
ROOT
HETATM    1  O1  UNL     1      47.537  59.789  83.917  1.00  0.00    -0.272 OA
HETATM    2  C1  UNL     1      47.010  60.657  83.175  1.00  0.00     0.234 C 
HETATM    3  C2  UNL     1      46.013  61.609  83.731  1.00  0.00     0.179 C 
HETATM    4  S1  UNL     1      45.024  61.956  82.233  1.00  0.00    -0.129 SA
HETATM    5  C3  UNL     1      45.986  60.914  81.102  1.00  0.00     0.191 C 
HETATM    6  N1  UNL     1      47.287  60.819  81.811  1.00  0.00    -0.306 N 
ENDROOT
BRANCH   6   7
HETATM    7  C8  UNL     1      48.568  60.878  81.155  1.00  0.00     0.002 C 
HETATM    8  C9  UNL     1      49.684  61.540  81.872  1.00  0.00     0.033 C 
HETATM    9  C10 UNL     1      50.661  62.066  80.806  1.00  0.00     0.015 C 
HETATM   10  C14 UNL     1      50.521  60.639  82.734  1.00  0.00     0.015 C 
HETATM   11  C11 UNL     1      51.098  60.883  79.983  1.00  0.00    -0.013 C 
HETATM   12  C12 UNL     1      51.945  60.011  80.884  1.00  0.00     0.009 C 
HETATM   13  C17 UNL     1      49.963  60.143  79.325  1.00  0.00     0.015 C 
HETATM   14  C13 UNL     1      51.018  59.455  81.976  1.00  0.00    -0.013 C 
HETATM   15  C15 UNL     1      49.927  58.718  81.228  1.00  0.00     0.015 C 
HETATM   16  C16 UNL     1      49.037  59.633  80.462  1.00  0.00     0.033 C 
ENDBRANCH   6   7
BRANCH   5  17
HETATM   17  C4  UNL     1      46.131  61.592  79.795  1.00  0.00     0.021 A 
HETATM   18  C5  UNL     1      46.186  62.947  79.557  1.00  0.00     0.153 A 
HETATM   19  O2  UNL     1      46.314  63.197  78.281  1.00  0.00    -0.332 OA
HETATM   20  C6  UNL     1      46.348  62.050  77.634  1.00  0.00     0.165 A 
HETATM   21  C7  UNL     1      46.236  61.008  78.545  1.00  0.00     0.067 A 
HETATM   22 CL1  UNL     1      46.230  59.308  78.178  1.00  0.00    -0.082 Cl
ENDBRANCH   5  17
TORSDOF 2
ENDMDL
MODEL 4
REMARK VINA RESULT: -7.912495361      2.347      4.949
REMARK  2 active torsions:
REMARK  status: ('A' for Active; 'I' for Inactive)
REMARK    1  A    between atoms: C3_5  and  C4_6 
REMARK    2  A    between atoms: N1_12  and  C8_13 
ROOT
HETATM    1  O1  UNL     1      47.529  60.095  82.124  1.00  0.00    -0.272 OA
HETATM    2  C1  UNL     1      46.753  61.071  82.279  1.00  0.00     0.234 C 
HETATM    3  C2  UNL     1      46.947  62.007  83.418  1.00  0.00     0.179 C 
HETATM    4  S1  UNL     1      45.230  62.582  83.666  1.00  0.00    -0.129 SA
HETATM    5  C3  UNL     1      44.493  61.625  82.312  1.00  0.00     0.191 C 
HETATM    6  N1  UNL     1      45.671  61.376  81.442  1.00  0.00    -0.306 N 
ENDROOT
BRANCH   6   7
HETATM    7  C8  UNL     1      45.637  61.439  80.003  1.00  0.00     0.002 C 
HETATM    8  C9  UNL     1      46.580  62.362  79.329  1.00  0.00     0.033 C 
HETATM    9  C10 UNL     1      45.946  62.755  77.983  1.00  0.00     0.015 C 
HETATM   10  C14 UNL     1      47.909  61.769  78.956  1.00  0.00     0.015 C 
HETATM   11  C11 UNL     1      45.706  61.482  77.216  1.00  0.00    -0.013 C 
HETATM   12  C12 UNL     1      47.066  60.926  76.853  1.00  0.00     0.009 C 
HETATM   13  C17 UNL     1      44.825  60.493  77.934  1.00  0.00     0.015 C 
HETATM   14  C13 UNL     1      47.751  60.515  78.166  1.00  0.00    -0.013 C 
HETATM   15  C15 UNL     1      46.811  59.514  78.804  1.00  0.00     0.015 C 
HETATM   16  C16 UNL     1      45.539  60.136  79.267  1.00  0.00     0.033 C 
ENDBRANCH   6   7
BRANCH   5  17
HETATM   17  C4  UNL     1      43.473  62.442  81.618  1.00  0.00     0.021 A 
HETATM   18  C5  UNL     1      43.645  63.676  81.033  1.00  0.00     0.153 A 
HETATM   19  O2  UNL     1      42.528  64.111  80.513  1.00  0.00    -0.332 OA
HETATM   20  C6  UNL     1      41.591  63.210  80.724  1.00  0.00     0.165 A 
HETATM   21  C7  UNL     1      42.137  62.138  81.418  1.00  0.00     0.067 A 
HETATM   22 CL1  UNL     1      41.301  60.701  81.930  1.00  0.00    -0.082 Cl
ENDBRANCH   5  17
TORSDOF 2
ENDMDL
MODEL 5
REMARK VINA RESULT: -7.892718348      1.900      4.047
REMARK  2 active torsions:
REMARK  status: ('A' for Active; 'I' for Inactive)
REMARK    1  A    between atoms: C3_5  and  C4_6 
REMARK    2  A    between atoms: N1_12  and  C8_13 
ROOT
HETATM    1  O1  UNL     1      44.284  59.685  78.620  1.00  0.00    -0.272 OA
HETATM    2  C1  UNL     1      45.265  60.427  78.881  1.00  0.00     0.234 C 
HETATM    3  C2  UNL     1      46.185  60.858  77.796  1.00  0.00     0.179 C 
HETATM    4  S1  UNL     1      47.728  61.090  78.750  1.00  0.00    -0.129 SA
HETATM    5  C3  UNL     1      47.036  60.662  80.371  1.00  0.00     0.191 C 
HETATM    6  N1  UNL     1      45.587  60.909  80.157  1.00  0.00    -0.306 N 
ENDROOT
BRANCH   6   7
HETATM    7  C8  UNL     1      44.722  61.526  81.130  1.00  0.00     0.002 C 
HETATM    8  C9  UNL     1      43.899  62.678  80.693  1.00  0.00     0.033 C 
HETATM    9  C10 UNL     1      43.621  63.536  81.939  1.00  0.00     0.015 C 
HETATM   10  C14 UNL     1      42.535  62.333  80.166  1.00  0.00     0.015 C 
HETATM   11  C11 UNL     1      42.928  62.653  82.942  1.00  0.00    -0.013 C 
HETATM   12  C12 UNL     1      41.559  62.340  82.378  1.00  0.00     0.009 C 
HETATM   13  C17 UNL     1      43.715  61.426  83.323  1.00  0.00     0.015 C 
HETATM   14  C13 UNL     1      41.773  61.480  81.122  1.00  0.00    -0.013 C 
HETATM   15  C15 UNL     1      42.549  60.271  81.602  1.00  0.00     0.015 C 
HETATM   16  C16 UNL     1      43.937  60.609  82.021  1.00  0.00     0.033 C 
ENDBRANCH   6   7
BRANCH   5  17
HETATM   17  C4  UNL     1      47.590  61.563  81.406  1.00  0.00     0.021 A 
HETATM   18  C5  UNL     1      47.363  62.913  81.549  1.00  0.00     0.153 A 
HETATM   19  O2  UNL     1      48.016  63.396  82.572  1.00  0.00    -0.332 OA
HETATM   20  C6  UNL     1      48.687  62.414  83.139  1.00  0.00     0.165 A 
HETATM   21  C7  UNL     1      48.450  61.237  82.440  1.00  0.00     0.067 A 
HETATM   22 CL1  UNL     1      49.111  59.668  82.799  1.00  0.00    -0.082 Cl
ENDBRANCH   5  17
TORSDOF 2
ENDMDL
