MODEL 1
REMARK VINA RESULT: -8.209422031      0.000      0.000
REMARK  2 active torsions:
REMARK  status: ('A' for Active; 'I' for Inactive)
REMARK    1  A    between atoms: C7_7  and  C8_8 
REMARK    2  A    between atoms: C8_8  and  C9_9 
ROOT
HETATM    1  C1  UNL     1      45.252  60.855  79.918  1.00  0.00     0.043 C 
HETATM    2  C2  UNL     1      44.963  61.206  81.336  1.00  0.00    -0.087 C 
HETATM    3  C3  UNL     1      43.946  62.024  81.536  1.00  0.00    -0.009 C 
HETATM    4  C4  UNL     1      43.325  62.619  82.751  1.00  0.00     0.043 C 
HETATM    5  C5  UNL     1      42.348  61.583  83.285  1.00  0.00     0.049 C 
HETATM    6  C6  UNL     1      41.202  61.447  82.328  1.00  0.00     0.007 C 
HETATM    7  C7  UNL     1      40.915  62.331  81.409  1.00  0.00     0.047 C 
HETATM    8  O1  UNL     1      41.699  63.467  81.297  1.00  0.00    -0.315 OA
HETATM    9  C10 UNL     1      42.533  63.814  82.372  1.00  0.00     0.203 A 
HETATM   10  C11 UNL     1      42.664  65.141  82.773  1.00  0.00     0.241 A 
HETATM   11  O2  UNL     1      41.802  64.316  83.567  1.00  0.00    -0.346 OA
HETATM   12  C12 UNL     1      44.383  62.917  83.789  1.00  0.00    -0.001 C 
HETATM   13  C13 UNL     1      44.286  61.984  84.989  1.00  0.00     0.011 C 
HETATM   14  C14 UNL     1      45.772  62.944  83.223  1.00  0.00     0.006 C 
HETATM   15  C15 UNL     1      46.457  61.602  83.284  1.00  0.00     0.005 C 
HETATM   16  C16 UNL     1      45.841  60.603  82.335  1.00  0.00     0.033 C 
ENDROOT
BRANCH   7  17
HETATM   17  C8  UNL     1      39.792  62.190  80.473  1.00  0.00     0.075 C 
BRANCH  17  18
HETATM   18  C9  UNL     1      39.240  63.444  79.899  1.00  0.00     0.091 C 
HETATM   19 BR1  UNL     1      37.648  63.942  80.896  1.00  0.00    -0.096 Br
ENDBRANCH  17  18
ENDBRANCH   7  17
TORSDOF 2
ENDMDL
MODEL 2
REMARK VINA RESULT: -8.034728732      3.694      6.065
REMARK  2 active torsions:
REMARK  status: ('A' for Active; 'I' for Inactive)
REMARK    1  A    between atoms: C7_7  and  C8_8 
REMARK    2  A    between atoms: C8_8  and  C9_9 
ROOT
HETATM    1  C1  UNL     1      42.807  65.492  82.412  1.00  0.00     0.043 C 
HETATM    2  C2  UNL     1      42.712  64.033  82.127  1.00  0.00    -0.087 C 
HETATM    3  C3  UNL     1      43.777  63.479  81.577  1.00  0.00    -0.009 C 
HETATM    4  C4  UNL     1      44.108  62.095  81.138  1.00  0.00     0.043 C 
HETATM    5  C5  UNL     1      44.600  61.358  82.374  1.00  0.00     0.049 C 
HETATM    6  C6  UNL     1      45.923  61.926  82.793  1.00  0.00     0.007 C 
HETATM    7  C7  UNL     1      46.679  62.653  82.014  1.00  0.00     0.047 C 
HETATM    8  O1  UNL     1      46.257  62.924  80.723  1.00  0.00    -0.315 OA
HETATM    9  C10 UNL     1      45.234  62.134  80.173  1.00  0.00     0.203 A 
HETATM   10  C11 UNL     1      45.297  61.706  78.850  1.00  0.00     0.241 A 
HETATM   11  O2  UNL     1      45.651  60.743  79.851  1.00  0.00    -0.346 OA
HETATM   12  C12 UNL     1      42.879  61.413  80.582  1.00  0.00    -0.001 C 
HETATM   13  C13 UNL     1      42.376  60.305  81.499  1.00  0.00     0.011 C 
HETATM   14  C14 UNL     1      41.782  62.373  80.226  1.00  0.00     0.006 C 
HETATM   15  C15 UNL     1      40.820  62.613  81.362  1.00  0.00     0.005 C 
HETATM   16  C16 UNL     1      41.451  63.392  82.490  1.00  0.00     0.033 C 
ENDROOT
BRANCH   7  17
HETATM   17  C8  UNL     1      47.973  63.208  82.432  1.00  0.00     0.075 C 
BRANCH  17  18
HETATM   18  C9  UNL     1      48.966  62.248  82.979  1.00  0.00     0.091 C 
HETATM   19 BR1  UNL     1      50.634  62.447  82.000  1.00  0.00    -0.096 Br
ENDBRANCH  17  18
ENDBRANCH   7  17
TORSDOF 2
ENDMDL
MODEL 3
REMARK VINA RESULT: -7.994566422      3.018      5.120
REMARK  2 active torsions:
REMARK  status: ('A' for Active; 'I' for Inactive)
REMARK    1  A    between atoms: C7_7  and  C8_8 
REMARK    2  A    between atoms: C8_8  and  C9_9 
ROOT
HETATM    1  C1  UNL     1      39.318  62.068  80.534  1.00  0.00     0.043 C 
HETATM    2  C2  UNL     1      40.384  63.007  80.982  1.00  0.00    -0.087 C 
HETATM    3  C3  UNL     1      41.574  62.475  81.194  1.00  0.00    -0.009 C 
HETATM    4  C4  UNL     1      42.885  63.025  81.634  1.00  0.00     0.043 C 
HETATM    5  C5  UNL     1      43.564  63.569  80.387  1.00  0.00     0.049 C 
HETATM    6  C6  UNL     1      43.938  62.425  79.492  1.00  0.00     0.007 C 
HETATM    7  C7  UNL     1      44.010  61.184  79.893  1.00  0.00     0.047 C 
HETATM    8  O1  UNL     1      43.732  60.884  81.216  1.00  0.00    -0.315 OA
HETATM    9  C10 UNL     1      43.737  61.929  82.155  1.00  0.00     0.203 A 
HETATM   10  C11 UNL     1      44.299  61.751  83.416  1.00  0.00     0.241 A 
HETATM   11  O2  UNL     1      45.092  62.463  82.457  1.00  0.00    -0.346 OA
HETATM   12  C12 UNL     1      42.677  64.137  82.638  1.00  0.00    -0.001 C 
HETATM   13  C13 UNL     1      43.034  65.502  82.060  1.00  0.00     0.011 C 
HETATM   14  C14 UNL     1      41.304  64.137  83.243  1.00  0.00     0.006 C 
HETATM   15  C15 UNL     1      40.326  64.992  82.478  1.00  0.00     0.005 C 
HETATM   16  C16 UNL     1      39.984  64.404  81.131  1.00  0.00     0.033 C 
ENDROOT
BRANCH   7  17
HETATM   17  C8  UNL     1      44.375  60.069  79.010  1.00  0.00     0.075 C 
BRANCH  17  18
HETATM   18  C9  UNL     1      45.150  60.409  77.789  1.00  0.00     0.091 C 
HETATM   19 BR1  UNL     1      46.873  59.513  77.870  1.00  0.00    -0.096 Br
ENDBRANCH  17  18
ENDBRANCH   7  17
TORSDOF 2
ENDMDL
MODEL 4
REMARK VINA RESULT: -7.913748516      3.383      5.499
REMARK  2 active torsions:
REMARK  status: ('A' for Active; 'I' for Inactive)
REMARK    1  A    between atoms: C7_7  and  C8_8 
REMARK    2  A    between atoms: C8_8  and  C9_9 
ROOT
HETATM    1  C1  UNL     1      43.626  60.229  79.807  1.00  0.00     0.043 C 
HETATM    2  C2  UNL     1      43.333  61.453  80.605  1.00  0.00    -0.087 C 
HETATM    3  C3  UNL     1      43.844  61.489  81.821  1.00  0.00    -0.009 C 
HETATM    4  C4  UNL     1      43.804  62.485  82.927  1.00  0.00     0.043 C 
HETATM    5  C5  UNL     1      44.911  63.488  82.641  1.00  0.00     0.049 C 
HETATM    6  C6  UNL     1      46.240  62.817  82.812  1.00  0.00     0.007 C 
HETATM    7  C7  UNL     1      46.408  61.694  83.457  1.00  0.00     0.047 C 
HETATM    8  O1  UNL     1      45.310  61.071  84.027  1.00  0.00    -0.315 OA
HETATM    9  C10 UNL     1      44.136  61.819  84.210  1.00  0.00     0.203 A 
HETATM   10  C11 UNL     1      43.386  61.694  85.376  1.00  0.00     0.241 A 
HETATM   11  O2  UNL     1      44.235  62.846  85.282  1.00  0.00    -0.346 OA
HETATM   12  C12 UNL     1      42.464  63.184  82.955  1.00  0.00    -0.001 C 
HETATM   13  C13 UNL     1      42.570  64.640  82.519  1.00  0.00     0.011 C 
HETATM   14  C14 UNL     1      41.402  62.455  82.186  1.00  0.00     0.006 C 
HETATM   15  C15 UNL     1      41.313  62.895  80.747  1.00  0.00     0.005 C 
HETATM   16  C16 UNL     1      42.516  62.466  79.942  1.00  0.00     0.033 C 
ENDROOT
BRANCH   7  17
HETATM   17  C8  UNL     1      47.714  61.041  83.619  1.00  0.00     0.075 C 
BRANCH  17  18
HETATM   18  C9  UNL     1      48.544  60.896  82.395  1.00  0.00     0.091 C 
HETATM   19 BR1  UNL     1      50.038  62.134  82.501  1.00  0.00    -0.096 Br
ENDBRANCH  17  18
ENDBRANCH   7  17
TORSDOF 2
ENDMDL
MODEL 5
REMARK VINA RESULT: -7.695460731      3.731      5.907
REMARK  2 active torsions:
REMARK  status: ('A' for Active; 'I' for Inactive)
REMARK    1  A    between atoms: C7_7  and  C8_8 
REMARK    2  A    between atoms: C8_8  and  C9_9 
ROOT
HETATM    1  C1  UNL     1      43.284  64.422  84.750  1.00  0.00     0.043 C 
HETATM    2  C2  UNL     1      42.926  63.850  83.422  1.00  0.00    -0.087 C 
HETATM    3  C3  UNL     1      43.929  63.392  82.697  1.00  0.00    -0.009 C 
HETATM    4  C4  UNL     1      44.026  62.758  81.354  1.00  0.00     0.043 C 
HETATM    5  C5  UNL     1      43.749  61.276  81.558  1.00  0.00     0.049 C 
HETATM    6  C6  UNL     1      44.883  60.665  82.324  1.00  0.00     0.007 C 
HETATM    7  C7  UNL     1      46.058  61.223  82.451  1.00  0.00     0.047 C 
HETATM    8  O1  UNL     1      46.292  62.449  81.850  1.00  0.00    -0.315 OA
HETATM    9  C10 UNL     1      45.412  62.879  80.843  1.00  0.00     0.203 A 
HETATM   10  C11 UNL     1      45.893  63.501  79.694  1.00  0.00     0.241 A 
HETATM   11  O2  UNL     1      45.533  62.119  79.569  1.00  0.00    -0.346 OA
HETATM   12  C12 UNL     1      42.998  63.353  80.418  1.00  0.00    -0.001 C 
HETATM   13  C13 UNL     1      41.886  62.365  80.088  1.00  0.00     0.011 C 
HETATM   14  C14 UNL     1      42.446  64.661  80.903  1.00  0.00     0.006 C 
HETATM   15  C15 UNL     1      41.207  64.499  81.747  1.00  0.00     0.005 C 
HETATM   16  C16 UNL     1      41.505  63.865  83.083  1.00  0.00     0.033 C 
ENDROOT
BRANCH   7  17
HETATM   17  C8  UNL     1      47.164  60.619  83.205  1.00  0.00     0.075 C 
BRANCH  17  18
HETATM   18  C9  UNL     1      48.485  60.569  82.527  1.00  0.00     0.091 C 
HETATM   19 BR1  UNL     1      49.871  60.987  83.825  1.00  0.00    -0.096 Br
ENDBRANCH  17  18
ENDBRANCH   7  17
TORSDOF 2
ENDMDL
