MODEL 1
REMARK VINA RESULT: -8.768001035      0.000      0.000
REMARK  2 active torsions:
REMARK  status: ('A' for Active; 'I' for Inactive)
REMARK    1  A    between atoms: O1_2  and  C2_3 
REMARK    2  A    between atoms: C8_10  and  N1_11 
ROOT
HETATM    1  C2  UNL     1      42.898  63.718  84.947  1.00  0.00     0.092 A 
HETATM    2  C3  UNL     1      42.126  64.354  84.014  1.00  0.00     0.068 A 
HETATM    3  C4  UNL     1      41.846  63.661  82.857  1.00  0.00     0.041 A 
HETATM    4  C5  UNL     1      42.310  62.351  82.598  1.00  0.00     0.003 A 
HETATM    5  C6  UNL     1      43.074  61.731  83.530  1.00  0.00     0.038 A 
HETATM    6  C7  UNL     1      43.361  62.433  84.708  1.00  0.00     0.068 A 
HETATM    7 CL1  UNL     1      44.348  61.611  85.891  1.00  0.00    -0.081 Cl
HETATM    8  C8  UNL     1      41.960  61.620  81.353  1.00  0.00     0.258 C 
HETATM    9  C14 UNL     1      40.525  61.834  80.934  1.00  0.00     0.047 C 
HETATM   10  C15 UNL     1      40.020  63.118  80.491  1.00  0.00     0.006 C 
HETATM   11  C16 UNL     1      38.866  63.571  81.405  1.00  0.00     0.008 C 
HETATM   12  C17 UNL     1      38.868  65.006  81.804  1.00  0.00     0.020 C 
HETATM   13  C18 UNL     1      40.125  65.365  82.684  1.00  0.00     0.123 C 
HETATM   14  N2  UNL     1      41.038  64.446  82.036  1.00  0.00    -0.380 N 
HETATM   15  C19 UNL     1      40.987  64.298  80.566  1.00  0.00     0.127 C 
ENDROOT
BRANCH   8  16
HETATM   16  N1  UNL     1      42.890  61.732  80.291  1.00  0.00     0.097 N 
HETATM   17  C9  UNL     1      43.857  62.773  80.413  1.00  0.00     0.273 C 
HETATM   18  C10 UNL     1      44.775  62.650  79.192  1.00  0.00     0.030 C 
HETATM   19  C11 UNL     1      45.728  61.517  79.481  1.00  0.00     0.003 C 
HETATM   20  C12 UNL     1      45.071  60.604  80.482  1.00  0.00     0.030 C 
HETATM   21  C13 UNL     1      43.599  60.479  80.127  1.00  0.00     0.273 C 
ENDBRANCH   8  16
BRANCH   1  22
HETATM   22  O1  UNL     1      43.211  64.364  86.125  1.00  0.00    -0.354 OA
HETATM   23  C1  UNL     1      42.236  64.895  86.990  1.00  0.00     0.210 C 
ENDBRANCH   1  22
TORSDOF 2
ENDMDL
MODEL 2
REMARK VINA RESULT: -8.525000557      4.179      7.682
REMARK  2 active torsions:
REMARK  status: ('A' for Active; 'I' for Inactive)
REMARK    1  A    between atoms: O1_2  and  C2_3 
REMARK    2  A    between atoms: C8_10  and  N1_11 
ROOT
HETATM    1  C2  UNL     1      46.773  60.882  78.761  1.00  0.00     0.092 A 
HETATM    2  C3  UNL     1      47.760  61.410  79.546  1.00  0.00     0.068 A 
HETATM    3  C4  UNL     1      47.521  61.457  80.902  1.00  0.00     0.041 A 
HETATM    4  C5  UNL     1      46.330  60.992  81.503  1.00  0.00     0.003 A 
HETATM    5  C6  UNL     1      45.358  60.471  80.715  1.00  0.00     0.038 A 
HETATM    6  C7  UNL     1      45.597  60.422  79.334  1.00  0.00     0.068 A 
HETATM    7 CL1  UNL     1      44.329  59.747  78.341  1.00  0.00    -0.081 Cl
HETATM    8  C8  UNL     1      46.120  61.026  82.973  1.00  0.00     0.258 C 
HETATM    9  C14 UNL     1      47.360  60.649  83.749  1.00  0.00     0.047 C 
HETATM   10  C15 UNL     1      48.558  61.465  83.758  1.00  0.00     0.006 C 
HETATM   11  C16 UNL     1      49.750  60.650  83.222  1.00  0.00     0.008 C 
HETATM   12  C17 UNL     1      50.663  61.361  82.284  1.00  0.00     0.020 C 
HETATM   13  C18 UNL     1      49.929  61.761  80.947  1.00  0.00     0.123 C 
HETATM   14  N2  UNL     1      48.633  62.000  81.544  1.00  0.00    -0.380 N 
HETATM   15  C19 UNL     1      48.558  62.692  82.849  1.00  0.00     0.127 C 
ENDROOT
BRANCH   8  16
HETATM   16  N1  UNL     1      45.456  62.173  83.474  1.00  0.00     0.097 N 
HETATM   17  C9  UNL     1      44.426  62.711  82.648  1.00  0.00     0.273 C 
HETATM   18  C10 UNL     1      43.826  63.888  83.425  1.00  0.00     0.030 C 
HETATM   19  C11 UNL     1      42.902  63.296  84.460  1.00  0.00     0.003 C 
HETATM   20  C12 UNL     1      43.364  61.890  84.741  1.00  0.00     0.030 C 
HETATM   21  C13 UNL     1      44.883  61.878  84.772  1.00  0.00     0.273 C 
ENDBRANCH   8  16
BRANCH   1  22
HETATM   22  O1  UNL     1      46.956  60.810  77.395  1.00  0.00    -0.354 OA
HETATM   23  C1  UNL     1      47.733  61.738  76.677  1.00  0.00     0.210 C 
ENDBRANCH   1  22
TORSDOF 2
ENDMDL
MODEL 3
REMARK VINA RESULT: -8.447118968      5.828      8.644
REMARK  2 active torsions:
REMARK  status: ('A' for Active; 'I' for Inactive)
REMARK    1  A    between atoms: O1_2  and  C2_3 
REMARK    2  A    between atoms: C8_10  and  N1_11 
ROOT
HETATM    1  C2  UNL     1      46.876  60.010  78.425  1.00  0.00     0.092 A 
HETATM    2  C3  UNL     1      46.736  60.238  79.766  1.00  0.00     0.068 A 
HETATM    3  C4  UNL     1      47.872  60.584  80.463  1.00  0.00     0.041 A 
HETATM    4  C5  UNL     1      49.147  60.713  79.866  1.00  0.00     0.003 A 
HETATM    5  C6  UNL     1      49.274  60.484  78.537  1.00  0.00     0.038 A 
HETATM    6  C7  UNL     1      48.120  60.131  77.824  1.00  0.00     0.068 A 
HETATM    7 CL1  UNL     1      48.311  59.841  76.113  1.00  0.00    -0.081 Cl
HETATM    8  C8  UNL     1      50.346  61.122  80.643  1.00  0.00     0.258 C 
HETATM    9  C14 UNL     1      50.048  62.212  81.645  1.00  0.00     0.047 C 
HETATM   10  C15 UNL     1      49.196  62.006  82.799  1.00  0.00     0.006 C 
HETATM   11  C16 UNL     1      48.006  62.981  82.752  1.00  0.00     0.008 C 
HETATM   12  C17 UNL     1      46.676  62.413  83.111  1.00  0.00     0.020 C 
HETATM   13  C18 UNL     1      46.218  61.307  82.086  1.00  0.00     0.123 C 
HETATM   14  N2  UNL     1      47.543  60.798  81.801  1.00  0.00    -0.380 N 
HETATM   15  C19 UNL     1      48.509  60.647  82.909  1.00  0.00     0.127 C 
ENDROOT
BRANCH   8  16
HETATM   16  N1  UNL     1      51.134  60.066  81.161  1.00  0.00     0.097 N 
HETATM   17  C9  UNL     1      50.705  58.746  80.834  1.00  0.00     0.273 C 
HETATM   18  C10 UNL     1      51.740  57.796  81.446  1.00  0.00     0.030 C 
HETATM   19  C11 UNL     1      52.934  57.805  80.524  1.00  0.00     0.003 C 
HETATM   20  C12 UNL     1      52.922  59.106  79.766  1.00  0.00     0.030 C 
HETATM   21  C13 UNL     1      52.505  60.215  80.717  1.00  0.00     0.273 C 
ENDBRANCH   8  16
BRANCH   1  22
HETATM   22  O1  UNL     1      45.771  59.659  77.677  1.00  0.00    -0.354 OA
HETATM   23  C1  UNL     1      44.485  59.516  78.229  1.00  0.00     0.210 C 
ENDBRANCH   1  22
TORSDOF 2
ENDMDL
MODEL 4
REMARK VINA RESULT: -8.387854504      3.675      6.604
REMARK  2 active torsions:
REMARK  status: ('A' for Active; 'I' for Inactive)
REMARK    1  A    between atoms: O1_2  and  C2_3 
REMARK    2  A    between atoms: C8_10  and  N1_11 
ROOT
HETATM    1  C2  UNL     1      49.022  60.337  81.328  1.00  0.00     0.092 A 
HETATM    2  C3  UNL     1      47.932  60.051  80.553  1.00  0.00     0.068 A 
HETATM    3  C4  UNL     1      46.823  60.853  80.714  1.00  0.00     0.041 A 
HETATM    4  C5  UNL     1      46.766  61.934  81.623  1.00  0.00     0.003 A 
HETATM    5  C6  UNL     1      47.852  62.208  82.386  1.00  0.00     0.038 A 
HETATM    6  C7  UNL     1      48.981  61.394  82.225  1.00  0.00     0.068 A 
HETATM    7 CL1  UNL     1      50.367  61.767  83.220  1.00  0.00    -0.081 Cl
HETATM    8  C8  UNL     1      45.564  62.800  81.746  1.00  0.00     0.258 C 
HETATM    9  C14 UNL     1      44.931  63.114  80.411  1.00  0.00     0.047 C 
HETATM   10  C15 UNL     1      44.295  62.105  79.588  1.00  0.00     0.006 C 
HETATM   11  C16 UNL     1      44.990  62.034  78.216  1.00  0.00     0.008 C 
HETATM   12  C17 UNL     1      45.238  60.669  77.675  1.00  0.00     0.020 C 
HETATM   13  C18 UNL     1      46.242  59.857  78.578  1.00  0.00     0.123 C 
HETATM   14  N2  UNL     1      45.824  60.435  79.838  1.00  0.00    -0.380 N 
HETATM   15  C19 UNL     1      44.383  60.662  80.081  1.00  0.00     0.127 C 
ENDROOT
BRANCH   8  16
HETATM   16  N1  UNL     1      44.635  62.425  82.748  1.00  0.00     0.097 N 
HETATM   17  C9  UNL     1      45.168  62.240  84.057  1.00  0.00     0.273 C 
HETATM   18  C10 UNL     1      43.975  61.907  84.961  1.00  0.00     0.030 C 
HETATM   19  C11 UNL     1      43.282  63.214  85.258  1.00  0.00     0.003 C 
HETATM   20  C12 UNL     1      43.607  64.174  84.144  1.00  0.00     0.030 C 
HETATM   21  C13 UNL     1      43.579  63.414  82.829  1.00  0.00     0.273 C 
ENDBRANCH   8  16
BRANCH   1  22
HETATM   22  O1  UNL     1      50.160  59.567  81.210  1.00  0.00    -0.354 OA
HETATM   23  C1  UNL     1      50.304  58.312  81.829  1.00  0.00     0.210 C 
ENDBRANCH   1  22
TORSDOF 2
ENDMDL
MODEL 5
REMARK VINA RESULT: -8.327316173      3.935      7.309
REMARK  2 active torsions:
REMARK  status: ('A' for Active; 'I' for Inactive)
REMARK    1  A    between atoms: O1_2  and  C2_3 
REMARK    2  A    between atoms: C8_10  and  N1_11 
ROOT
HETATM    1  C2  UNL     1      46.400  60.113  78.558  1.00  0.00     0.092 A 
HETATM    2  C3  UNL     1      47.306  60.780  79.335  1.00  0.00     0.068 A 
HETATM    3  C4  UNL     1      46.843  61.315  80.517  1.00  0.00     0.041 A 
HETATM    4  C5  UNL     1      45.502  61.207  80.951  1.00  0.00     0.003 A 
HETATM    5  C6  UNL     1      44.612  60.545  80.173  1.00  0.00     0.038 A 
HETATM    6  C7  UNL     1      45.080  59.999  78.970  1.00  0.00     0.068 A 
HETATM    7 CL1  UNL     1      43.914  59.151  77.985  1.00  0.00    -0.081 Cl
HETATM    8  C8  UNL     1      45.044  61.768  82.249  1.00  0.00     0.258 C 
HETATM    9  C14 UNL     1      46.045  61.561  83.360  1.00  0.00     0.047 C 
HETATM   10  C15 UNL     1      47.342  62.207  83.378  1.00  0.00     0.006 C 
HETATM   11  C16 UNL     1      48.456  61.144  83.410  1.00  0.00     0.008 C 
HETATM   12  C17 UNL     1      49.627  61.392  82.524  1.00  0.00     0.020 C 
HETATM   13  C18 UNL     1      49.221  61.376  81.001  1.00  0.00     0.123 C 
HETATM   14  N2  UNL     1      47.898  61.934  81.185  1.00  0.00    -0.380 N 
HETATM   15  C19 UNL     1      47.711  63.038  82.150  1.00  0.00     0.127 C 
ENDROOT
BRANCH   8  16
HETATM   16  N1  UNL     1      44.505  63.077  82.198  1.00  0.00     0.097 N 
HETATM   17  C9  UNL     1      43.375  63.256  81.347  1.00  0.00     0.273 C 
HETATM   18  C10 UNL     1      42.943  64.717  81.510  1.00  0.00     0.030 C 
HETATM   19  C11 UNL     1      42.175  64.797  82.807  1.00  0.00     0.003 C 
HETATM   20  C12 UNL     1      42.630  63.660  83.684  1.00  0.00     0.030 C 
HETATM   21  C13 UNL     1      44.134  63.505  83.532  1.00  0.00     0.273 C 
ENDBRANCH   8  16
BRANCH   1  22
HETATM   22  O1  UNL     1      46.808  59.557  77.364  1.00  0.00    -0.354 OA
HETATM   23  C1  UNL     1      47.967  59.970  76.682  1.00  0.00     0.210 C 
ENDBRANCH   1  22
TORSDOF 2
ENDMDL
