MODEL 1
REMARK VINA RESULT: -8.380259285      0.000      0.000
REMARK  4 active torsions:
REMARK  status: ('A' for Active; 'I' for Inactive)
REMARK    1  A    between atoms: O1_2  and  C2_3 
REMARK    2  A    between atoms: C5_7  and  C15_17 
REMARK    3  A    between atoms: C6_8  and  C7_9 
REMARK    4  A    between atoms: C12_14  and  C13_15 
ROOT
HETATM    1  C2  UNL     1      45.855  61.559  83.537  1.00  0.00     0.144 C 
HETATM    2 CL1  UNL     1      44.580  62.088  84.739  1.00  0.00    -0.087 Cl
HETATM    3  C3  UNL     1      46.537  62.841  83.153  1.00  0.00     0.056 C 
HETATM    4  C4  UNL     1      46.718  63.135  81.712  1.00  0.00     0.013 C 
HETATM    5  C5  UNL     1      45.760  62.402  80.794  1.00  0.00     0.023 C 
HETATM    6  C6  UNL     1      44.541  62.148  81.671  1.00  0.00    -0.060 C 
HETATM    7  C12 UNL     1      44.996  60.957  82.403  1.00  0.00     0.073 C 
ENDROOT
BRANCH   6   8
HETATM    8  C7  UNL     1      43.270  62.429  81.115  1.00  0.00    -0.057 C 
HETATM    9  C8  UNL     1      43.315  63.449  79.944  1.00  0.00     0.049 C 
HETATM   10  C9  UNL     1      42.091  62.013  81.368  1.00  0.00    -0.082 C 
HETATM   11  C10 UNL     1      40.931  62.553  80.533  1.00  0.00     0.043 C 
HETATM   12  C11 UNL     1      41.688  61.053  82.403  1.00  0.00     0.043 C 
ENDBRANCH   6   8
BRANCH   5  13
HETATM   13  C15 UNL     1      46.354  61.204  80.153  1.00  0.00     0.033 C 
HETATM   14  C14 UNL     1      47.743  61.501  79.571  1.00  0.00     0.017 C 
HETATM   15  C13 UNL     1      46.884  62.178  78.480  1.00  0.00     0.037 C 
HETATM   16  C16 UNL     1      46.026  61.010  78.691  1.00  0.00     0.087 C 
HETATM   17  C17 UNL     1      46.624  59.800  78.068  1.00  0.00     0.010 C 
HETATM   18  O2  UNL     1      44.754  60.889  78.301  1.00  0.00    -0.372 OA
HETATM   19  C18 UNL     1      45.639  58.913  77.818  1.00  0.00    -0.002 C 
HETATM   20  C19 UNL     1      44.395  59.551  78.278  1.00  0.00     0.196 C 
ENDBRANCH   5  13
BRANCH   1  21
HETATM   21  O1  UNL     1      46.586  60.699  84.264  1.00  0.00    -0.369 OA
HETATM   22  C1  UNL     1      47.801  60.303  83.788  1.00  0.00     0.204 C 
ENDBRANCH   1  21
TORSDOF 4
ENDMDL
MODEL 2
REMARK VINA RESULT: -8.152545319      0.593      1.135
REMARK  4 active torsions:
REMARK  status: ('A' for Active; 'I' for Inactive)
REMARK    1  A    between atoms: O1_2  and  C2_3 
REMARK    2  A    between atoms: C5_7  and  C15_17 
REMARK    3  A    between atoms: C6_8  and  C7_9 
REMARK    4  A    between atoms: C12_14  and  C13_15 
ROOT
HETATM    1  C2  UNL     1      45.720  61.557  83.672  1.00  0.00     0.144 C 
HETATM    2 CL1  UNL     1      44.423  61.833  84.935  1.00  0.00    -0.087 Cl
HETATM    3  C3  UNL     1      46.152  62.945  83.295  1.00  0.00     0.056 C 
HETATM    4  C4  UNL     1      46.218  63.292  81.856  1.00  0.00     0.013 C 
HETATM    5  C5  UNL     1      45.365  62.420  80.957  1.00  0.00     0.023 C 
HETATM    6  C6  UNL     1      44.247  61.941  81.873  1.00  0.00    -0.060 C 
HETATM    7  C12 UNL     1      44.932  60.835  82.556  1.00  0.00     0.073 C 
ENDROOT
BRANCH   6   8
HETATM    8  C7  UNL     1      42.925  62.005  81.372  1.00  0.00    -0.057 C 
HETATM    9  C8  UNL     1      42.229  60.619  81.273  1.00  0.00     0.049 C 
HETATM   10  C9  UNL     1      42.178  62.965  80.988  1.00  0.00    -0.082 C 
HETATM   11  C10 UNL     1      40.767  62.642  80.499  1.00  0.00     0.043 C 
HETATM   12  C11 UNL     1      42.514  64.394  80.948  1.00  0.00     0.043 C 
ENDBRANCH   6   8
BRANCH   5  13
HETATM   13  C15 UNL     1      46.132  61.357  80.263  1.00  0.00     0.033 C 
HETATM   14  C14 UNL     1      47.442  61.894  79.670  1.00  0.00     0.017 C 
HETATM   15  C13 UNL     1      46.461  62.458  78.619  1.00  0.00     0.037 C 
HETATM   16  C16 UNL     1      45.808  61.159  78.801  1.00  0.00     0.087 C 
HETATM   17  C17 UNL     1      46.581  60.085  78.126  1.00  0.00     0.010 C 
HETATM   18  O2  UNL     1      44.565  60.846  78.427  1.00  0.00    -0.372 OA
HETATM   19  C18 UNL     1      45.748  59.057  77.860  1.00  0.00    -0.002 C 
HETATM   20  C19 UNL     1      44.426  59.469  78.362  1.00  0.00     0.196 C 
ENDBRANCH   5  13
BRANCH   1  21
HETATM   21  O1  UNL     1      46.619  60.825  84.349  1.00  0.00    -0.369 OA
HETATM   22  C1  UNL     1      47.743  60.403  83.703  1.00  0.00     0.204 C 
ENDBRANCH   1  21
TORSDOF 4
ENDMDL
MODEL 3
REMARK VINA RESULT: -8.019789079      3.227      6.459
REMARK  4 active torsions:
REMARK  status: ('A' for Active; 'I' for Inactive)
REMARK    1  A    between atoms: O1_2  and  C2_3 
REMARK    2  A    between atoms: C5_7  and  C15_17 
REMARK    3  A    between atoms: C6_8  and  C7_9 
REMARK    4  A    between atoms: C12_14  and  C13_15 
ROOT
HETATM    1  C2  UNL     1      39.826  63.136  80.771  1.00  0.00     0.144 C 
HETATM    2 CL1  UNL     1      39.505  62.370  79.139  1.00  0.00    -0.087 Cl
HETATM    3  C3  UNL     1      40.543  64.411  80.431  1.00  0.00     0.056 C 
HETATM    4  C4  UNL     1      41.804  64.719  81.146  1.00  0.00     0.013 C 
HETATM    5  C5  UNL     1      42.502  63.512  81.740  1.00  0.00     0.023 C 
HETATM    6  C6  UNL     1      42.050  62.359  80.854  1.00  0.00    -0.060 C 
HETATM    7  C12 UNL     1      40.733  62.083  81.446  1.00  0.00     0.073 C 
ENDROOT
BRANCH   6   8
HETATM    8  C7  UNL     1      43.042  61.453  80.410  1.00  0.00    -0.057 C 
HETATM    9  C8  UNL     1      42.880  60.020  80.989  1.00  0.00     0.049 C 
HETATM   10  C9  UNL     1      44.042  61.563  79.626  1.00  0.00    -0.082 C 
HETATM   11  C10 UNL     1      44.913  60.332  79.376  1.00  0.00     0.043 C 
HETATM   12  C11 UNL     1      44.485  62.765  78.911  1.00  0.00     0.043 C 
ENDBRANCH   6   8
BRANCH   5  13
HETATM   13  C15 UNL     1      42.258  63.343  83.193  1.00  0.00     0.033 C 
HETATM   14  C14 UNL     1      41.792  64.651  83.848  1.00  0.00     0.017 C 
HETATM   15  C13 UNL     1      43.294  64.982  83.710  1.00  0.00     0.037 C 
HETATM   16  C16 UNL     1      43.450  63.576  84.092  1.00  0.00     0.087 C 
HETATM   17  C17 UNL     1      43.188  63.395  85.543  1.00  0.00     0.010 C 
HETATM   18  O2  UNL     1      44.554  62.839  83.944  1.00  0.00    -0.372 OA
HETATM   19  C18 UNL     1      43.817  62.275  85.958  1.00  0.00    -0.002 C 
HETATM   20  C19 UNL     1      44.494  61.729  84.770  1.00  0.00     0.196 C 
ENDBRANCH   5  13
BRANCH   1  21
HETATM   21  O1  UNL     1      38.586  63.272  81.265  1.00  0.00    -0.369 OA
HETATM   22  C1  UNL     1      37.703  64.081  80.610  1.00  0.00     0.204 C 
ENDBRANCH   1  21
TORSDOF 4
ENDMDL
MODEL 4
REMARK VINA RESULT: -7.959267798      2.372      4.718
REMARK  4 active torsions:
REMARK  status: ('A' for Active; 'I' for Inactive)
REMARK    1  A    between atoms: O1_2  and  C2_3 
REMARK    2  A    between atoms: C5_7  and  C15_17 
REMARK    3  A    between atoms: C6_8  and  C7_9 
REMARK    4  A    between atoms: C12_14  and  C13_15 
ROOT
HETATM    1  C2  UNL     1      47.776  62.095  82.346  1.00  0.00     0.144 C 
HETATM    2 CL1  UNL     1      48.779  60.962  81.316  1.00  0.00    -0.087 Cl
HETATM    3  C3  UNL     1      47.322  61.231  83.488  1.00  0.00     0.056 C 
HETATM    4  C4  UNL     1      45.882  61.233  83.839  1.00  0.00     0.013 C 
HETATM    5  C5  UNL     1      44.960  61.672  82.718  1.00  0.00     0.023 C 
HETATM    6  C6  UNL     1      45.735  61.323  81.455  1.00  0.00    -0.060 C 
HETATM    7  C12 UNL     1      46.636  62.482  81.377  1.00  0.00     0.073 C 
ENDROOT
BRANCH   6   8
HETATM    8  C7  UNL     1      45.027  60.666  80.420  1.00  0.00    -0.057 C 
HETATM    9  C8  UNL     1      43.574  60.278  80.808  1.00  0.00     0.049 C 
HETATM   10  C9  UNL     1      45.330  60.330  79.227  1.00  0.00    -0.082 C 
HETATM   11  C10 UNL     1      44.277  59.617  78.379  1.00  0.00     0.043 C 
HETATM   12  C11 UNL     1      46.610  60.541  78.539  1.00  0.00     0.043 C 
ENDBRANCH   6   8
BRANCH   5  13
HETATM   13  C15 UNL     1      44.518  63.083  82.835  1.00  0.00     0.033 C 
HETATM   14  C14 UNL     1      44.122  63.438  84.275  1.00  0.00     0.017 C 
HETATM   15  C13 UNL     1      42.864  62.635  83.879  1.00  0.00     0.037 C 
HETATM   16  C16 UNL     1      43.046  63.332  82.604  1.00  0.00     0.087 C 
HETATM   17  C17 UNL     1      42.624  64.752  82.717  1.00  0.00     0.010 C 
HETATM   18  O2  UNL     1      42.486  62.997  81.438  1.00  0.00    -0.372 OA
HETATM   19  C18 UNL     1      42.309  65.208  81.487  1.00  0.00    -0.002 C 
HETATM   20  C19 UNL     1      42.525  64.076  80.570  1.00  0.00     0.196 C 
ENDBRANCH   5  13
BRANCH   1  21
HETATM   21  O1  UNL     1      48.663  63.055  82.651  1.00  0.00    -0.369 OA
HETATM   22  C1  UNL     1      49.970  62.875  82.306  1.00  0.00     0.204 C 
ENDBRANCH   1  21
TORSDOF 4
ENDMDL
MODEL 5
REMARK VINA RESULT: -7.794493408      2.758      5.083
REMARK  4 active torsions:
REMARK  status: ('A' for Active; 'I' for Inactive)
REMARK    1  A    between atoms: O1_2  and  C2_3 
REMARK    2  A    between atoms: C5_7  and  C15_17 
REMARK    3  A    between atoms: C6_8  and  C7_9 
REMARK    4  A    between atoms: C12_14  and  C13_15 
ROOT
HETATM    1  C2  UNL     1      46.175  62.479  80.943  1.00  0.00     0.144 C 
HETATM    2 CL1  UNL     1      45.971  62.610  79.129  1.00  0.00    -0.087 Cl
HETATM    3  C3  UNL     1      46.068  61.005  81.209  1.00  0.00     0.056 C 
HETATM    4  C4  UNL     1      45.146  60.549  82.276  1.00  0.00     0.013 C 
HETATM    5  C5  UNL     1      44.044  61.532  82.619  1.00  0.00     0.023 C 
HETATM    6  C6  UNL     1      43.856  62.327  81.334  1.00  0.00    -0.060 C 
HETATM    7  C12 UNL     1      44.963  63.286  81.460  1.00  0.00     0.073 C 
ENDROOT
BRANCH   6   8
HETATM    8  C7  UNL     1      42.528  62.542  80.893  1.00  0.00    -0.057 C 
HETATM    9  C8  UNL     1      42.370  63.792  79.983  1.00  0.00     0.049 C 
HETATM   10  C9  UNL     1      41.430  61.920  81.079  1.00  0.00    -0.082 C 
HETATM   11  C10 UNL     1      40.162  62.463  80.422  1.00  0.00     0.043 C 
HETATM   12  C11 UNL     1      41.218  60.708  81.880  1.00  0.00     0.043 C 
ENDBRANCH   6   8
BRANCH   5  13
HETATM   13  C15 UNL     1      44.322  62.331  83.837  1.00  0.00     0.033 C 
HETATM   14  C14 UNL     1      44.617  61.436  85.049  1.00  0.00     0.017 C 
HETATM   15  C13 UNL     1      43.083  61.265  85.001  1.00  0.00     0.037 C 
HETATM   16  C16 UNL     1      43.119  62.693  84.675  1.00  0.00     0.087 C 
HETATM   17  C17 UNL     1      43.416  63.500  85.887  1.00  0.00     0.010 C 
HETATM   18  O2  UNL     1      42.121  63.402  84.141  1.00  0.00    -0.372 OA
HETATM   19  C18 UNL     1      42.945  64.750  85.698  1.00  0.00    -0.002 C 
HETATM   20  C19 UNL     1      42.335  64.754  84.358  1.00  0.00     0.196 C 
ENDBRANCH   5  13
BRANCH   1  21
HETATM   21  O1  UNL     1      47.387  63.024  81.128  1.00  0.00    -0.369 OA
HETATM   22  C1  UNL     1      47.955  62.957  82.366  1.00  0.00     0.204 C 
ENDBRANCH   1  21
TORSDOF 4
ENDMDL
