MODEL 1
REMARK VINA RESULT: -7.841770498      0.000      0.000
REMARK  1 active torsions:
REMARK  status: ('A' for Active; 'I' for Inactive)
REMARK    1  A    between atoms: C3_4  and  C4_5 
ROOT
HETATM    1  O1  UNL     1     -23.580   3.894 -18.884  1.00  0.00    -0.285 OA
HETATM    2  C1  UNL     1     -22.353   4.262 -18.892  1.00  0.00     0.210 A 
HETATM    3  C2  UNL     1     -21.764   5.368 -18.152  1.00  0.00     0.085 A 
HETATM    4  C3  UNL     1     -22.423   6.153 -17.330  1.00  0.00     0.046 C 
HETATM    5  N1  UNL     1     -20.375   5.384 -18.483  1.00  0.00    -0.351 N 
ATOM      6  H1  UNL     1     -19.688   6.047 -18.122  1.00  0.00     0.166 HD
HETATM    7  C10 UNL     1     -20.101   4.316 -19.404  1.00  0.00     0.059 A 
HETATM    8  C11 UNL     1     -21.277   3.644 -19.652  1.00  0.00     0.044 A 
HETATM    9  C12 UNL     1     -21.272   2.563 -20.516  1.00  0.00     0.019 A 
HETATM   10  C13 UNL     1     -20.088   2.201 -21.094  1.00  0.00     0.013 A 
HETATM   11  C14 UNL     1     -18.908   2.868 -20.851  1.00  0.00    -0.021 A 
HETATM   12  C15 UNL     1     -17.693   2.496 -21.442  1.00  0.00     0.029 A 
HETATM   13  C16 UNL     1     -16.517   3.164 -21.195  1.00  0.00     0.088 A 
HETATM   14  N2  UNL     1     -16.551   4.211 -20.352  1.00  0.00    -0.374 N 
ATOM     15  H2  UNL     1     -15.691   4.721 -20.154  1.00  0.00     0.164 HD
HETATM   16  C17 UNL     1     -17.716   4.604 -19.757  1.00  0.00     0.102 A 
HETATM   17  C18 UNL     1     -18.902   3.947 -19.992  1.00  0.00     0.017 A 
ENDROOT
BRANCH   4  18
HETATM   18  C4  UNL     1     -21.880   7.258 -16.584  1.00  0.00    -0.012 A 
HETATM   19  C5  UNL     1     -20.659   7.182 -15.963  1.00  0.00     0.013 A 
HETATM   20  C6  UNL     1     -20.190   8.270 -15.239  1.00  0.00     0.001 A 
HETATM   21  C7  UNL     1     -20.935   9.450 -15.126  1.00  0.00     0.002 A 
HETATM   22  C8  UNL     1     -22.141   9.508 -15.747  1.00  0.00     0.024 A 
HETATM   23  C9  UNL     1     -22.622   8.416 -16.478  1.00  0.00     0.044 A 
HETATM   24 CL1  UNL     1     -24.196   8.603 -17.236  1.00  0.00    -0.083 Cl
ENDBRANCH   4  18
TORSDOF 1
ENDMDL
MODEL 2
REMARK VINA RESULT: -7.668924226      4.970      9.457
REMARK  1 active torsions:
REMARK  status: ('A' for Active; 'I' for Inactive)
REMARK    1  A    between atoms: C3_4  and  C4_5 
ROOT
HETATM    1  O1  UNL     1     -25.451   6.741 -12.144  1.00  0.00    -0.285 OA
HETATM    2  C1  UNL     1     -25.406   7.634 -13.062  1.00  0.00     0.210 A 
HETATM    3  C2  UNL     1     -24.578   7.621 -14.258  1.00  0.00     0.085 A 
HETATM    4  C3  UNL     1     -23.751   6.654 -14.586  1.00  0.00     0.046 C 
HETATM    5  N1  UNL     1     -24.875   8.822 -14.971  1.00  0.00    -0.351 N 
ATOM      6  H1  UNL     1     -24.453   9.106 -15.855  1.00  0.00     0.166 HD
HETATM    7  C10 UNL     1     -25.864   9.567 -14.241  1.00  0.00     0.059 A 
HETATM    8  C11 UNL     1     -26.184   8.863 -13.102  1.00  0.00     0.044 A 
HETATM    9  C12 UNL     1     -27.125   9.378 -12.227  1.00  0.00     0.019 A 
HETATM   10  C13 UNL     1     -27.704  10.576 -12.531  1.00  0.00     0.013 A 
HETATM   11  C14 UNL     1     -27.390  11.287 -13.669  1.00  0.00    -0.021 A 
HETATM   12  C15 UNL     1     -27.986  12.515 -13.983  1.00  0.00     0.029 A 
HETATM   13  C16 UNL     1     -27.670  13.219 -15.121  1.00  0.00     0.088 A 
HETATM   14  N2  UNL     1     -26.753  12.696 -15.953  1.00  0.00    -0.374 N 
ATOM     15  H2  UNL     1     -26.503  13.200 -16.803  1.00  0.00     0.164 HD
HETATM   16  C17 UNL     1     -26.150  11.501 -15.680  1.00  0.00     0.102 A 
HETATM   17  C18 UNL     1     -26.453  10.782 -14.548  1.00  0.00     0.017 A 
ENDROOT
BRANCH   4  18
HETATM   18  C4  UNL     1     -22.913   6.604 -15.756  1.00  0.00    -0.012 A 
HETATM   19  C5  UNL     1     -21.597   6.989 -15.720  1.00  0.00     0.013 A 
HETATM   20  C6  UNL     1     -20.838   6.941 -16.882  1.00  0.00     0.001 A 
HETATM   21  C7  UNL     1     -21.384   6.506 -18.095  1.00  0.00     0.002 A 
HETATM   22  C8  UNL     1     -22.688   6.128 -18.112  1.00  0.00     0.024 A 
HETATM   23  C9  UNL     1     -23.461   6.174 -16.946  1.00  0.00     0.044 A 
HETATM   24 CL1  UNL     1     -25.136   5.665 -17.087  1.00  0.00    -0.083 Cl
ENDBRANCH   4  18
TORSDOF 1
ENDMDL
MODEL 3
REMARK VINA RESULT: -7.533221348      5.108      9.645
REMARK  1 active torsions:
REMARK  status: ('A' for Active; 'I' for Inactive)
REMARK    1  A    between atoms: C3_4  and  C4_5 
ROOT
HETATM    1  O1  UNL     1     -25.421   6.921 -12.183  1.00  0.00    -0.285 OA
HETATM    2  C1  UNL     1     -25.481   7.779 -13.133  1.00  0.00     0.210 A 
HETATM    3  C2  UNL     1     -24.790   7.720 -14.412  1.00  0.00     0.085 A 
HETATM    4  C3  UNL     1     -24.004   6.738 -14.794  1.00  0.00     0.046 C 
HETATM    5  N1  UNL     1     -25.167   8.894 -15.131  1.00  0.00    -0.351 N 
ATOM      6  H1  UNL     1     -24.846   9.143 -16.068  1.00  0.00     0.166 HD
HETATM    7  C10 UNL     1     -26.069   9.668 -14.325  1.00  0.00     0.059 A 
HETATM    8  C11 UNL     1     -26.259   9.008 -13.131  1.00  0.00     0.044 A 
HETATM    9  C12 UNL     1     -27.097   9.558 -12.177  1.00  0.00     0.019 A 
HETATM   10  C13 UNL     1     -27.709  10.747 -12.460  1.00  0.00     0.013 A 
HETATM   11  C14 UNL     1     -27.524  11.413 -13.651  1.00  0.00    -0.021 A 
HETATM   12  C15 UNL     1     -28.153  12.631 -13.943  1.00  0.00     0.029 A 
HETATM   13  C16 UNL     1     -27.966  13.291 -15.134  1.00  0.00     0.088 A 
HETATM   14  N2  UNL     1     -27.147  12.734 -16.042  1.00  0.00    -0.374 N 
ATOM     15  H2  UNL     1     -26.993  13.206 -16.934  1.00  0.00     0.164 HD
HETATM   16  C17 UNL     1     -26.516  11.548 -15.795  1.00  0.00     0.102 A 
HETATM   17  C18 UNL     1     -26.690  10.873 -14.609  1.00  0.00     0.017 A 
ENDROOT
BRANCH   4  18
HETATM   18  C4  UNL     1     -23.302   6.643 -16.046  1.00  0.00    -0.012 A 
HETATM   19  C5  UNL     1     -23.835   5.988 -17.128  1.00  0.00     0.013 A 
HETATM   20  C6  UNL     1     -23.107   5.909 -18.307  1.00  0.00     0.001 A 
HETATM   21  C7  UNL     1     -21.835   6.484 -18.422  1.00  0.00     0.002 A 
HETATM   22  C8  UNL     1     -21.324   7.129 -17.343  1.00  0.00     0.024 A 
HETATM   23  C9  UNL     1     -22.050   7.213 -16.150  1.00  0.00     0.044 A 
HETATM   24 CL1  UNL     1     -21.288   8.068 -14.818  1.00  0.00    -0.083 Cl
ENDBRANCH   4  18
TORSDOF 1
ENDMDL
MODEL 4
REMARK VINA RESULT: -7.236862199      1.091      1.453
REMARK  1 active torsions:
REMARK  status: ('A' for Active; 'I' for Inactive)
REMARK    1  A    between atoms: C3_4  and  C4_5 
ROOT
HETATM    1  O1  UNL     1     -24.913   4.945 -18.894  1.00  0.00    -0.285 OA
HETATM    2  C1  UNL     1     -23.633   4.875 -18.873  1.00  0.00     0.210 A 
HETATM    3  C2  UNL     1     -22.722   5.703 -18.098  1.00  0.00     0.085 A 
HETATM    4  C3  UNL     1     -23.096   6.652 -17.268  1.00  0.00     0.046 C 
HETATM    5  N1  UNL     1     -21.403   5.253 -18.404  1.00  0.00    -0.351 N 
ATOM      6  H1  UNL     1     -20.541   5.637 -18.017  1.00  0.00     0.166 HD
HETATM    7  C10 UNL     1     -21.485   4.170 -19.346  1.00  0.00     0.059 A 
HETATM    8  C11 UNL     1     -22.813   3.941 -19.629  1.00  0.00     0.044 A 
HETATM    9  C12 UNL     1     -23.154   2.937 -20.518  1.00  0.00     0.019 A 
HETATM   10  C13 UNL     1     -22.150   2.204 -21.085  1.00  0.00     0.013 A 
HETATM   11  C14 UNL     1     -20.819   2.428 -20.807  1.00  0.00    -0.021 A 
HETATM   12  C15 UNL     1     -19.788   1.676 -21.386  1.00  0.00     0.029 A 
HETATM   13  C16 UNL     1     -18.462   1.901 -21.103  1.00  0.00     0.088 A 
HETATM   14  N2  UNL     1     -18.159   2.883 -20.237  1.00  0.00    -0.374 N 
ATOM     15  H2  UNL     1     -17.182   3.068 -20.012  1.00  0.00     0.164 HD
HETATM   16  C17 UNL     1     -19.136   3.638 -19.652  1.00  0.00     0.102 A 
HETATM   17  C18 UNL     1     -20.468   3.427 -19.922  1.00  0.00     0.017 A 
ENDROOT
BRANCH   4  18
HETATM   18  C4  UNL     1     -22.228   7.494 -16.487  1.00  0.00    -0.012 A 
HETATM   19  C5  UNL     1     -21.065   7.022 -15.935  1.00  0.00     0.013 A 
HETATM   20  C6  UNL     1     -20.274   7.872 -15.174  1.00  0.00     0.001 A 
HETATM   21  C7  UNL     1     -20.635   9.206 -14.954  1.00  0.00     0.002 A 
HETATM   22  C8  UNL     1     -21.789   9.657 -15.509  1.00  0.00     0.024 A 
HETATM   23  C9  UNL     1     -22.592   8.808 -16.277  1.00  0.00     0.044 A 
HETATM   24 CL1  UNL     1     -24.065   9.499 -16.942  1.00  0.00    -0.083 Cl
ENDBRANCH   4  18
TORSDOF 1
ENDMDL
MODEL 5
REMARK VINA RESULT: -7.189312513      2.376      3.679
REMARK  1 active torsions:
REMARK  status: ('A' for Active; 'I' for Inactive)
REMARK    1  A    between atoms: C3_4  and  C4_5 
ROOT
HETATM    1  O1  UNL     1     -17.994   5.081 -18.492  1.00  0.00    -0.285 OA
HETATM    2  C1  UNL     1     -19.181   4.676 -18.758  1.00  0.00     0.210 A 
HETATM    3  C2  UNL     1     -20.431   5.283 -18.327  1.00  0.00     0.085 A 
HETATM    4  C3  UNL     1     -20.522   6.377 -17.603  1.00  0.00     0.046 C 
HETATM    5  N1  UNL     1     -21.480   4.481 -18.867  1.00  0.00    -0.351 N 
ATOM      6  H1  UNL     1     -22.479   4.647 -18.741  1.00  0.00     0.166 HD
HETATM    7  C10 UNL     1     -20.904   3.399 -19.617  1.00  0.00     0.059 A 
HETATM    8  C11 UNL     1     -19.532   3.511 -19.555  1.00  0.00     0.044 A 
HETATM    9  C12 UNL     1     -18.744   2.579 -20.207  1.00  0.00     0.019 A 
HETATM   10  C13 UNL     1     -19.365   1.574 -20.894  1.00  0.00     0.013 A 
HETATM   11  C14 UNL     1     -20.736   1.455 -20.961  1.00  0.00    -0.021 A 
HETATM   12  C15 UNL     1     -21.373   0.426 -21.668  1.00  0.00     0.029 A 
HETATM   13  C16 UNL     1     -22.741   0.314 -21.734  1.00  0.00     0.088 A 
HETATM   14  N2  UNL     1     -23.481   1.233 -21.091  1.00  0.00    -0.374 N 
ATOM     15  H2  UNL     1     -24.499   1.169 -21.126  1.00  0.00     0.164 HD
HETATM   16  C17 UNL     1     -22.897   2.250 -20.391  1.00  0.00     0.102 A 
HETATM   17  C18 UNL     1     -21.530   2.379 -20.315  1.00  0.00     0.017 A 
ENDROOT
BRANCH   4  18
HETATM   18  C4  UNL     1     -21.736   7.006 -17.154  1.00  0.00    -0.012 A 
HETATM   19  C5  UNL     1     -22.924   6.846 -17.820  1.00  0.00     0.013 A 
HETATM   20  C6  UNL     1     -24.062   7.491 -17.355  1.00  0.00     0.001 A 
HETATM   21  C7  UNL     1     -24.028   8.306 -16.217  1.00  0.00     0.002 A 
HETATM   22  C8  UNL     1     -22.844   8.453 -15.569  1.00  0.00     0.024 A 
HETATM   23  C9  UNL     1     -21.692   7.807 -16.031  1.00  0.00     0.044 A 
HETATM   24 CL1  UNL     1     -20.216   8.073 -15.116  1.00  0.00    -0.083 Cl
ENDBRANCH   4  18
TORSDOF 1
ENDMDL
