MODEL 1
REMARK VINA RESULT: -8.251125158      0.000      0.000
REMARK  3 active torsions:
REMARK  status: ('A' for Active; 'I' for Inactive)
REMARK    1  A    between atoms: C5_5  and  C6_6 
REMARK    2  A    between atoms: C7_7  and  C8_8 
REMARK    3  A    between atoms: C14_15  and  C15_16 
ROOT
HETATM    1  C8  UNL     1     -21.068   6.537 -17.098  1.00  0.00     0.032 A 
HETATM    2  C9  UNL     1     -20.355   7.215 -16.106  1.00  0.00     0.044 A 
HETATM    3  C10 UNL     1     -20.917   8.123 -15.243  1.00  0.00     0.046 A 
HETATM    4  C11 UNL     1     -20.155   8.801 -14.234  1.00  0.00     0.099 C 
HETATM    5  N1  UNL     1     -19.542   9.366 -13.427  1.00  0.00    -0.191 NA
HETATM    6  C12 UNL     1     -22.262   8.351 -15.398  1.00  0.00     0.024 A 
HETATM    7  C13 UNL     1     -22.986   7.708 -16.351  1.00  0.00     0.017 A 
HETATM    8  C14 UNL     1     -22.394   6.766 -17.242  1.00  0.00     0.011 A 
ENDROOT
BRANCH   1   9
HETATM    9  C7  UNL     1     -20.358   5.661 -17.985  1.00  0.00    -0.060 C 
HETATM   10  C6  UNL     1     -19.713   4.947 -18.749  1.00  0.00    -0.061 C 
BRANCH  10  11
HETATM   11  C5  UNL     1     -18.965   4.116 -19.651  1.00  0.00     0.021 A 
HETATM   12  C4  UNL     1     -17.736   4.498 -20.118  1.00  0.00     0.021 A 
HETATM   13  C3  UNL     1     -17.023   3.696 -20.983  1.00  0.00     0.011 A 
HETATM   14  C2  UNL     1     -17.525   2.487 -21.405  1.00  0.00    -0.023 A 
HETATM   15  C1  UNL     1     -16.750   1.625 -22.340  1.00  0.00     0.051 C 
HETATM   16  C19 UNL     1     -18.754   2.083 -20.951  1.00  0.00     0.123 A 
HETATM   17  C18 UNL     1     -19.452   2.892 -20.090  1.00  0.00     0.063 A 
HETATM   18  F1  UNL     1     -19.233   0.895 -21.374  1.00  0.00    -0.206 F 
ENDBRANCH  10  11
ENDBRANCH   1   9
BRANCH   8  19
HETATM   19  C15 UNL     1     -23.232   6.157 -18.235  1.00  0.00     0.060 A 
HETATM   20  C16 UNL     1     -24.173   5.191 -18.193  1.00  0.00     0.119 A 
HETATM   21  N2  UNL     1     -24.749   5.029 -19.435  1.00  0.00    -0.360 N 
HETATM   22  C17 UNL     1     -24.147   5.913 -20.250  1.00  0.00     0.180 A 
ATOM     23  H2  UNL     1     -25.485   4.369 -19.686  1.00  0.00     0.166 HD
HETATM   24  N3  UNL     1     -23.249   6.582 -19.540  1.00  0.00    -0.351 N 
ATOM     25  H3  UNL     1     -22.649   7.317 -19.914  1.00  0.00     0.166 HD
ENDBRANCH   8  19
TORSDOF 3
ENDMDL
MODEL 2
REMARK VINA RESULT: -8.179564355      1.083      1.565
REMARK  3 active torsions:
REMARK  status: ('A' for Active; 'I' for Inactive)
REMARK    1  A    between atoms: C5_5  and  C6_6 
REMARK    2  A    between atoms: C7_7  and  C8_8 
REMARK    3  A    between atoms: C14_15  and  C15_16 
ROOT
HETATM    1  C8  UNL     1     -21.258   6.687 -16.984  1.00  0.00     0.032 A 
HETATM    2  C9  UNL     1     -20.485   7.330 -16.013  1.00  0.00     0.044 A 
HETATM    3  C10 UNL     1     -20.978   8.268 -15.139  1.00  0.00     0.046 A 
HETATM    4  C11 UNL     1     -20.156   8.908 -14.152  1.00  0.00     0.099 C 
HETATM    5  N1  UNL     1     -19.494   9.442 -13.363  1.00  0.00    -0.191 NA
HETATM    6  C12 UNL     1     -22.313   8.563 -15.259  1.00  0.00     0.024 A 
HETATM    7  C13 UNL     1     -23.094   7.957 -16.192  1.00  0.00     0.017 A 
HETATM    8  C14 UNL     1     -22.574   6.984 -17.094  1.00  0.00     0.011 A 
ENDROOT
BRANCH   1   9
HETATM    9  C7  UNL     1     -20.617   5.774 -17.886  1.00  0.00    -0.060 C 
HETATM   10  C6  UNL     1     -20.024   4.998 -18.631  1.00  0.00    -0.061 C 
BRANCH  10  11
HETATM   11  C5  UNL     1     -19.329   4.099 -19.509  1.00  0.00     0.021 A 
HETATM   12  C4  UNL     1     -19.932   2.969 -19.994  1.00  0.00     0.021 A 
HETATM   13  C3  UNL     1     -19.259   2.110 -20.836  1.00  0.00     0.011 A 
HETATM   14  C2  UNL     1     -17.961   2.360 -21.215  1.00  0.00    -0.023 A 
HETATM   15  C1  UNL     1     -17.239   1.428 -22.125  1.00  0.00     0.051 C 
HETATM   16  C19 UNL     1     -17.336   3.485 -20.742  1.00  0.00     0.123 A 
HETATM   17  C18 UNL     1     -18.018   4.331 -19.905  1.00  0.00     0.063 A 
HETATM   18  F1  UNL     1     -16.063   3.718 -21.122  1.00  0.00    -0.206 F 
ENDBRANCH  10  11
ENDBRANCH   1   9
BRANCH   8  19
HETATM   19  C15 UNL     1     -23.467   6.417 -18.063  1.00  0.00     0.060 A 
HETATM   20  C16 UNL     1     -23.622   6.581 -19.394  1.00  0.00     0.119 A 
HETATM   21  N2  UNL     1     -24.590   5.725 -19.872  1.00  0.00    -0.360 N 
HETATM   22  C17 UNL     1     -25.035   5.025 -18.813  1.00  0.00     0.180 A 
ATOM     23  H2  UNL     1     -24.907   5.639 -20.838  1.00  0.00     0.166 HD
HETATM   24  N3  UNL     1     -24.370   5.434 -17.742  1.00  0.00    -0.351 N 
ATOM     25  H3  UNL     1     -24.510   5.066 -16.800  1.00  0.00     0.166 HD
ENDBRANCH   8  19
TORSDOF 3
ENDMDL
MODEL 3
REMARK VINA RESULT: -7.148632226      3.430      7.323
REMARK  3 active torsions:
REMARK  status: ('A' for Active; 'I' for Inactive)
REMARK    1  A    between atoms: C5_5  and  C6_6 
REMARK    2  A    between atoms: C7_7  and  C8_8 
REMARK    3  A    between atoms: C14_15  and  C15_16 
ROOT
HETATM    1  C8  UNL     1     -19.592   3.217 -20.177  1.00  0.00     0.032 A 
HETATM    2  C9  UNL     1     -18.240   3.227 -20.534  1.00  0.00     0.044 A 
HETATM    3  C10 UNL     1     -17.647   2.267 -21.316  1.00  0.00     0.046 A 
HETATM    4  C11 UNL     1     -16.256   2.309 -21.664  1.00  0.00     0.099 C 
HETATM    5  N1  UNL     1     -15.128   2.327 -21.936  1.00  0.00    -0.191 NA
HETATM    6  C12 UNL     1     -18.464   1.254 -21.752  1.00  0.00     0.024 A 
HETATM    7  C13 UNL     1     -19.782   1.213 -21.425  1.00  0.00     0.017 A 
HETATM    8  C14 UNL     1     -20.390   2.215 -20.614  1.00  0.00     0.011 A 
ENDROOT
BRANCH   1   9
HETATM    9  C7  UNL     1     -20.084   4.239 -19.299  1.00  0.00    -0.060 C 
HETATM   10  C6  UNL     1     -20.504   5.148 -18.588  1.00  0.00    -0.061 C 
BRANCH  10  11
HETATM   11  C5  UNL     1     -20.987   6.213 -17.753  1.00  0.00     0.021 A 
HETATM   12  C4  UNL     1     -22.123   6.909 -18.071  1.00  0.00     0.021 A 
HETATM   13  C3  UNL     1     -22.580   7.930 -17.266  1.00  0.00     0.011 A 
HETATM   14  C2  UNL     1     -21.908   8.282 -16.117  1.00  0.00    -0.023 A 
HETATM   15  C1  UNL     1     -22.407   9.386 -15.252  1.00  0.00     0.051 C 
HETATM   16  C19 UNL     1     -20.769   7.599 -15.779  1.00  0.00     0.123 A 
HETATM   17  C18 UNL     1     -20.326   6.585 -16.590  1.00  0.00     0.063 A 
HETATM   18  F1  UNL     1     -20.121   7.956 -14.650  1.00  0.00    -0.206 F 
ENDBRANCH  10  11
ENDBRANCH   1   9
BRANCH   8  19
HETATM   19  C15 UNL     1     -21.782   2.074 -20.298  1.00  0.00     0.060 A 
HETATM   20  C16 UNL     1     -22.767   2.955 -20.020  1.00  0.00     0.119 A 
HETATM   21  N2  UNL     1     -23.967   2.296 -19.863  1.00  0.00    -0.360 N 
HETATM   22  C17 UNL     1     -23.711   0.989 -20.048  1.00  0.00     0.180 A 
ATOM     23  H2  UNL     1     -24.871   2.717 -19.648  1.00  0.00     0.166 HD
HETATM   24  N3  UNL     1     -22.417   0.857 -20.307  1.00  0.00    -0.351 N 
ATOM     25  H3  UNL     1     -21.953  -0.033 -20.489  1.00  0.00     0.166 HD
ENDBRANCH   8  19
TORSDOF 3
ENDMDL
MODEL 4
REMARK VINA RESULT: -7.140597665      5.997      9.833
REMARK  3 active torsions:
REMARK  status: ('A' for Active; 'I' for Inactive)
REMARK    1  A    between atoms: C5_5  and  C6_6 
REMARK    2  A    between atoms: C7_7  and  C8_8 
REMARK    3  A    between atoms: C14_15  and  C15_16 
ROOT
HETATM    1  C8  UNL     1     -23.584   8.733 -15.311  1.00  0.00     0.032 A 
HETATM    2  C9  UNL     1     -22.269   9.152 -15.090  1.00  0.00     0.044 A 
HETATM    3  C10 UNL     1     -21.178   8.321 -15.162  1.00  0.00     0.046 A 
HETATM    4  C11 UNL     1     -19.840   8.784 -14.930  1.00  0.00     0.099 C 
HETATM    5  N1  UNL     1     -18.758   9.148 -14.727  1.00  0.00    -0.191 NA
HETATM    6  C12 UNL     1     -21.437   7.009 -15.472  1.00  0.00     0.024 A 
HETATM    7  C13 UNL     1     -22.703   6.568 -15.695  1.00  0.00     0.017 A 
HETATM    8  C14 UNL     1     -23.830   7.438 -15.619  1.00  0.00     0.011 A 
ENDROOT
BRANCH   1   9
HETATM    9  C7  UNL     1     -24.650   9.678 -15.142  1.00  0.00    -0.060 C 
HETATM   10  C6  UNL     1     -25.526  10.526 -14.994  1.00  0.00    -0.061 C 
BRANCH  10  11
HETATM   11  C5  UNL     1     -26.552  11.515 -14.810  1.00  0.00     0.021 A 
HETATM   12  C4  UNL     1     -26.837  12.434 -15.785  1.00  0.00     0.021 A 
HETATM   13  C3  UNL     1     -27.822  13.381 -15.603  1.00  0.00     0.011 A 
HETATM   14  C2  UNL     1     -28.548  13.433 -14.436  1.00  0.00    -0.023 A 
HETATM   15  C1  UNL     1     -29.610  14.459 -14.245  1.00  0.00     0.051 C 
HETATM   16  C19 UNL     1     -28.280  12.524 -13.446  1.00  0.00     0.123 A 
HETATM   17  C18 UNL     1     -27.297  11.587 -13.641  1.00  0.00     0.063 A 
HETATM   18  F1  UNL     1     -29.000  12.588 -12.307  1.00  0.00    -0.206 F 
ENDBRANCH  10  11
ENDBRANCH   1   9
BRANCH   8  19
HETATM   19  C15 UNL     1     -25.132   6.878 -15.842  1.00  0.00     0.060 A 
HETATM   20  C16 UNL     1     -25.909   6.737 -16.936  1.00  0.00     0.119 A 
HETATM   21  N2  UNL     1     -27.059   6.045 -16.621  1.00  0.00    -0.360 N 
HETATM   22  C17 UNL     1     -26.982   5.759 -15.310  1.00  0.00     0.180 A 
ATOM     23  H2  UNL     1     -27.818   5.800 -17.257  1.00  0.00     0.166 HD
HETATM   24  N3  UNL     1     -25.840   6.251 -14.848  1.00  0.00    -0.351 N 
ATOM     25  H3  UNL     1     -25.529   6.174 -13.879  1.00  0.00     0.166 HD
ENDBRANCH   8  19
TORSDOF 3
ENDMDL
MODEL 5
REMARK VINA RESULT: -7.049632911      5.770      9.898
REMARK  3 active torsions:
REMARK  status: ('A' for Active; 'I' for Inactive)
REMARK    1  A    between atoms: C5_5  and  C6_6 
REMARK    2  A    between atoms: C7_7  and  C8_8 
REMARK    3  A    between atoms: C14_15  and  C15_16 
ROOT
HETATM    1  C8  UNL     1     -23.583   8.486 -15.158  1.00  0.00     0.032 A 
HETATM    2  C9  UNL     1     -22.285   8.939 -14.905  1.00  0.00     0.044 A 
HETATM    3  C10 UNL     1     -21.151   8.246 -15.250  1.00  0.00     0.046 A 
HETATM    4  C11 UNL     1     -19.833   8.741 -14.976  1.00  0.00     0.099 C 
HETATM    5  N1  UNL     1     -18.764   9.126 -14.742  1.00  0.00    -0.191 NA
HETATM    6  C12 UNL     1     -21.347   7.042 -15.879  1.00  0.00     0.024 A 
HETATM    7  C13 UNL     1     -22.594   6.572 -16.142  1.00  0.00     0.017 A 
HETATM    8  C14 UNL     1     -23.766   7.299 -15.781  1.00  0.00     0.011 A 
ENDROOT
BRANCH   1   9
HETATM    9  C7  UNL     1     -24.693   9.266 -14.690  1.00  0.00    -0.060 C 
HETATM   10  C6  UNL     1     -25.610   9.957 -14.255  1.00  0.00    -0.061 C 
BRANCH  10  11
HETATM   11  C5  UNL     1     -26.686  10.758 -13.741  1.00  0.00     0.021 A 
HETATM   12  C4  UNL     1     -27.391  10.376 -12.630  1.00  0.00     0.021 A 
HETATM   13  C3  UNL     1     -28.422  11.148 -12.142  1.00  0.00     0.011 A 
HETATM   14  C2  UNL     1     -28.776  12.328 -12.755  1.00  0.00    -0.023 A 
HETATM   15  C1  UNL     1     -29.892  13.158 -12.223  1.00  0.00     0.051 C 
HETATM   16  C19 UNL     1     -28.085  12.731 -13.868  1.00  0.00     0.123 A 
HETATM   17  C18 UNL     1     -27.061  11.952 -14.343  1.00  0.00     0.063 A 
HETATM   18  F1  UNL     1     -28.444  13.890 -14.459  1.00  0.00    -0.206 F 
ENDBRANCH  10  11
ENDBRANCH   1   9
BRANCH   8  19
HETATM   19  C15 UNL     1     -25.042   6.711 -16.074  1.00  0.00     0.060 A 
HETATM   20  C16 UNL     1     -25.848   6.730 -17.156  1.00  0.00     0.119 A 
HETATM   21  N2  UNL     1     -26.946   5.922 -16.949  1.00  0.00    -0.360 N 
HETATM   22  C17 UNL     1     -26.807   5.400 -15.717  1.00  0.00     0.180 A 
ATOM     23  H2  UNL     1     -27.713   5.754 -17.600  1.00  0.00     0.166 HD
HETATM   24  N3  UNL     1     -25.678   5.867 -15.199  1.00  0.00    -0.351 N 
ATOM     25  H3  UNL     1     -25.329   5.629 -14.270  1.00  0.00     0.166 HD
ENDBRANCH   8  19
TORSDOF 3
ENDMDL
