MODEL 1
REMARK VINA RESULT: -8.217136665      0.000      0.000
REMARK  1 active torsions:
REMARK  status: ('A' for Active; 'I' for Inactive)
REMARK    1  A    between atoms: C8_8  and  C9_9 
ROOT
HETATM    1  C1  UNL     1     -19.649   9.207 -14.092  1.00  0.00     0.048 C 
HETATM    2  C2  UNL     1     -20.557   8.628 -15.131  1.00  0.00    -0.061 A 
HETATM    3  C3  UNL     1     -20.131   7.584 -15.925  1.00  0.00     0.009 A 
HETATM    4  C4  UNL     1     -20.959   7.044 -16.886  1.00  0.00     0.031 A 
HETATM    5  C5  UNL     1     -22.238   7.515 -17.098  1.00  0.00     0.045 A 
HETATM    6  C6  UNL     1     -22.670   8.560 -16.308  1.00  0.00     0.006 A 
HETATM    7  C7  UNL     1     -21.832   9.105 -15.338  1.00  0.00     0.021 A 
HETATM    8  C8  UNL     1     -23.921   8.900 -16.634  1.00  0.00     0.031 A 
HETATM    9  C19 UNL     1     -24.314   8.002 -17.715  1.00  0.00     0.111 A 
HETATM   10  N1  UNL     1     -25.462   8.016 -18.304  1.00  0.00    -0.385 N 
ATOM     11  H11 UNL     1     -25.737   7.389 -19.059  1.00  0.00     0.157 HD
ATOM     12  H12 UNL     1     -26.272   8.615 -18.147  1.00  0.00     0.157 HD
HETATM   13  N2  UNL     1     -23.183   7.167 -17.934  1.00  0.00    -0.341 N 
ATOM     14  H2  UNL     1     -23.120   6.421 -18.628  1.00  0.00     0.167 HD
ENDROOT
BRANCH   8  15
HETATM   15  C9  UNL     1     -24.727   9.946 -16.039  1.00  0.00    -0.010 A 
HETATM   16  C10 UNL     1     -24.863  11.152 -16.676  1.00  0.00     0.013 A 
HETATM   17  C11 UNL     1     -25.625  12.132 -16.109  1.00  0.00     0.002 A 
HETATM   18  C12 UNL     1     -26.243  11.890 -14.903  1.00  0.00     0.012 A 
HETATM   19  C13 UNL     1     -26.110  10.686 -14.261  1.00  0.00    -0.025 A 
HETATM   20  C14 UNL     1     -26.733  10.430 -13.038  1.00  0.00     0.014 A 
HETATM   21  C18 UNL     1     -25.349   9.686 -14.815  1.00  0.00    -0.013 A 
HETATM   22  C15 UNL     1     -26.599   9.228 -12.400  1.00  0.00     0.024 A 
HETATM   23  C16 UNL     1     -25.826   8.251 -12.990  1.00  0.00     0.035 A 
HETATM   24 CL1  UNL     1     -25.681   6.723 -12.135  1.00  0.00    -0.084 Cl
HETATM   25  C17 UNL     1     -25.195   8.465 -14.196  1.00  0.00     0.037 A 
ENDBRANCH   8  15
TORSDOF 1
ENDMDL
MODEL 2
REMARK VINA RESULT: -7.749110607      1.867      2.907
REMARK  1 active torsions:
REMARK  status: ('A' for Active; 'I' for Inactive)
REMARK    1  A    between atoms: C8_8  and  C9_9 
ROOT
HETATM    1  C1  UNL     1     -19.549   8.844 -14.173  1.00  0.00     0.048 C 
HETATM    2  C2  UNL     1     -20.604   8.318 -15.095  1.00  0.00    -0.061 A 
HETATM    3  C3  UNL     1     -20.256   7.773 -16.312  1.00  0.00     0.009 A 
HETATM    4  C4  UNL     1     -21.220   7.286 -17.169  1.00  0.00     0.031 A 
HETATM    5  C5  UNL     1     -22.563   7.320 -16.856  1.00  0.00     0.045 A 
HETATM    6  C6  UNL     1     -22.918   7.865 -15.640  1.00  0.00     0.006 A 
HETATM    7  C7  UNL     1     -21.943   8.357 -14.774  1.00  0.00     0.021 A 
HETATM    8  C8  UNL     1     -24.245   7.826 -15.484  1.00  0.00     0.031 A 
HETATM    9  C19 UNL     1     -24.774   7.209 -16.696  1.00  0.00     0.111 A 
HETATM   10  N1  UNL     1     -26.025   6.994 -16.927  1.00  0.00    -0.385 N 
ATOM     11  H11 UNL     1     -26.395   6.562 -17.774  1.00  0.00     0.157 HD
ATOM     12  H12 UNL     1     -26.843   7.196 -16.353  1.00  0.00     0.157 HD
HETATM   13  N2  UNL     1     -23.633   6.927 -17.498  1.00  0.00    -0.341 N 
ATOM     14  H2  UNL     1     -23.648   6.490 -18.420  1.00  0.00     0.167 HD
ENDROOT
BRANCH   8  15
HETATM   15  C9  UNL     1     -25.008   8.299 -14.348  1.00  0.00    -0.010 A 
HETATM   16  C10 UNL     1     -25.150   7.504 -13.240  1.00  0.00     0.013 A 
HETATM   17  C11 UNL     1     -25.871   7.957 -12.173  1.00  0.00     0.002 A 
HETATM   18  C12 UNL     1     -26.442   9.208 -12.230  1.00  0.00     0.012 A 
HETATM   19  C13 UNL     1     -26.303  10.008 -13.335  1.00  0.00    -0.025 A 
HETATM   20  C14 UNL     1     -26.879  11.278 -13.403  1.00  0.00     0.014 A 
HETATM   21  C18 UNL     1     -25.582   9.571 -14.419  1.00  0.00    -0.013 A 
HETATM   22  C15 UNL     1     -26.738  12.073 -14.506  1.00  0.00     0.024 A 
HETATM   23  C16 UNL     1     -26.006  11.597 -15.573  1.00  0.00     0.035 A 
HETATM   24 CL1  UNL     1     -25.852  12.652 -16.969  1.00  0.00    -0.084 Cl
HETATM   25  C17 UNL     1     -25.423  10.350 -15.545  1.00  0.00     0.037 A 
ENDBRANCH   8  15
TORSDOF 1
ENDMDL
MODEL 3
REMARK VINA RESULT: -7.537249448      2.393      5.758
REMARK  1 active torsions:
REMARK  status: ('A' for Active; 'I' for Inactive)
REMARK    1  A    between atoms: C8_8  and  C9_9 
ROOT
HETATM    1  C1  UNL     1     -25.882  12.621 -16.624  1.00  0.00     0.048 C 
HETATM    2  C2  UNL     1     -25.986  11.582 -15.552  1.00  0.00    -0.061 A 
HETATM    3  C3  UNL     1     -26.580  11.884 -14.345  1.00  0.00     0.009 A 
HETATM    4  C4  UNL     1     -26.681  10.934 -13.350  1.00  0.00     0.031 A 
HETATM    5  C5  UNL     1     -26.200   9.652 -13.512  1.00  0.00     0.045 A 
HETATM    6  C6  UNL     1     -25.605   9.343 -14.717  1.00  0.00     0.006 A 
HETATM    7  C7  UNL     1     -25.503  10.303 -15.721  1.00  0.00     0.021 A 
HETATM    8  C8  UNL     1     -25.193   8.071 -14.718  1.00  0.00     0.031 A 
HETATM    9  C19 UNL     1     -25.554   7.530 -13.412  1.00  0.00     0.111 A 
HETATM   10  N1  UNL     1     -25.322   6.321 -13.025  1.00  0.00    -0.385 N 
ATOM     11  H11 UNL     1     -25.575   5.943 -12.112  1.00  0.00     0.157 HD
ATOM     12  H12 UNL     1     -24.870   5.551 -13.517  1.00  0.00     0.157 HD
HETATM   13  N2  UNL     1     -26.184   8.606 -12.725  1.00  0.00    -0.341 N 
ATOM     14  H2  UNL     1     -26.561   8.567 -11.778  1.00  0.00     0.167 HD
ENDROOT
BRANCH   8  15
HETATM   15  C9  UNL     1     -24.524   7.369 -15.793  1.00  0.00    -0.010 A 
HETATM   16  C10 UNL     1     -25.257   6.665 -16.713  1.00  0.00     0.013 A 
HETATM   17  C11 UNL     1     -24.619   6.006 -17.722  1.00  0.00     0.002 A 
HETATM   18  C12 UNL     1     -23.246   6.060 -17.798  1.00  0.00     0.012 A 
HETATM   19  C13 UNL     1     -22.506   6.762 -16.881  1.00  0.00    -0.025 A 
HETATM   20  C14 UNL     1     -21.113   6.823 -16.949  1.00  0.00     0.014 A 
HETATM   21  C18 UNL     1     -23.129   7.433 -15.857  1.00  0.00    -0.013 A 
HETATM   22  C15 UNL     1     -20.379   7.524 -16.033  1.00  0.00     0.024 A 
HETATM   23  C16 UNL     1     -21.043   8.183 -15.021  1.00  0.00     0.035 A 
HETATM   24 CL1  UNL     1     -20.059   9.071 -13.867  1.00  0.00    -0.084 Cl
HETATM   25  C17 UNL     1     -22.416   8.147 -14.920  1.00  0.00     0.037 A 
ENDBRANCH   8  15
TORSDOF 1
ENDMDL
MODEL 4
REMARK VINA RESULT: -7.455149298      1.852      3.163
REMARK  1 active torsions:
REMARK  status: ('A' for Active; 'I' for Inactive)
REMARK    1  A    between atoms: C8_8  and  C9_9 
ROOT
HETATM    1  C1  UNL     1     -24.066   5.580 -20.082  1.00  0.00     0.048 C 
HETATM    2  C2  UNL     1     -23.068   5.953 -19.032  1.00  0.00    -0.061 A 
HETATM    3  C3  UNL     1     -21.895   5.240 -18.901  1.00  0.00     0.009 A 
HETATM    4  C4  UNL     1     -20.969   5.575 -17.937  1.00  0.00     0.031 A 
HETATM    5  C5  UNL     1     -21.167   6.626 -17.066  1.00  0.00     0.045 A 
HETATM    6  C6  UNL     1     -22.338   7.344 -17.191  1.00  0.00     0.006 A 
HETATM    7  C7  UNL     1     -23.273   7.004 -18.166  1.00  0.00     0.021 A 
HETATM    8  C8  UNL     1     -22.381   8.323 -16.282  1.00  0.00     0.031 A 
HETATM    9  C19 UNL     1     -21.141   8.220 -15.520  1.00  0.00     0.111 A 
HETATM   10  N1  UNL     1     -20.809   8.996 -14.545  1.00  0.00    -0.385 N 
ATOM     11  H11 UNL     1     -19.942   8.924 -14.012  1.00  0.00     0.157 HD
ATOM     12  H12 UNL     1     -21.308   9.785 -14.135  1.00  0.00     0.157 HD
HETATM   13  N2  UNL     1     -20.444   7.119 -16.092  1.00  0.00    -0.341 N 
ATOM     14  H2  UNL     1     -19.533   6.771 -15.792  1.00  0.00     0.167 HD
ENDROOT
BRANCH   8  15
HETATM   15  C9  UNL     1     -23.440   9.292 -16.089  1.00  0.00    -0.010 A 
HETATM   16  C10 UNL     1     -23.434  10.465 -16.798  1.00  0.00     0.013 A 
HETATM   17  C11 UNL     1     -24.435  11.372 -16.609  1.00  0.00     0.002 A 
HETATM   18  C12 UNL     1     -25.435  11.091 -15.707  1.00  0.00     0.012 A 
HETATM   19  C13 UNL     1     -25.447   9.920 -14.994  1.00  0.00    -0.025 A 
HETATM   20  C14 UNL     1     -26.458   9.626 -14.076  1.00  0.00     0.014 A 
HETATM   21  C18 UNL     1     -24.449   8.993 -15.169  1.00  0.00    -0.013 A 
HETATM   22  C15 UNL     1     -26.466   8.457 -13.368  1.00  0.00     0.024 A 
HETATM   23  C16 UNL     1     -25.446   7.553 -13.573  1.00  0.00     0.035 A 
HETATM   24 CL1  UNL     1     -25.497   6.066 -12.640  1.00  0.00    -0.084 Cl
HETATM   25  C17 UNL     1     -24.432   7.807 -14.469  1.00  0.00     0.037 A 
ENDBRANCH   8  15
TORSDOF 1
ENDMDL
MODEL 5
REMARK VINA RESULT: -7.239028509      2.414      4.201
REMARK  1 active torsions:
REMARK  status: ('A' for Active; 'I' for Inactive)
REMARK    1  A    between atoms: C8_8  and  C9_9 
ROOT
HETATM    1  C1  UNL     1     -25.468   4.504 -18.840  1.00  0.00     0.048 C 
HETATM    2  C2  UNL     1     -24.349   5.410 -18.432  1.00  0.00    -0.061 A 
HETATM    3  C3  UNL     1     -23.244   5.560 -19.242  1.00  0.00     0.009 A 
HETATM    4  C4  UNL     1     -22.208   6.392 -18.876  1.00  0.00     0.031 A 
HETATM    5  C5  UNL     1     -22.224   7.106 -17.696  1.00  0.00     0.045 A 
HETATM    6  C6  UNL     1     -23.327   6.961 -16.880  1.00  0.00     0.006 A 
HETATM    7  C7  UNL     1     -24.374   6.119 -17.251  1.00  0.00     0.021 A 
HETATM    8  C8  UNL     1     -23.194   7.711 -15.782  1.00  0.00     0.031 A 
HETATM    9  C19 UNL     1     -21.907   8.386 -15.910  1.00  0.00     0.111 A 
HETATM   10  N1  UNL     1     -21.415   9.206 -15.043  1.00  0.00    -0.385 N 
ATOM     11  H11 UNL     1     -20.515   9.678 -15.133  1.00  0.00     0.157 HD
ATOM     12  H12 UNL     1     -21.797   9.527 -14.154  1.00  0.00     0.157 HD
HETATM   13  N2  UNL     1     -21.373   7.938 -17.151  1.00  0.00    -0.341 N 
ATOM     14  H2  UNL     1     -20.476   8.218 -17.549  1.00  0.00     0.167 HD
ENDROOT
BRANCH   8  15
HETATM   15  C9  UNL     1     -24.132   7.834 -14.686  1.00  0.00    -0.010 A 
HETATM   16  C10 UNL     1     -24.233   6.832 -13.755  1.00  0.00     0.013 A 
HETATM   17  C11 UNL     1     -25.119   6.956 -12.725  1.00  0.00     0.002 A 
HETATM   18  C12 UNL     1     -25.898   8.087 -12.641  1.00  0.00     0.012 A 
HETATM   19  C13 UNL     1     -25.802   9.092 -13.568  1.00  0.00    -0.025 A 
HETATM   20  C14 UNL     1     -26.587  10.244 -13.491  1.00  0.00     0.014 A 
HETATM   21  C18 UNL     1     -24.916   8.988 -14.612  1.00  0.00    -0.013 A 
HETATM   22  C15 UNL     1     -26.489  11.245 -14.418  1.00  0.00     0.024 A 
HETATM   23  C16 UNL     1     -25.587  11.101 -15.450  1.00  0.00     0.035 A 
HETATM   24 CL1  UNL     1     -25.494  12.411 -16.617  1.00  0.00    -0.084 Cl
HETATM   25  C17 UNL     1     -24.795   9.980 -15.561  1.00  0.00     0.037 A 
ENDBRANCH   8  15
TORSDOF 1
ENDMDL
