MODEL 1
REMARK VINA RESULT: -8.016708528      0.000      0.000
REMARK  1 active torsions:
REMARK  status: ('A' for Active; 'I' for Inactive)
REMARK    1  A    between atoms: C5_8  and  C6_9 
ROOT
HETATM    1  O1  UNL     1     -17.994   4.811 -17.964  1.00  0.00    -0.267 OA
HETATM    2  C1  UNL     1     -19.224   5.063 -18.144  1.00  0.00     0.257 A 
HETATM    3  N1  UNL     1     -19.791   6.026 -17.411  1.00  0.00    -0.321 N 
ATOM      4  H1  UNL     1     -19.223   6.527 -16.730  1.00  0.00     0.169 HD
HETATM    5  C2  UNL     1     -21.112   6.359 -17.545  1.00  0.00     0.069 A 
HETATM    6  C3  UNL     1     -21.795   5.636 -18.479  1.00  0.00     0.092 A 
HETATM    7  C4  UNL     1     -21.217   4.623 -19.258  1.00  0.00     0.044 A 
HETATM    8  C5  UNL     1     -19.886   4.323 -19.088  1.00  0.00     0.044 A 
HETATM    9  S1  UNL     1     -23.443   6.253 -18.455  1.00  0.00     0.209 S 
HETATM   10  O2  UNL     1     -24.356   5.148 -18.014  1.00  0.00    -0.217 OA
HETATM   11  O3  UNL     1     -23.834   6.842 -19.762  1.00  0.00    -0.217 OA
HETATM   12  C12 UNL     1     -23.186   7.444 -17.215  1.00  0.00     0.076 A 
HETATM   13  C13 UNL     1     -24.057   8.341 -16.649  1.00  0.00     0.025 A 
HETATM   14  C14 UNL     1     -23.637   9.222 -15.654  1.00  0.00     0.002 A 
HETATM   15  C15 UNL     1     -22.316   9.146 -15.271  1.00  0.00     0.001 A 
HETATM   16  C16 UNL     1     -21.475   8.251 -15.844  1.00  0.00     0.015 A 
HETATM   17  C17 UNL     1     -21.875   7.356 -16.847  1.00  0.00     0.014 A 
ENDROOT
BRANCH   8  18
HETATM   18  C6  UNL     1     -19.291   3.269 -19.899  1.00  0.00    -0.020 A 
HETATM   19  C7  UNL     1     -19.888   2.026 -19.986  1.00  0.00     0.015 A 
HETATM   20  C8  UNL     1     -19.343   1.012 -20.747  1.00  0.00     0.043 A 
HETATM   21  C9  UNL     1     -18.176   1.196 -21.457  1.00  0.00     0.116 A 
HETATM   22  F1  UNL     1     -17.625   0.206 -22.213  1.00  0.00    -0.206 F 
HETATM   23  C10 UNL     1     -17.576   2.441 -21.370  1.00  0.00     0.043 A 
HETATM   24  C11 UNL     1     -18.123   3.451 -20.610  1.00  0.00     0.015 A 
ENDBRANCH   8  18
TORSDOF 1
ENDMDL
MODEL 2
REMARK VINA RESULT: -7.931169919      4.908      7.464
REMARK  1 active torsions:
REMARK  status: ('A' for Active; 'I' for Inactive)
REMARK    1  A    between atoms: C5_8  and  C6_9 
ROOT
HETATM    1  O1  UNL     1     -23.469  10.861 -17.310  1.00  0.00    -0.267 OA
HETATM    2  C1  UNL     1     -24.207  10.495 -16.347  1.00  0.00     0.257 A 
HETATM    3  N1  UNL     1     -25.180  11.315 -15.940  1.00  0.00    -0.321 N 
ATOM      4  H1  UNL     1     -25.302  12.209 -16.414  1.00  0.00     0.169 HD
HETATM    5  C2  UNL     1     -26.019  10.993 -14.908  1.00  0.00     0.069 A 
HETATM    6  C3  UNL     1     -25.783   9.779 -14.332  1.00  0.00     0.092 A 
HETATM    7  C4  UNL     1     -24.766   8.905 -14.744  1.00  0.00     0.044 A 
HETATM    8  C5  UNL     1     -23.948   9.271 -15.787  1.00  0.00     0.044 A 
HETATM    9  S1  UNL     1     -26.979   9.611 -13.053  1.00  0.00     0.209 S 
HETATM   10  O2  UNL     1     -26.262   9.541 -11.739  1.00  0.00    -0.217 OA
HETATM   11  O3  UNL     1     -27.880   8.451 -13.286  1.00  0.00    -0.217 OA
HETATM   12  C12 UNL     1     -27.757  11.144 -13.312  1.00  0.00     0.076 A 
HETATM   13  C13 UNL     1     -28.816  11.725 -12.662  1.00  0.00     0.025 A 
HETATM   14  C14 UNL     1     -29.288  12.982 -13.035  1.00  0.00     0.002 A 
HETATM   15  C15 UNL     1     -28.642  13.606 -14.081  1.00  0.00     0.001 A 
HETATM   16  C16 UNL     1     -27.597  13.012 -14.706  1.00  0.00     0.015 A 
HETATM   17  C17 UNL     1     -27.105  11.748 -14.348  1.00  0.00     0.014 A 
ENDROOT
BRANCH   8  18
HETATM   18  C6  UNL     1     -22.894   8.359 -16.210  1.00  0.00    -0.020 A 
HETATM   19  C7  UNL     1     -23.092   7.498 -17.271  1.00  0.00     0.015 A 
HETATM   20  C8  UNL     1     -22.108   6.625 -17.690  1.00  0.00     0.043 A 
HETATM   21  C9  UNL     1     -20.881   6.574 -17.065  1.00  0.00     0.116 A 
HETATM   22  F1  UNL     1     -19.900   5.718 -17.465  1.00  0.00    -0.206 F 
HETATM   23  C10 UNL     1     -20.681   7.436 -16.000  1.00  0.00     0.043 A 
HETATM   24  C11 UNL     1     -21.664   8.307 -15.586  1.00  0.00     0.015 A 
ENDBRANCH   8  18
TORSDOF 1
ENDMDL
MODEL 3
REMARK VINA RESULT: -7.709255692      3.665      7.516
REMARK  1 active torsions:
REMARK  status: ('A' for Active; 'I' for Inactive)
REMARK    1  A    between atoms: C5_8  and  C6_9 
ROOT
HETATM    1  O1  UNL     1     -20.707   7.744 -16.006  1.00  0.00    -0.267 OA
HETATM    2  C1  UNL     1     -21.321   6.973 -16.804  1.00  0.00     0.257 A 
HETATM    3  N1  UNL     1     -20.616   6.064 -17.484  1.00  0.00    -0.321 N 
ATOM      4  H1  UNL     1     -19.607   6.016 -17.342  1.00  0.00     0.169 HD
HETATM    5  C2  UNL     1     -21.203   5.196 -18.363  1.00  0.00     0.069 A 
HETATM    6  C3  UNL     1     -22.554   5.332 -18.489  1.00  0.00     0.092 A 
HETATM    7  C4  UNL     1     -23.312   6.280 -17.786  1.00  0.00     0.044 A 
HETATM    8  C5  UNL     1     -22.678   7.132 -16.912  1.00  0.00     0.044 A 
HETATM    9  S1  UNL     1     -23.054   4.117 -19.660  1.00  0.00     0.209 S 
HETATM   10  O2  UNL     1     -23.620   4.818 -20.858  1.00  0.00    -0.217 OA
HETATM   11  O3  UNL     1     -23.995   3.130 -19.067  1.00  0.00    -0.217 OA
HETATM   12  C12 UNL     1     -21.469   3.464 -19.951  1.00  0.00     0.076 A 
HETATM   13  C13 UNL     1     -21.064   2.449 -20.780  1.00  0.00     0.025 A 
HETATM   14  C14 UNL     1     -19.723   2.079 -20.863  1.00  0.00     0.002 A 
HETATM   15  C15 UNL     1     -18.833   2.780 -20.077  1.00  0.00     0.001 A 
HETATM   16  C16 UNL     1     -19.258   3.779 -19.266  1.00  0.00     0.015 A 
HETATM   17  C17 UNL     1     -20.602   4.168 -19.166  1.00  0.00     0.014 A 
ENDROOT
BRANCH   8  18
HETATM   18  C6  UNL     1     -23.470   8.114 -16.185  1.00  0.00    -0.020 A 
HETATM   19  C7  UNL     1     -24.117   7.770 -15.014  1.00  0.00     0.015 A 
HETATM   20  C8  UNL     1     -24.874   8.683 -14.308  1.00  0.00     0.043 A 
HETATM   21  C9  UNL     1     -25.017   9.984 -14.742  1.00  0.00     0.116 A 
HETATM   22  F1  UNL     1     -25.760  10.897 -14.057  1.00  0.00    -0.206 F 
HETATM   23  C10 UNL     1     -24.369  10.331 -15.916  1.00  0.00     0.043 A 
HETATM   24  C11 UNL     1     -23.615   9.417 -16.617  1.00  0.00     0.015 A 
ENDBRANCH   8  18
TORSDOF 1
ENDMDL
MODEL 4
REMARK VINA RESULT: -7.640044315      3.775      7.721
REMARK  1 active torsions:
REMARK  status: ('A' for Active; 'I' for Inactive)
REMARK    1  A    between atoms: C5_8  and  C6_9 
ROOT
HETATM    1  O1  UNL     1     -20.979   8.507 -16.066  1.00  0.00    -0.267 OA
HETATM    2  C1  UNL     1     -21.572   7.654 -16.794  1.00  0.00     0.257 A 
HETATM    3  N1  UNL     1     -20.841   6.712 -17.397  1.00  0.00    -0.321 N 
ATOM      4  H1  UNL     1     -19.831   6.704 -17.255  1.00  0.00     0.169 HD
HETATM    5  C2  UNL     1     -21.404   5.755 -18.198  1.00  0.00     0.069 A 
HETATM    6  C3  UNL     1     -22.759   5.843 -18.331  1.00  0.00     0.092 A 
HETATM    7  C4  UNL     1     -23.543   6.825 -17.708  1.00  0.00     0.044 A 
HETATM    8  C5  UNL     1     -22.932   7.765 -16.911  1.00  0.00     0.044 A 
HETATM    9  S1  UNL     1     -23.225   4.520 -19.394  1.00  0.00     0.209 S 
HETATM   10  O2  UNL     1     -23.811   5.101 -20.645  1.00  0.00    -0.217 OA
HETATM   11  O3  UNL     1     -24.137   3.560 -18.717  1.00  0.00    -0.217 OA
HETATM   12  C12 UNL     1     -21.622   3.890 -19.633  1.00  0.00     0.076 A 
HETATM   13  C13 UNL     1     -21.189   2.820 -20.375  1.00  0.00     0.025 A 
HETATM   14  C14 UNL     1     -19.838   2.482 -20.430  1.00  0.00     0.002 A 
HETATM   15  C15 UNL     1     -18.968   3.272 -19.709  1.00  0.00     0.001 A 
HETATM   16  C16 UNL     1     -19.420   4.323 -18.985  1.00  0.00     0.015 A 
HETATM   17  C17 UNL     1     -20.775   4.681 -18.914  1.00  0.00     0.014 A 
ENDROOT
BRANCH   8  18
HETATM   18  C6  UNL     1     -23.752   8.782 -16.267  1.00  0.00    -0.020 A 
HETATM   19  C7  UNL     1     -24.008   9.983 -16.899  1.00  0.00     0.015 A 
HETATM   20  C8  UNL     1     -24.781  10.963 -16.308  1.00  0.00     0.043 A 
HETATM   21  C9  UNL     1     -25.332  10.784 -15.057  1.00  0.00     0.116 A 
HETATM   22  F1  UNL     1     -26.097  11.740 -14.460  1.00  0.00    -0.206 F 
HETATM   23  C10 UNL     1     -25.076   9.581 -14.422  1.00  0.00     0.043 A 
HETATM   24  C11 UNL     1     -24.305   8.606 -15.015  1.00  0.00     0.015 A 
ENDBRANCH   8  18
TORSDOF 1
ENDMDL
MODEL 5
REMARK VINA RESULT: -7.464610672      4.046      6.298
REMARK  1 active torsions:
REMARK  status: ('A' for Active; 'I' for Inactive)
REMARK    1  A    between atoms: C5_8  and  C6_9 
ROOT
HETATM    1  O1  UNL     1     -23.093  10.113 -17.414  1.00  0.00    -0.267 OA
HETATM    2  C1  UNL     1     -23.779   9.537 -16.517  1.00  0.00     0.257 A 
HETATM    3  N1  UNL     1     -24.679  10.257 -15.842  1.00  0.00    -0.321 N 
ATOM      4  H1  UNL     1     -24.789  11.246 -16.066  1.00  0.00     0.169 HD
HETATM    5  C2  UNL     1     -25.460   9.711 -14.859  1.00  0.00     0.069 A 
HETATM    6  C3  UNL     1     -25.245   8.384 -14.627  1.00  0.00     0.092 A 
HETATM    7  C4  UNL     1     -24.305   7.611 -15.325  1.00  0.00     0.044 A 
HETATM    8  C5  UNL     1     -23.544   8.204 -16.304  1.00  0.00     0.044 A 
HETATM    9  S1  UNL     1     -26.357   7.934 -13.340  1.00  0.00     0.209 S 
HETATM   10  O2  UNL     1     -25.555   7.510 -12.147  1.00  0.00    -0.217 OA
HETATM   11  O3  UNL     1     -27.329   6.899 -13.783  1.00  0.00    -0.217 OA
HETATM   12  C12 UNL     1     -27.073   9.506 -13.143  1.00  0.00     0.076 A 
HETATM   13  C13 UNL     1     -28.054   9.936 -12.286  1.00  0.00     0.025 A 
HETATM   14  C14 UNL     1     -28.487  11.261 -12.294  1.00  0.00     0.002 A 
HETATM   15  C15 UNL     1     -27.884  12.109 -13.198  1.00  0.00     0.001 A 
HETATM   16  C16 UNL     1     -26.917  11.660 -14.034  1.00  0.00     0.015 A 
HETATM   17  C17 UNL     1     -26.465  10.332 -14.044  1.00  0.00     0.014 A 
ENDROOT
BRANCH   8  18
HETATM   18  C6  UNL     1     -22.569   7.397 -17.025  1.00  0.00    -0.020 A 
HETATM   19  C7  UNL     1     -22.887   6.829 -18.243  1.00  0.00     0.015 A 
HETATM   20  C8  UNL     1     -21.980   6.060 -18.944  1.00  0.00     0.043 A 
HETATM   21  C9  UNL     1     -20.712   5.824 -18.457  1.00  0.00     0.116 A 
HETATM   22  F1  UNL     1     -19.805   5.068 -19.136  1.00  0.00    -0.206 F 
HETATM   23  C10 UNL     1     -20.391   6.392 -17.235  1.00  0.00     0.043 A 
HETATM   24  C11 UNL     1     -21.299   7.160 -16.539  1.00  0.00     0.015 A 
ENDBRANCH   8  18
TORSDOF 1
ENDMDL
