MODEL 1
REMARK VINA RESULT: -8.191996285      0.000      0.000
REMARK  6 active torsions:
REMARK  status: ('A' for Active; 'I' for Inactive)
REMARK    1  A    between atoms: C2_5  and  C3_6 
REMARK    2  A    between atoms: C2_5  and  C9_12 
REMARK    3  A    between atoms: N2_20  and  C16_21 
REMARK    4  A    between atoms: C16_21  and  C17_22 
REMARK    5  A    between atoms: C17_22  and  O3_23 
REMARK    6  A    between atoms: C17_22  and  C18_25 
ROOT
HETATM    1  O1  UNL     1     -26.584   4.222 -14.441  1.00  0.00    -0.247 OA
HETATM    2  C1  UNL     1     -26.210   5.408 -14.446  1.00  0.00     0.326 C 
HETATM    3  N1  UNL     1     -25.364   5.965 -13.436  1.00  0.00    -0.317 N 
ATOM      4  H1  UNL     1     -24.893   5.451 -12.692  1.00  0.00     0.166 HD
HETATM    5  C2  UNL     1     -25.300   7.387 -13.664  1.00  0.00     0.171 C 
HETATM    6  C15 UNL     1     -25.884   7.575 -14.990  1.00  0.00     0.266 C 
HETATM    7  O2  UNL     1     -25.830   8.628 -15.682  1.00  0.00    -0.269 OA
HETATM    8  N2  UNL     1     -26.552   6.369 -15.420  1.00  0.00    -0.265 N 
ENDROOT
BRANCH   5   9
HETATM    9  C3  UNL     1     -26.092   8.039 -12.567  1.00  0.00    -0.016 A 
HETATM   10  C4  UNL     1     -25.993   7.516 -11.289  1.00  0.00     0.010 A 
HETATM   11  C5  UNL     1     -26.704   8.080 -10.238  1.00  0.00     0.001 A 
HETATM   12  C6  UNL     1     -27.513   9.168 -10.465  1.00  0.00     0.000 A 
HETATM   13  C7  UNL     1     -27.620   9.697 -11.732  1.00  0.00     0.001 A 
HETATM   14  C8  UNL     1     -26.907   9.130 -12.786  1.00  0.00     0.010 A 
ENDBRANCH   5   9
BRANCH   5  15
HETATM   15  C9  UNL     1     -23.879   7.800 -13.588  1.00  0.00    -0.016 A 
HETATM   16  C10 UNL     1     -22.853   6.883 -13.764  1.00  0.00     0.010 A 
HETATM   17  C11 UNL     1     -21.520   7.244 -13.696  1.00  0.00     0.001 A 
HETATM   18  C12 UNL     1     -21.170   8.558 -13.446  1.00  0.00     0.000 A 
HETATM   19  C13 UNL     1     -22.167   9.477 -13.270  1.00  0.00     0.001 A 
HETATM   20  C14 UNL     1     -23.511   9.106 -13.340  1.00  0.00     0.010 A 
ENDBRANCH   5  15
BRANCH   8  21
HETATM   21  C16 UNL     1     -27.367   6.285 -16.612  1.00  0.00     0.173 C 
BRANCH  21  22
HETATM   22  C17 UNL     1     -26.577   6.263 -17.869  1.00  0.00     0.169 C 
BRANCH  22  23
HETATM   23  O3  UNL     1     -26.323   7.576 -18.256  1.00  0.00    -0.389 OA
ATOM     24  H3  UNL     1     -26.261   7.605 -19.203  1.00  0.00     0.210 HD
ENDBRANCH  22  23
BRANCH  22  25
HETATM   25  C18 UNL     1     -25.297   5.568 -17.796  1.00  0.00    -0.028 A 
HETATM   26  C19 UNL     1     -24.085   6.193 -17.569  1.00  0.00     0.011 A 
HETATM   27  C20 UNL     1     -22.902   5.488 -17.511  1.00  0.00     0.024 A 
HETATM   28  C21 UNL     1     -22.871   4.120 -17.677  1.00  0.00     0.034 A 
HETATM   29 CL1  UNL     1     -21.356   3.220 -17.604  1.00  0.00    -0.084 Cl
HETATM   30  C22 UNL     1     -24.070   3.480 -17.905  1.00  0.00     0.024 A 
HETATM   31  C23 UNL     1     -25.269   4.202 -17.962  1.00  0.00     0.011 A 
ENDBRANCH  22  25
ENDBRANCH  21  22
ENDBRANCH   8  21
TORSDOF 6
ENDMDL
MODEL 2
REMARK VINA RESULT: -8.143625161      0.052      1.238
REMARK  6 active torsions:
REMARK  status: ('A' for Active; 'I' for Inactive)
REMARK    1  A    between atoms: C2_5  and  C3_6 
REMARK    2  A    between atoms: C2_5  and  C9_12 
REMARK    3  A    between atoms: N2_20  and  C16_21 
REMARK    4  A    between atoms: C16_21  and  C17_22 
REMARK    5  A    between atoms: C17_22  and  O3_23 
REMARK    6  A    between atoms: C17_22  and  C18_25 
ROOT
HETATM    1  O1  UNL     1     -26.572   4.212 -14.470  1.00  0.00    -0.247 OA
HETATM    2  C1  UNL     1     -26.196   5.397 -14.463  1.00  0.00     0.326 C 
HETATM    3  N1  UNL     1     -25.345   5.941 -13.451  1.00  0.00    -0.317 N 
ATOM      4  H1  UNL     1     -24.873   5.419 -12.714  1.00  0.00     0.166 HD
HETATM    5  C2  UNL     1     -25.279   7.366 -13.665  1.00  0.00     0.171 C 
HETATM    6  C15 UNL     1     -25.867   7.569 -14.987  1.00  0.00     0.266 C 
HETATM    7  O2  UNL     1     -25.813   8.629 -15.668  1.00  0.00    -0.269 OA
HETATM    8  N2  UNL     1     -26.538   6.368 -15.426  1.00  0.00    -0.265 N 
ENDROOT
BRANCH   5   9
HETATM    9  C3  UNL     1     -26.066   8.009 -12.558  1.00  0.00    -0.016 A 
HETATM   10  C4  UNL     1     -25.943   7.489 -11.281  1.00  0.00     0.010 A 
HETATM   11  C5  UNL     1     -26.648   8.044 -10.222  1.00  0.00     0.001 A 
HETATM   12  C6  UNL     1     -27.475   9.120 -10.439  1.00  0.00     0.000 A 
HETATM   13  C7  UNL     1     -27.605   9.646 -11.705  1.00  0.00     0.001 A 
HETATM   14  C8  UNL     1     -26.898   9.088 -12.768  1.00  0.00     0.010 A 
ENDBRANCH   5   9
BRANCH   5  15
HETATM   15  C9  UNL     1     -23.857   7.776 -13.590  1.00  0.00    -0.016 A 
HETATM   16  C10 UNL     1     -23.499   9.092 -13.336  1.00  0.00     0.010 A 
HETATM   17  C11 UNL     1     -22.179   9.498 -13.263  1.00  0.00     0.001 A 
HETATM   18  C12 UNL     1     -21.161   8.581 -13.445  1.00  0.00     0.000 A 
HETATM   19  C13 UNL     1     -21.493   7.278 -13.697  1.00  0.00     0.001 A 
HETATM   20  C14 UNL     1     -22.827   6.875 -13.769  1.00  0.00     0.010 A 
ENDBRANCH   5  15
BRANCH   8  21
HETATM   21  C16 UNL     1     -27.358   6.299 -16.616  1.00  0.00     0.173 C 
BRANCH  21  22
HETATM   22  C17 UNL     1     -26.572   6.252 -17.875  1.00  0.00     0.169 C 
BRANCH  22  23
HETATM   23  O3  UNL     1     -26.267   7.555 -18.256  1.00  0.00    -0.389 OA
ATOM     24  H3  UNL     1     -26.540   7.678 -19.157  1.00  0.00     0.210 HD
ENDBRANCH  22  23
BRANCH  22  25
HETATM   25  C18 UNL     1     -25.319   5.507 -17.807  1.00  0.00    -0.028 A 
HETATM   26  C19 UNL     1     -25.220   4.135 -17.948  1.00  0.00     0.011 A 
HETATM   27  C20 UNL     1     -24.010   3.481 -17.873  1.00  0.00     0.024 A 
HETATM   28  C21 UNL     1     -22.835   4.166 -17.653  1.00  0.00     0.034 A 
HETATM   29 CL1  UNL     1     -21.286   3.327 -17.555  1.00  0.00    -0.084 Cl
HETATM   30  C22 UNL     1     -22.914   5.534 -17.509  1.00  0.00     0.024 A 
HETATM   31  C23 UNL     1     -24.147   6.193 -17.587  1.00  0.00     0.011 A 
ENDBRANCH  22  25
ENDBRANCH  21  22
ENDBRANCH   8  21
TORSDOF 6
ENDMDL
MODEL 3
REMARK VINA RESULT: -7.471310748      3.765      5.611
REMARK  6 active torsions:
REMARK  status: ('A' for Active; 'I' for Inactive)
REMARK    1  A    between atoms: C2_5  and  C3_6 
REMARK    2  A    between atoms: C2_5  and  C9_12 
REMARK    3  A    between atoms: N2_20  and  C16_21 
REMARK    4  A    between atoms: C16_21  and  C17_22 
REMARK    5  A    between atoms: C17_22  and  O3_23 
REMARK    6  A    between atoms: C17_22  and  C18_25 
ROOT
HETATM    1  O1  UNL     1     -28.405   6.862 -15.400  1.00  0.00    -0.247 OA
HETATM    2  C1  UNL     1     -27.545   7.689 -15.052  1.00  0.00     0.326 C 
HETATM    3  N1  UNL     1     -26.595   7.438 -14.013  1.00  0.00    -0.317 N 
ATOM      4  H1  UNL     1     -26.440   6.550 -13.537  1.00  0.00     0.166 HD
HETATM    5  C2  UNL     1     -25.895   8.674 -13.761  1.00  0.00     0.171 C 
HETATM    6  C15 UNL     1     -26.264   9.541 -14.878  1.00  0.00     0.266 C 
HETATM    7  O2  UNL     1     -25.713  10.634 -15.183  1.00  0.00    -0.269 OA
HETATM    8  N2  UNL     1     -27.373   8.973 -15.608  1.00  0.00    -0.265 N 
ENDROOT
BRANCH   5   9
HETATM    9  C3  UNL     1     -26.373   9.181 -12.431  1.00  0.00    -0.016 A 
HETATM   10  C4  UNL     1     -26.520   8.271 -11.398  1.00  0.00     0.010 A 
HETATM   11  C5  UNL     1     -26.959   8.686 -10.148  1.00  0.00     0.001 A 
HETATM   12  C6  UNL     1     -27.250  10.011  -9.930  1.00  0.00     0.000 A 
HETATM   13  C7  UNL     1     -27.108  10.926 -10.949  1.00  0.00     0.001 A 
HETATM   14  C8  UNL     1     -26.668  10.508 -12.203  1.00  0.00     0.010 A 
ENDBRANCH   5   9
BRANCH   5  15
HETATM   15  C9  UNL     1     -24.444   8.377 -13.708  1.00  0.00    -0.016 A 
HETATM   16  C10 UNL     1     -23.961   7.101 -13.960  1.00  0.00     0.010 A 
HETATM   17  C11 UNL     1     -22.613   6.799 -13.914  1.00  0.00     0.001 A 
HETATM   18  C12 UNL     1     -21.692   7.784 -13.609  1.00  0.00     0.000 A 
HETATM   19  C13 UNL     1     -22.149   9.049 -13.357  1.00  0.00     0.001 A 
HETATM   20  C14 UNL     1     -23.511   9.347 -13.405  1.00  0.00     0.010 A 
ENDBRANCH   5  15
BRANCH   8  21
HETATM   21  C16 UNL     1     -28.077   9.668 -16.664  1.00  0.00     0.173 C 
BRANCH  21  22
HETATM   22  C17 UNL     1     -29.417  10.163 -16.256  1.00  0.00     0.169 C 
BRANCH  22  23
HETATM   23  O3  UNL     1     -30.202   9.071 -15.899  1.00  0.00    -0.389 OA
ATOM     24  H3  UNL     1     -31.010   9.392 -15.517  1.00  0.00     0.210 HD
ENDBRANCH  22  23
BRANCH  22  25
HETATM   25  C18 UNL     1     -29.428  11.100 -15.138  1.00  0.00    -0.028 A 
HETATM   26  C19 UNL     1     -28.790  12.326 -15.144  1.00  0.00     0.011 A 
HETATM   27  C20 UNL     1     -28.831  13.173 -14.057  1.00  0.00     0.024 A 
HETATM   28  C21 UNL     1     -29.514  12.836 -12.909  1.00  0.00     0.034 A 
HETATM   29 CL1  UNL     1     -29.565  13.922 -11.519  1.00  0.00    -0.084 Cl
HETATM   30  C22 UNL     1     -30.157  11.618 -12.885  1.00  0.00     0.024 A 
HETATM   31  C23 UNL     1     -30.111  10.762 -13.992  1.00  0.00     0.011 A 
ENDBRANCH  22  25
ENDBRANCH  21  22
ENDBRANCH   8  21
TORSDOF 6
ENDMDL
MODEL 4
REMARK VINA RESULT: -7.465492530      1.012      3.797
REMARK  6 active torsions:
REMARK  status: ('A' for Active; 'I' for Inactive)
REMARK    1  A    between atoms: C2_5  and  C3_6 
REMARK    2  A    between atoms: C2_5  and  C9_12 
REMARK    3  A    between atoms: N2_20  and  C16_21 
REMARK    4  A    between atoms: C16_21  and  C17_22 
REMARK    5  A    between atoms: C17_22  and  O3_23 
REMARK    6  A    between atoms: C17_22  and  C18_25 
ROOT
HETATM    1  O1  UNL     1     -26.780   7.982 -17.255  1.00  0.00    -0.247 OA
HETATM    2  C1  UNL     1     -26.486   7.563 -16.122  1.00  0.00     0.326 C 
HETATM    3  N1  UNL     1     -26.126   8.425 -15.039  1.00  0.00    -0.317 N 
ATOM      4  H1  UNL     1     -26.180   9.443 -15.035  1.00  0.00     0.166 HD
HETATM    5  C2  UNL     1     -25.673   7.589 -13.955  1.00  0.00     0.171 C 
HETATM    6  C15 UNL     1     -26.065   6.236 -14.344  1.00  0.00     0.266 C 
HETATM    7  O2  UNL     1     -26.066   5.221 -13.596  1.00  0.00    -0.269 OA
HETATM    8  N2  UNL     1     -26.460   6.208 -15.733  1.00  0.00    -0.265 N 
ENDROOT
BRANCH   5   9
HETATM    9  C3  UNL     1     -24.186   7.773 -13.857  1.00  0.00    -0.016 A 
HETATM   10  C4  UNL     1     -23.688   9.065 -13.806  1.00  0.00     0.010 A 
HETATM   11  C5  UNL     1     -22.322   9.291 -13.715  1.00  0.00     0.001 A 
HETATM   12  C6  UNL     1     -21.452   8.228 -13.673  1.00  0.00     0.000 A 
HETATM   13  C7  UNL     1     -21.935   6.939 -13.723  1.00  0.00     0.001 A 
HETATM   14  C8  UNL     1     -23.307   6.712 -13.815  1.00  0.00     0.010 A 
ENDBRANCH   5   9
BRANCH   5  15
HETATM   15  C9  UNL     1     -26.333   8.053 -12.712  1.00  0.00    -0.016 A 
HETATM   16  C10 UNL     1     -27.350   8.996 -12.745  1.00  0.00     0.010 A 
HETATM   17  C11 UNL     1     -27.979   9.445 -11.599  1.00  0.00     0.001 A 
HETATM   18  C12 UNL     1     -27.601   8.955 -10.363  1.00  0.00     0.000 A 
HETATM   19  C13 UNL     1     -26.599   8.025 -10.309  1.00  0.00     0.001 A 
HETATM   20  C14 UNL     1     -25.968   7.575 -11.470  1.00  0.00     0.010 A 
ENDBRANCH   5  15
BRANCH   8  21
HETATM   21  C16 UNL     1     -26.742   4.990 -16.461  1.00  0.00     0.173 C 
BRANCH  21  22
HETATM   22  C17 UNL     1     -25.984   4.872 -17.733  1.00  0.00     0.169 C 
BRANCH  22  23
HETATM   23  O3  UNL     1     -26.325   5.944 -18.552  1.00  0.00    -0.389 OA
ATOM     24  H3  UNL     1     -25.820   5.883 -19.354  1.00  0.00     0.210 HD
ENDBRANCH  22  23
BRANCH  22  25
HETATM   25  C18 UNL     1     -24.531   4.861 -17.601  1.00  0.00    -0.028 A 
HETATM   26  C19 UNL     1     -23.767   5.977 -17.316  1.00  0.00     0.011 A 
HETATM   27  C20 UNL     1     -22.395   5.910 -17.204  1.00  0.00     0.024 A 
HETATM   28  C21 UNL     1     -21.717   4.723 -17.373  1.00  0.00     0.034 A 
HETATM   29 CL1  UNL     1     -19.960   4.640 -17.231  1.00  0.00    -0.084 Cl
HETATM   30  C22 UNL     1     -22.462   3.600 -17.659  1.00  0.00     0.024 A 
HETATM   31  C23 UNL     1     -23.856   3.673 -17.770  1.00  0.00     0.011 A 
ENDBRANCH  22  25
ENDBRANCH  21  22
ENDBRANCH   8  21
TORSDOF 6
ENDMDL
MODEL 5
REMARK VINA RESULT: -7.333719792      1.532      4.116
REMARK  6 active torsions:
REMARK  status: ('A' for Active; 'I' for Inactive)
REMARK    1  A    between atoms: C2_5  and  C3_6 
REMARK    2  A    between atoms: C2_5  and  C9_12 
REMARK    3  A    between atoms: N2_20  and  C16_21 
REMARK    4  A    between atoms: C16_21  and  C17_22 
REMARK    5  A    between atoms: C17_22  and  O3_23 
REMARK    6  A    between atoms: C17_22  and  C18_25 
ROOT
HETATM    1  O1  UNL     1     -26.190   7.746 -17.561  1.00  0.00    -0.247 OA
HETATM    2  C1  UNL     1     -25.994   7.379 -16.390  1.00  0.00     0.326 C 
HETATM    3  N1  UNL     1     -25.830   8.292 -15.301  1.00  0.00    -0.317 N 
ATOM      4  H1  UNL     1     -25.966   9.302 -15.335  1.00  0.00     0.166 HD
HETATM    5  C2  UNL     1     -25.437   7.521 -14.147  1.00  0.00     0.171 C 
HETATM    6  C15 UNL     1     -25.671   6.132 -14.535  1.00  0.00     0.266 C 
HETATM    7  O2  UNL     1     -25.675   5.137 -13.760  1.00  0.00    -0.269 OA
HETATM    8  N2  UNL     1     -25.902   6.040 -15.957  1.00  0.00    -0.265 N 
ENDROOT
BRANCH   5   9
HETATM    9  C3  UNL     1     -23.990   7.832 -13.890  1.00  0.00    -0.016 A 
HETATM   10  C4  UNL     1     -23.635   9.150 -13.656  1.00  0.00     0.010 A 
HETATM   11  C5  UNL     1     -22.312   9.491 -13.412  1.00  0.00     0.001 A 
HETATM   12  C6  UNL     1     -21.344   8.516 -13.401  1.00  0.00     0.000 A 
HETATM   13  C7  UNL     1     -21.685   7.202 -13.633  1.00  0.00     0.001 A 
HETATM   14  C8  UNL     1     -23.013   6.860 -13.878  1.00  0.00     0.010 A 
ENDBRANCH   5   9
BRANCH   5  15
HETATM   15  C9  UNL     1     -26.269   7.955 -13.001  1.00  0.00    -0.016 A 
HETATM   16  C10 UNL     1     -25.928   7.624 -11.697  1.00  0.00     0.010 A 
HETATM   17  C11 UNL     1     -26.688   8.016 -10.611  1.00  0.00     0.001 A 
HETATM   18  C12 UNL     1     -27.834   8.766 -10.803  1.00  0.00     0.000 A 
HETATM   19  C13 UNL     1     -28.188   9.102 -12.081  1.00  0.00     0.001 A 
HETATM   20  C14 UNL     1     -27.416   8.703 -13.172  1.00  0.00     0.010 A 
ENDBRANCH   5  15
BRANCH   8  21
HETATM   21  C16 UNL     1     -26.001   4.787 -16.673  1.00  0.00     0.173 C 
BRANCH  21  22
HETATM   22  C17 UNL     1     -25.098   4.705 -17.850  1.00  0.00     0.169 C 
BRANCH  22  23
HETATM   23  O3  UNL     1     -24.039   5.588 -17.658  1.00  0.00    -0.389 OA
ATOM     24  H3  UNL     1     -23.230   5.091 -17.653  1.00  0.00     0.210 HD
ENDBRANCH  22  23
BRANCH  22  25
HETATM   25  C18 UNL     1     -24.532   3.388 -18.119  1.00  0.00    -0.028 A 
HETATM   26  C19 UNL     1     -25.280   2.235 -18.269  1.00  0.00     0.011 A 
HETATM   27  C20 UNL     1     -24.693   1.014 -18.521  1.00  0.00     0.024 A 
HETATM   28  C21 UNL     1     -23.327   0.883 -18.636  1.00  0.00     0.034 A 
HETATM   29 CL1  UNL     1     -22.577  -0.681 -18.956  1.00  0.00    -0.084 Cl
HETATM   30  C22 UNL     1     -22.564   2.022 -18.489  1.00  0.00     0.024 A 
HETATM   31  C23 UNL     1     -23.167   3.260 -18.234  1.00  0.00     0.011 A 
ENDBRANCH  22  25
ENDBRANCH  21  22
ENDBRANCH   8  21
TORSDOF 6
ENDMDL
