MODEL 1
REMARK VINA RESULT: -7.420467167      0.000      0.000
REMARK  5 active torsions:
REMARK  status: ('A' for Active; 'I' for Inactive)
REMARK    1  A    between atoms: S1_2  and  C2_4 
REMARK    2  A    between atoms: C5_7  and  C6_8 
REMARK    3  A    between atoms: C6_8  and  C7_9 
REMARK    4  A    between atoms: C11_13  and  C12_14 
REMARK    5  A    between atoms: C15_17  and  S2_18 
ROOT
HETATM    1  C7  UNL     1       7.820  37.559  76.478  1.00  0.00     0.051 C 
HETATM    2  C8  UNL     1       8.037  38.574  75.317  1.00  0.00     0.043 C 
HETATM    3  C9  UNL     1       8.890  36.557  76.279  1.00  0.00     0.008 C 
HETATM    4  C10 UNL     1       8.747  35.255  76.370  1.00  0.00    -0.055 C 
HETATM    5  C11 UNL     1       9.205  33.814  76.325  1.00  0.00     0.050 C 
HETATM    6  C18 UNL     1       7.793  33.369  76.291  1.00  0.00     0.037 C 
HETATM    7  C19 UNL     1       7.408  34.712  76.782  1.00  0.00     0.062 C 
HETATM    8  C20 UNL     1       7.137  34.744  78.272  1.00  0.00     0.030 C 
HETATM    9  C21 UNL     1       6.428  35.526  76.005  1.00  0.00     0.231 C 
HETATM   10  O4  UNL     1       5.591  35.063  75.227  1.00  0.00    -0.272 OA
HETATM   11  N1  UNL     1       6.528  36.951  76.232  1.00  0.00    -0.348 N 
ATOM     12  H1  UNL     1       5.687  37.529  76.220  1.00  0.00     0.163 HD
ENDROOT
BRANCH   1  13
HETATM   13  C6  UNL     1       7.840  38.288  77.766  1.00  0.00     0.073 C 
BRANCH  13  14
HETATM   14  C5  UNL     1       6.489  38.491  78.347  1.00  0.00    -0.055 A 
HETATM   15  C4  UNL     1       5.674  39.511  77.912  1.00  0.00     0.009 A 
HETATM   16  C3  UNL     1       4.412  39.720  78.443  1.00  0.00     0.021 A 
HETATM   17  C2  UNL     1       3.919  38.902  79.441  1.00  0.00     0.031 A 
HETATM   18  C23 UNL     1       4.754  37.887  79.860  1.00  0.00     0.021 A 
HETATM   19  C22 UNL     1       6.007  37.670  79.342  1.00  0.00     0.009 A 
BRANCH  17  20
HETATM   20  S1  UNL     1       2.326  39.154  80.123  1.00  0.00     0.045 S 
HETATM   21  C1  UNL     1       2.016  37.994  81.436  1.00  0.00     0.133 C 
HETATM   22  O1  UNL     1       2.303  40.695  80.834  1.00  0.00    -0.253 OA
ENDBRANCH  17  20
ENDBRANCH  13  14
ENDBRANCH   1  13
BRANCH   5  23
HETATM   23  C12 UNL     1      10.096  33.501  77.407  1.00  0.00    -0.050 A 
HETATM   24  C13 UNL     1      11.189  34.213  77.835  1.00  0.00     0.009 A 
HETATM   25  C14 UNL     1      12.003  33.845  78.879  1.00  0.00     0.025 A 
HETATM   26  C15 UNL     1      11.734  32.694  79.562  1.00  0.00     0.074 A 
HETATM   27  C16 UNL     1      10.647  31.940  79.176  1.00  0.00     0.025 A 
HETATM   28  C17 UNL     1       9.844  32.325  78.127  1.00  0.00     0.009 A 
BRANCH  26  29
HETATM   29  S2  UNL     1      12.710  32.136  80.910  1.00  0.00     0.262 S 
HETATM   30  O2  UNL     1      13.817  33.086  81.197  1.00  0.00    -0.206 OA
HETATM   31  O3  UNL     1      11.825  31.947  82.112  1.00  0.00    -0.206 OA
HETATM   32 CL1  UNL     1      13.432  30.264  80.396  1.00  0.00     0.024 Cl
ENDBRANCH  26  29
ENDBRANCH   5  23
TORSDOF 5
ENDMDL
MODEL 2
REMARK VINA RESULT: -7.265317804      2.169      2.468
REMARK  5 active torsions:
REMARK  status: ('A' for Active; 'I' for Inactive)
REMARK    1  A    between atoms: S1_2  and  C2_4 
REMARK    2  A    between atoms: C5_7  and  C6_8 
REMARK    3  A    between atoms: C6_8  and  C7_9 
REMARK    4  A    between atoms: C11_13  and  C12_14 
REMARK    5  A    between atoms: C15_17  and  S2_18 
ROOT
HETATM    1  C7  UNL     1       7.870  36.444  76.607  1.00  0.00     0.051 C 
HETATM    2  C8  UNL     1       7.937  37.837  75.915  1.00  0.00     0.043 C 
HETATM    3  C9  UNL     1       8.933  35.662  75.940  1.00  0.00     0.008 C 
HETATM    4  C10 UNL     1       8.830  34.418  75.533  1.00  0.00    -0.055 C 
HETATM    5  C11 UNL     1       9.312  33.135  74.892  1.00  0.00     0.050 C 
HETATM    6  C18 UNL     1       7.915  32.650  74.818  1.00  0.00     0.037 C 
HETATM    7  C19 UNL     1       7.556  33.677  75.824  1.00  0.00     0.062 C 
HETATM    8  C20 UNL     1       7.447  33.120  77.228  1.00  0.00     0.030 C 
HETATM    9  C21 UNL     1       6.479  34.664  75.515  1.00  0.00     0.231 C 
HETATM   10  O4  UNL     1       5.573  34.482  74.699  1.00  0.00    -0.272 OA
HETATM   11  N1  UNL     1       6.572  35.898  76.266  1.00  0.00    -0.348 N 
ATOM     12  H1  UNL     1       5.723  36.383  76.555  1.00  0.00     0.163 HD
ENDROOT
BRANCH   1  13
HETATM   13  C6  UNL     1       8.014  36.625  78.069  1.00  0.00     0.073 C 
BRANCH  13  14
HETATM   14  C5  UNL     1       6.718  36.828  78.767  1.00  0.00    -0.055 A 
HETATM   15  C4  UNL     1       6.076  35.784  79.391  1.00  0.00     0.009 A 
HETATM   16  C3  UNL     1       4.866  35.952  80.044  1.00  0.00     0.021 A 
HETATM   17  C2  UNL     1       4.252  37.188  80.092  1.00  0.00     0.031 A 
HETATM   18  C23 UNL     1       4.915  38.219  79.458  1.00  0.00     0.021 A 
HETATM   19  C22 UNL     1       6.115  38.065  78.808  1.00  0.00     0.009 A 
BRANCH  17  20
HETATM   20  S1  UNL     1       2.722  37.416  80.913  1.00  0.00     0.045 S 
HETATM   21  C1  UNL     1       2.038  39.013  80.531  1.00  0.00     0.133 C 
HETATM   22  O1  UNL     1       1.629  36.271  80.300  1.00  0.00    -0.253 OA
ENDBRANCH  17  20
ENDBRANCH  13  14
ENDBRANCH   1  13
BRANCH   5  23
HETATM   23  C12 UNL     1      10.322  32.488  75.683  1.00  0.00    -0.050 A 
HETATM   24  C13 UNL     1      11.195  33.062  76.573  1.00  0.00     0.009 A 
HETATM   25  C14 UNL     1      12.144  32.376  77.292  1.00  0.00     0.025 A 
HETATM   26  C15 UNL     1      12.254  31.025  77.132  1.00  0.00     0.074 A 
HETATM   27  C16 UNL     1      11.401  30.396  76.251  1.00  0.00     0.025 A 
HETATM   28  C17 UNL     1      10.457  31.100  75.540  1.00  0.00     0.009 A 
BRANCH  26  29
HETATM   29  S2  UNL     1      13.431  30.056  78.002  1.00  0.00     0.262 S 
HETATM   30  O2  UNL     1      14.759  30.103  77.334  1.00  0.00    -0.206 OA
HETATM   31  O3  UNL     1      13.516  30.545  79.422  1.00  0.00    -0.206 OA
HETATM   32 CL1  UNL     1      12.686  28.125  78.076  1.00  0.00     0.024 Cl
ENDBRANCH  26  29
ENDBRANCH   5  23
TORSDOF 5
ENDMDL
MODEL 3
REMARK VINA RESULT: -7.129591404      4.438      6.316
REMARK  5 active torsions:
REMARK  status: ('A' for Active; 'I' for Inactive)
REMARK    1  A    between atoms: S1_2  and  C2_4 
REMARK    2  A    between atoms: C5_7  and  C6_8 
REMARK    3  A    between atoms: C6_8  and  C7_9 
REMARK    4  A    between atoms: C11_13  and  C12_14 
REMARK    5  A    between atoms: C15_17  and  S2_18 
ROOT
HETATM    1  C7  UNL     1       8.946  32.263  77.577  1.00  0.00     0.051 C 
HETATM    2  C8  UNL     1       7.624  31.795  78.254  1.00  0.00     0.043 C 
HETATM    3  C9  UNL     1       9.854  31.107  77.731  1.00  0.00     0.008 C 
HETATM    4  C10 UNL     1      11.117  31.165  78.085  1.00  0.00    -0.055 C 
HETATM    5  C11 UNL     1      12.480  30.601  78.420  1.00  0.00     0.050 C 
HETATM    6  C18 UNL     1      12.869  31.899  79.016  1.00  0.00     0.037 C 
HETATM    7  C19 UNL     1      11.739  32.518  78.285  1.00  0.00     0.062 C 
HETATM    8  C20 UNL     1      12.167  33.219  77.013  1.00  0.00     0.030 C 
HETATM    9  C21 UNL     1      10.707  33.287  79.042  1.00  0.00     0.231 C 
HETATM   10  O4  UNL     1      10.891  33.818  80.139  1.00  0.00    -0.272 OA
HETATM   11  N1  UNL     1       9.425  33.373  78.377  1.00  0.00    -0.348 N 
ATOM     12  H1  UNL     1       8.858  34.216  78.471  1.00  0.00     0.163 HD
ENDROOT
BRANCH   1  13
HETATM   13  C6  UNL     1       8.654  32.683  76.188  1.00  0.00     0.073 C 
BRANCH  13  14
HETATM   14  C5  UNL     1       8.104  34.059  76.093  1.00  0.00    -0.055 A 
HETATM   15  C4  UNL     1       8.933  35.157  76.101  1.00  0.00     0.009 A 
HETATM   16  C3  UNL     1       8.440  36.450  76.016  1.00  0.00     0.021 A 
HETATM   17  C2  UNL     1       7.083  36.685  75.920  1.00  0.00     0.031 A 
HETATM   18  C23 UNL     1       6.273  35.568  75.914  1.00  0.00     0.021 A 
HETATM   19  C22 UNL     1       6.749  34.283  75.997  1.00  0.00     0.009 A 
BRANCH  17  20
HETATM   20  S1  UNL     1       6.445  38.313  75.813  1.00  0.00     0.045 S 
HETATM   21  C1  UNL     1       6.081  38.950  77.434  1.00  0.00     0.133 C 
HETATM   22  O1  UNL     1       7.664  39.306  75.173  1.00  0.00    -0.253 OA
ENDBRANCH  17  20
ENDBRANCH  13  14
ENDBRANCH   1  13
BRANCH   5  23
HETATM   23  C12 UNL     1      13.129  30.046  77.264  1.00  0.00    -0.050 A 
HETATM   24  C13 UNL     1      12.570  29.731  76.051  1.00  0.00     0.009 A 
HETATM   25  C14 UNL     1      13.256  29.194  74.988  1.00  0.00     0.025 A 
HETATM   26  C15 UNL     1      14.592  28.944  75.115  1.00  0.00     0.074 A 
HETATM   27  C16 UNL     1      15.206  29.243  76.312  1.00  0.00     0.025 A 
HETATM   28  C17 UNL     1      14.501  29.780  77.365  1.00  0.00     0.009 A 
BRANCH  26  29
HETATM   29  S2  UNL     1      15.560  28.262  73.819  1.00  0.00     0.262 S 
HETATM   30  O2  UNL     1      16.839  27.712  74.341  1.00  0.00    -0.206 OA
HETATM   31  O3  UNL     1      14.757  27.203  73.113  1.00  0.00    -0.206 OA
HETATM   32 CL1  UNL     1      15.888  29.779  72.448  1.00  0.00     0.024 Cl
ENDBRANCH  26  29
ENDBRANCH   5  23
TORSDOF 5
ENDMDL
MODEL 4
REMARK VINA RESULT: -7.102335746      4.454      7.007
REMARK  5 active torsions:
REMARK  status: ('A' for Active; 'I' for Inactive)
REMARK    1  A    between atoms: S1_2  and  C2_4 
REMARK    2  A    between atoms: C5_7  and  C6_8 
REMARK    3  A    between atoms: C6_8  and  C7_9 
REMARK    4  A    between atoms: C11_13  and  C12_14 
REMARK    5  A    between atoms: C15_17  and  S2_18 
ROOT
HETATM    1  C7  UNL     1       8.930  35.494  77.432  1.00  0.00     0.051 C 
HETATM    2  C8  UNL     1       9.625  36.845  77.089  1.00  0.00     0.043 C 
HETATM    3  C9  UNL     1       9.322  34.600  76.322  1.00  0.00     0.008 C 
HETATM    4  C10 UNL     1       8.527  33.769  75.688  1.00  0.00    -0.055 C 
HETATM    5  C11 UNL     1       8.171  32.720  74.658  1.00  0.00     0.050 C 
HETATM    6  C18 UNL     1       6.732  32.987  74.886  1.00  0.00     0.037 C 
HETATM    7  C19 UNL     1       7.106  33.643  76.161  1.00  0.00     0.062 C 
HETATM    8  C20 UNL     1       6.911  32.750  77.368  1.00  0.00     0.030 C 
HETATM    9  C21 UNL     1       6.679  35.051  76.416  1.00  0.00     0.231 C 
HETATM   10  O4  UNL     1       5.712  35.599  75.882  1.00  0.00    -0.272 OA
HETATM   11  N1  UNL     1       7.506  35.758  77.369  1.00  0.00    -0.348 N 
ATOM     12  H1  UNL     1       7.087  36.444  77.997  1.00  0.00     0.163 HD
ENDROOT
BRANCH   1  13
HETATM   13  C6  UNL     1       9.342  35.070  78.789  1.00  0.00     0.073 C 
BRANCH  13  14
HETATM   14  C5  UNL     1      10.353  33.981  78.783  1.00  0.00    -0.055 A 
HETATM   15  C4  UNL     1      11.692  34.256  78.632  1.00  0.00     0.009 A 
HETATM   16  C3  UNL     1      12.650  33.255  78.620  1.00  0.00     0.021 A 
HETATM   17  C2  UNL     1      12.290  31.929  78.761  1.00  0.00     0.031 A 
HETATM   18  C23 UNL     1      10.942  31.679  78.910  1.00  0.00     0.021 A 
HETATM   19  C22 UNL     1       9.983  32.662  78.923  1.00  0.00     0.009 A 
BRANCH  17  20
HETATM   20  S1  UNL     1      13.490  30.653  78.748  1.00  0.00     0.045 S 
HETATM   21  C1  UNL     1      12.733  29.079  79.090  1.00  0.00     0.133 C 
HETATM   22  O1  UNL     1      14.118  30.547  77.174  1.00  0.00    -0.253 OA
ENDBRANCH  17  20
ENDBRANCH  13  14
ENDBRANCH   1  13
BRANCH   5  23
HETATM   23  C12 UNL     1       8.786  31.455  74.947  1.00  0.00    -0.050 A 
HETATM   24  C13 UNL     1       8.171  30.266  75.252  1.00  0.00     0.009 A 
HETATM   25  C14 UNL     1       8.829  29.092  75.525  1.00  0.00     0.025 A 
HETATM   26  C15 UNL     1      10.194  29.070  75.501  1.00  0.00     0.074 A 
HETATM   27  C16 UNL     1      10.864  30.236  75.199  1.00  0.00     0.025 A 
HETATM   28  C17 UNL     1      10.187  31.403  74.928  1.00  0.00     0.009 A 
BRANCH  26  29
HETATM   29  S2  UNL     1      11.130  27.623  75.835  1.00  0.00     0.262 S 
HETATM   30  O2  UNL     1      12.587  27.913  75.813  1.00  0.00    -0.206 OA
HETATM   31  O3  UNL     1      10.704  27.059  77.163  1.00  0.00    -0.206 OA
HETATM   32 CL1  UNL     1      10.612  26.225  74.396  1.00  0.00     0.024 Cl
ENDBRANCH  26  29
ENDBRANCH   5  23
TORSDOF 5
ENDMDL
MODEL 5
REMARK VINA RESULT: -7.068760600      4.376      6.344
REMARK  5 active torsions:
REMARK  status: ('A' for Active; 'I' for Inactive)
REMARK    1  A    between atoms: S1_2  and  C2_4 
REMARK    2  A    between atoms: C5_7  and  C6_8 
REMARK    3  A    between atoms: C6_8  and  C7_9 
REMARK    4  A    between atoms: C11_13  and  C12_14 
REMARK    5  A    between atoms: C15_17  and  S2_18 
ROOT
HETATM    1  C7  UNL     1       5.397  30.207  77.591  1.00  0.00     0.051 C 
HETATM    2  C8  UNL     1       4.126  29.424  77.151  1.00  0.00     0.043 C 
HETATM    3  C9  UNL     1       5.562  31.238  76.544  1.00  0.00     0.008 C 
HETATM    4  C10 UNL     1       6.695  31.579  75.975  1.00  0.00    -0.055 C 
HETATM    5  C11 UNL     1       7.579  32.354  75.023  1.00  0.00     0.050 C 
HETATM    6  C18 UNL     1       8.669  31.376  75.241  1.00  0.00     0.037 C 
HETATM    7  C19 UNL     1       7.961  30.933  76.464  1.00  0.00     0.062 C 
HETATM    8  C20 UNL     1       8.534  31.531  77.732  1.00  0.00     0.030 C 
HETATM    9  C21 UNL     1       7.600  29.493  76.624  1.00  0.00     0.231 C 
HETATM   10  O4  UNL     1       8.173  28.559  76.060  1.00  0.00    -0.272 OA
HETATM   11  N1  UNL     1       6.489  29.256  77.520  1.00  0.00    -0.348 N 
ATOM     12  H1  UNL     1       6.474  28.419  78.102  1.00  0.00     0.163 HD
ENDROOT
BRANCH   1  13
HETATM   13  C6  UNL     1       5.203  30.706  78.972  1.00  0.00     0.073 C 
BRANCH  13  14
HETATM   14  C5  UNL     1       5.158  32.188  79.061  1.00  0.00    -0.055 A 
HETATM   15  C4  UNL     1       6.233  32.904  79.532  1.00  0.00     0.009 A 
HETATM   16  C3  UNL     1       6.210  34.287  79.626  1.00  0.00     0.021 A 
HETATM   17  C2  UNL     1       5.092  35.003  79.246  1.00  0.00     0.031 A 
HETATM   18  C23 UNL     1       4.027  34.262  78.778  1.00  0.00     0.021 A 
HETATM   19  C22 UNL     1       4.038  32.892  78.680  1.00  0.00     0.009 A 
BRANCH  17  20
HETATM   20  S1  UNL     1       5.047  36.751  79.360  1.00  0.00     0.045 S 
HETATM   21  C1  UNL     1       3.630  37.281  80.297  1.00  0.00     0.133 C 
HETATM   22  O1  UNL     1       6.412  37.248  80.238  1.00  0.00    -0.253 OA
ENDBRANCH  17  20
ENDBRANCH  13  14
ENDBRANCH   1  13
BRANCH   5  23
HETATM   23  C12 UNL     1       7.684  33.737  75.395  1.00  0.00    -0.050 A 
HETATM   24  C13 UNL     1       8.821  34.453  75.677  1.00  0.00     0.009 A 
HETATM   25  C14 UNL     1       8.843  35.779  76.035  1.00  0.00     0.025 A 
HETATM   26  C15 UNL     1       7.666  36.465  76.127  1.00  0.00     0.074 A 
HETATM   27  C16 UNL     1       6.492  35.796  75.854  1.00  0.00     0.025 A 
HETATM   28  C17 UNL     1       6.491  34.467  75.497  1.00  0.00     0.009 A 
BRANCH  26  29
HETATM   29  S2  UNL     1       7.585  38.160  76.575  1.00  0.00     0.262 S 
HETATM   30  O2  UNL     1       6.174  38.608  76.716  1.00  0.00    -0.206 OA
HETATM   31  O3  UNL     1       8.354  38.367  77.852  1.00  0.00    -0.206 OA
HETATM   32 CL1  UNL     1       8.575  39.222  75.099  1.00  0.00     0.024 Cl
ENDBRANCH  26  29
ENDBRANCH   5  23
TORSDOF 5
ENDMDL
