MODEL 1
REMARK VINA RESULT: -6.998886305      0.000      0.000
REMARK  8 active torsions:
REMARK  status: ('A' for Active; 'I' for Inactive)
REMARK    1  A    between atoms: C2_3  and  C3_4 
REMARK    2  A    between atoms: C2_3  and  N4_15 
REMARK       I    between atoms: C3_4  and  N2_6 
REMARK    3  A    between atoms: N2_6  and  C4_8 
REMARK    4  A    between atoms: N4_15  and  C7_16 
REMARK    5  A    between atoms: N4_15  and  C8_18 
REMARK    6  A    between atoms: C8_18  and  C9_19 
REMARK    7  A    between atoms: C12_22  and  C13_23 
REMARK    8  A    between atoms: C14_24  and  C15_25 
ROOT
HETATM    1  N1  UNL     1      11.287  34.731  78.462  1.00  0.00    -0.195 NA
HETATM    2  C1  UNL     1      10.393  34.111  78.063  1.00  0.00     0.094 C 
HETATM    3  C2  UNL     1       9.248  33.323  77.577  1.00  0.00     0.287 C 
ENDROOT
BRANCH   3   4
HETATM    4  C3  UNL     1       8.238  33.220  78.657  1.00  0.00     0.260 C 
HETATM    5  O1  UNL     1       7.574  32.161  78.752  1.00  0.00    -0.270 OA
HETATM    6  N2  UNL     1       8.008  34.275  79.569  1.00  0.00    -0.304 N 
ATOM      7  H2  UNL     1       8.744  34.578  80.206  1.00  0.00     0.171 HD
BRANCH   6   8
HETATM    8  C4  UNL     1       6.825  34.861  79.583  1.00  0.00     0.152 A 
HETATM    9  N3  UNL     1       5.786  34.603  78.795  1.00  0.00    -0.345 N 
HETATM   10  C5  UNL     1       4.692  35.287  78.955  1.00  0.00     0.116 A 
ATOM     11  H3  UNL     1       5.846  33.880  78.078  1.00  0.00     0.167 HD
HETATM   12  C6  UNL     1       4.677  36.243  79.938  1.00  0.00     0.070 A 
HETATM   13 BR1  UNL     1       3.230  37.420  80.432  1.00  0.00    -0.042 Br
HETATM   14  S1  UNL     1       6.248  36.112  80.590  1.00  0.00    -0.045 SA
ENDBRANCH   6   8
ENDBRANCH   3   4
BRANCH   3  15
HETATM   15  N4  UNL     1       8.672  33.961  76.397  1.00  0.00    -0.330 N 
BRANCH  15  16
HETATM   16  C7  UNL     1       7.678  33.236  75.706  1.00  0.00     0.352 C 
HETATM   17  O2  UNL     1       7.792  33.108  74.451  1.00  0.00    -0.283 OA
ENDBRANCH  15  16
BRANCH  15  18
HETATM   18  C8  UNL     1       9.077  35.258  75.944  1.00  0.00     0.165 C 
BRANCH  18  19
HETATM   19  C9  UNL     1       8.125  36.280  76.385  1.00  0.00    -0.040 A 
HETATM   20  C10 UNL     1       6.843  36.425  75.923  1.00  0.00     0.010 A 
HETATM   21  C11 UNL     1       6.006  37.425  76.401  1.00  0.00     0.021 A 
HETATM   22  C12 UNL     1       6.422  38.313  77.357  1.00  0.00     0.018 A 
HETATM   23  C21 UNL     1       7.717  38.159  77.815  1.00  0.00     0.021 A 
HETATM   24  C22 UNL     1       8.552  37.180  77.355  1.00  0.00     0.010 A 
BRANCH  22  25
HETATM   25  C13 UNL     1       5.539  39.340  77.836  1.00  0.00    -0.061 C 
HETATM   26  C14 UNL     1       4.811  40.205  78.255  1.00  0.00    -0.061 C 
BRANCH  26  27
HETATM   27  C15 UNL     1       3.958  41.252  78.742  1.00  0.00     0.018 A 
HETATM   28  C16 UNL     1       4.424  42.555  78.793  1.00  0.00     0.020 A 
HETATM   29  C17 UNL     1       3.626  43.577  79.257  1.00  0.00     0.001 A 
HETATM   30  C18 UNL     1       2.329  43.330  79.686  1.00  0.00     0.000 A 
HETATM   31  C19 UNL     1       1.857  42.044  79.640  1.00  0.00     0.001 A 
HETATM   32  C20 UNL     1       2.668  41.042  79.175  1.00  0.00     0.020 A 
ENDBRANCH  26  27
ENDBRANCH  22  25
ENDBRANCH  18  19
ENDBRANCH  15  18
ENDBRANCH   3  15
TORSDOF 8
ENDMDL
MODEL 2
REMARK VINA RESULT: -6.774348789      1.305      2.098
REMARK  8 active torsions:
REMARK  status: ('A' for Active; 'I' for Inactive)
REMARK    1  A    between atoms: C2_3  and  C3_4 
REMARK    2  A    between atoms: C2_3  and  N4_15 
REMARK       I    between atoms: C3_4  and  N2_6 
REMARK    3  A    between atoms: N2_6  and  C4_8 
REMARK    4  A    between atoms: N4_15  and  C7_16 
REMARK    5  A    between atoms: N4_15  and  C8_18 
REMARK    6  A    between atoms: C8_18  and  C9_19 
REMARK    7  A    between atoms: C12_22  and  C13_23 
REMARK    8  A    between atoms: C14_24  and  C15_25 
ROOT
HETATM    1  N1  UNL     1      10.374  31.402  78.578  1.00  0.00    -0.195 NA
HETATM    2  C1  UNL     1       9.738  32.091  77.898  1.00  0.00     0.094 C 
HETATM    3  C2  UNL     1       8.911  32.958  77.043  1.00  0.00     0.287 C 
ENDROOT
BRANCH   3   4
HETATM    4  C3  UNL     1       7.525  32.975  77.567  1.00  0.00     0.260 C 
HETATM    5  O1  UNL     1       6.578  32.875  76.751  1.00  0.00    -0.270 OA
HETATM    6  N2  UNL     1       7.249  33.101  78.947  1.00  0.00    -0.304 N 
ATOM      7  H2  UNL     1       7.551  32.380  79.603  1.00  0.00     0.171 HD
BRANCH   6   8
HETATM    8  C4  UNL     1       6.594  34.164  79.374  1.00  0.00     0.152 A 
HETATM    9  N3  UNL     1       7.103  35.251  79.947  1.00  0.00    -0.345 N 
HETATM   10  C5  UNL     1       6.298  36.207  80.305  1.00  0.00     0.116 A 
ATOM     11  H3  UNL     1       8.108  35.332  80.102  1.00  0.00     0.167 HD
HETATM   12  C6  UNL     1       4.959  36.034  80.067  1.00  0.00     0.070 A 
HETATM   13 BR1  UNL     1       3.513  37.245  80.471  1.00  0.00    -0.042 Br
HETATM   14  S1  UNL     1       4.920  34.494  79.335  1.00  0.00    -0.045 SA
ENDBRANCH   6   8
ENDBRANCH   3   4
BRANCH   3  15
HETATM   15  N4  UNL     1       9.467  34.308  77.022  1.00  0.00    -0.330 N 
BRANCH  15  16
HETATM   16  C7  UNL     1      10.329  34.656  78.083  1.00  0.00     0.352 C 
HETATM   17  O2  UNL     1       9.813  35.028  79.178  1.00  0.00    -0.283 OA
ENDBRANCH  15  16
BRANCH  15  18
HETATM   18  C8  UNL     1       9.168  35.250  75.985  1.00  0.00     0.165 C 
BRANCH  18  19
HETATM   19  C9  UNL     1       8.300  36.317  76.491  1.00  0.00    -0.040 A 
HETATM   20  C10 UNL     1       8.722  37.435  77.161  1.00  0.00     0.010 A 
HETATM   21  C11 UNL     1       7.827  38.399  77.603  1.00  0.00     0.021 A 
HETATM   22  C12 UNL     1       6.480  38.280  77.390  1.00  0.00     0.018 A 
HETATM   23  C21 UNL     1       6.064  37.148  76.713  1.00  0.00     0.021 A 
HETATM   24  C22 UNL     1       6.933  36.191  76.272  1.00  0.00     0.010 A 
BRANCH  22  25
HETATM   25  C13 UNL     1       5.571  39.291  77.857  1.00  0.00    -0.061 C 
HETATM   26  C14 UNL     1       4.819  40.139  78.266  1.00  0.00    -0.061 C 
BRANCH  26  27
HETATM   27  C15 UNL     1       3.939  41.166  78.748  1.00  0.00     0.018 A 
HETATM   28  C16 UNL     1       2.703  40.826  79.273  1.00  0.00     0.020 A 
HETATM   29  C17 UNL     1       1.840  41.792  79.741  1.00  0.00     0.001 A 
HETATM   30  C18 UNL     1       2.186  43.137  79.701  1.00  0.00     0.000 A 
HETATM   31  C19 UNL     1       3.407  43.484  79.184  1.00  0.00     0.001 A 
HETATM   32  C20 UNL     1       4.249  42.507  78.723  1.00  0.00     0.020 A 
ENDBRANCH  26  27
ENDBRANCH  22  25
ENDBRANCH  18  19
ENDBRANCH  15  18
ENDBRANCH   3  15
TORSDOF 8
ENDMDL
MODEL 3
REMARK VINA RESULT: -6.699385963      1.413      1.801
REMARK  8 active torsions:
REMARK  status: ('A' for Active; 'I' for Inactive)
REMARK    1  A    between atoms: C2_3  and  C3_4 
REMARK    2  A    between atoms: C2_3  and  N4_15 
REMARK       I    between atoms: C3_4  and  N2_6 
REMARK    3  A    between atoms: N2_6  and  C4_8 
REMARK    4  A    between atoms: N4_15  and  C7_16 
REMARK    5  A    between atoms: N4_15  and  C8_18 
REMARK    6  A    between atoms: C8_18  and  C9_19 
REMARK    7  A    between atoms: C12_22  and  C13_23 
REMARK    8  A    between atoms: C14_24  and  C15_25 
ROOT
HETATM    1  N1  UNL     1      10.282  31.151  78.018  1.00  0.00    -0.195 NA
HETATM    2  C1  UNL     1       9.722  31.928  77.367  1.00  0.00     0.094 C 
HETATM    3  C2  UNL     1       8.991  32.905  76.543  1.00  0.00     0.287 C 
ENDROOT
BRANCH   3   4
HETATM    4  C3  UNL     1       7.535  32.708  76.735  1.00  0.00     0.260 C 
HETATM    5  O1  UNL     1       6.803  32.645  75.719  1.00  0.00    -0.270 OA
HETATM    6  N2  UNL     1       6.960  32.592  78.021  1.00  0.00    -0.304 N 
ATOM      7  H2  UNL     1       7.206  31.811  78.630  1.00  0.00     0.171 HD
BRANCH   6   8
HETATM    8  C4  UNL     1       6.099  33.509  78.421  1.00  0.00     0.152 A 
HETATM    9  N3  UNL     1       4.853  33.689  77.994  1.00  0.00    -0.345 N 
HETATM   10  C5  UNL     1       4.147  34.653  78.508  1.00  0.00     0.116 A 
ATOM     11  H3  UNL     1       4.458  33.082  77.277  1.00  0.00     0.167 HD
HETATM   12  C6  UNL     1       4.737  35.433  79.469  1.00  0.00     0.070 A 
HETATM   13 BR1  UNL     1       3.976  36.927  80.422  1.00  0.00    -0.042 Br
HETATM   14  S1  UNL     1       6.291  34.738  79.590  1.00  0.00    -0.045 SA
ENDBRANCH   6   8
ENDBRANCH   3   4
BRANCH   3  15
HETATM   15  N4  UNL     1       9.378  34.261  76.921  1.00  0.00    -0.330 N 
BRANCH  15  16
HETATM   16  C7  UNL     1       9.829  34.446  78.246  1.00  0.00     0.352 C 
HETATM   17  O2  UNL     1      10.952  35.003  78.424  1.00  0.00    -0.283 OA
ENDBRANCH  15  16
BRANCH  15  18
HETATM   18  C8  UNL     1       9.314  35.365  76.011  1.00  0.00     0.165 C 
BRANCH  18  19
HETATM   19  C9  UNL     1       8.312  36.339  76.451  1.00  0.00    -0.040 A 
HETATM   20  C10 UNL     1       6.970  36.279  76.177  1.00  0.00     0.010 A 
HETATM   21  C11 UNL     1       6.090  37.248  76.637  1.00  0.00     0.021 A 
HETATM   22  C12 UNL     1       6.519  38.311  77.387  1.00  0.00     0.018 A 
HETATM   23  C21 UNL     1       7.874  38.363  77.657  1.00  0.00     0.021 A 
HETATM   24  C22 UNL     1       8.753  37.416  77.211  1.00  0.00     0.010 A 
BRANCH  22  25
HETATM   25  C13 UNL     1       5.590  39.302  77.853  1.00  0.00    -0.061 C 
HETATM   26  C14 UNL     1       4.797  40.119  78.248  1.00  0.00    -0.061 C 
BRANCH  26  27
HETATM   27  C15 UNL     1       3.859  41.088  78.742  1.00  0.00     0.018 A 
HETATM   28  C16 UNL     1       4.178  42.436  78.710  1.00  0.00     0.020 A 
HETATM   29  C17 UNL     1       3.296  43.386  79.178  1.00  0.00     0.001 A 
HETATM   30  C18 UNL     1       2.061  43.018  79.695  1.00  0.00     0.000 A 
HETATM   31  C19 UNL     1       1.736  41.687  79.732  1.00  0.00     0.001 A 
HETATM   32  C20 UNL     1       2.627  40.759  79.262  1.00  0.00     0.020 A 
ENDBRANCH  26  27
ENDBRANCH  22  25
ENDBRANCH  18  19
ENDBRANCH  15  18
ENDBRANCH   3  15
TORSDOF 8
ENDMDL
MODEL 4
REMARK VINA RESULT: -6.584303379      3.670      4.903
REMARK  8 active torsions:
REMARK  status: ('A' for Active; 'I' for Inactive)
REMARK    1  A    between atoms: C2_3  and  C3_4 
REMARK    2  A    between atoms: C2_3  and  N4_15 
REMARK       I    between atoms: C3_4  and  N2_6 
REMARK    3  A    between atoms: N2_6  and  C4_8 
REMARK    4  A    between atoms: N4_15  and  C7_16 
REMARK    5  A    between atoms: N4_15  and  C8_18 
REMARK    6  A    between atoms: C8_18  and  C9_19 
REMARK    7  A    between atoms: C12_22  and  C13_23 
REMARK    8  A    between atoms: C14_24  and  C15_25 
ROOT
HETATM    1  N1  UNL     1       7.734  32.543  79.669  1.00  0.00    -0.195 NA
HETATM    2  C1  UNL     1       8.456  33.255  79.108  1.00  0.00     0.094 C 
HETATM    3  C2  UNL     1       9.389  34.154  78.409  1.00  0.00     0.287 C 
ENDROOT
BRANCH   3   4
HETATM    4  C3  UNL     1      10.768  33.882  78.879  1.00  0.00     0.260 C 
HETATM    5  O1  UNL     1      11.661  34.724  78.624  1.00  0.00    -0.270 OA
HETATM    6  N2  UNL     1      11.095  32.711  79.600  1.00  0.00    -0.304 N 
ATOM      7  H2  UNL     1      10.684  32.536  80.517  1.00  0.00     0.171 HD
BRANCH   6   8
HETATM    8  C4  UNL     1      11.940  31.849  79.068  1.00  0.00     0.152 A 
HETATM    9  N3  UNL     1      12.467  31.881  77.847  1.00  0.00    -0.345 N 
HETATM   10  C5  UNL     1      13.288  30.938  77.493  1.00  0.00     0.116 A 
ATOM     11  H3  UNL     1      12.230  32.633  77.201  1.00  0.00     0.167 HD
HETATM   12  C6  UNL     1      13.565  29.956  78.410  1.00  0.00     0.070 A 
HETATM   13 BR1  UNL     1      14.728  28.431  78.207  1.00  0.00    -0.042 Br
HETATM   14  S1  UNL     1      12.623  30.440  79.748  1.00  0.00    -0.045 SA
ENDBRANCH   6   8
ENDBRANCH   3   4
BRANCH   3  15
HETATM   15  N4  UNL     1       9.290  33.947  76.967  1.00  0.00    -0.330 N 
BRANCH  15  16
HETATM   16  C7  UNL     1       9.209  32.610  76.522  1.00  0.00     0.352 C 
HETATM   17  O2  UNL     1      10.185  32.135  75.870  1.00  0.00    -0.283 OA
ENDBRANCH  15  16
BRANCH  15  18
HETATM   18  C8  UNL     1       9.273  35.030  76.030  1.00  0.00     0.165 C 
BRANCH  18  19
HETATM   19  C9  UNL     1       8.410  36.113  76.508  1.00  0.00    -0.040 A 
HETATM   20  C10 UNL     1       8.843  37.301  77.038  1.00  0.00     0.010 A 
HETATM   21  C11 UNL     1       7.952  38.275  77.465  1.00  0.00     0.021 A 
HETATM   22  C12 UNL     1       6.597  38.097  77.376  1.00  0.00     0.018 A 
HETATM   23  C21 UNL     1       6.170  36.896  76.840  1.00  0.00     0.021 A 
HETATM   24  C22 UNL     1       7.035  35.928  76.416  1.00  0.00     0.010 A 
BRANCH  22  25
HETATM   25  C13 UNL     1       5.693  39.120  77.823  1.00  0.00    -0.061 C 
HETATM   26  C14 UNL     1       4.923  39.963  78.209  1.00  0.00    -0.061 C 
BRANCH  26  27
HETATM   27  C15 UNL     1       4.018  40.969  78.689  1.00  0.00     0.018 A 
HETATM   28  C16 UNL     1       2.819  40.597  79.274  1.00  0.00     0.020 A 
HETATM   29  C17 UNL     1       1.933  41.543  79.742  1.00  0.00     0.001 A 
HETATM   30  C18 UNL     1       2.218  42.898  79.641  1.00  0.00     0.000 A 
HETATM   31  C19 UNL     1       3.401  43.278  79.063  1.00  0.00     0.001 A 
HETATM   32  C20 UNL     1       4.268  42.321  78.604  1.00  0.00     0.020 A 
ENDBRANCH  26  27
ENDBRANCH  22  25
ENDBRANCH  18  19
ENDBRANCH  15  18
ENDBRANCH   3  15
TORSDOF 8
ENDMDL
MODEL 5
REMARK VINA RESULT: -6.493286931      3.741      4.851
REMARK  8 active torsions:
REMARK  status: ('A' for Active; 'I' for Inactive)
REMARK    1  A    between atoms: C2_3  and  C3_4 
REMARK    2  A    between atoms: C2_3  and  N4_15 
REMARK       I    between atoms: C3_4  and  N2_6 
REMARK    3  A    between atoms: N2_6  and  C4_8 
REMARK    4  A    between atoms: N4_15  and  C7_16 
REMARK    5  A    between atoms: N4_15  and  C8_18 
REMARK    6  A    between atoms: C8_18  and  C9_19 
REMARK    7  A    between atoms: C12_22  and  C13_23 
REMARK    8  A    between atoms: C14_24  and  C15_25 
ROOT
HETATM    1  N1  UNL     1       7.293  31.923  78.699  1.00  0.00    -0.195 NA
HETATM    2  C1  UNL     1       8.054  32.746  78.408  1.00  0.00     0.094 C 
HETATM    3  C2  UNL     1       9.036  33.782  78.051  1.00  0.00     0.287 C 
ENDROOT
BRANCH   3   4
HETATM    4  C3  UNL     1      10.379  33.357  78.514  1.00  0.00     0.260 C 
HETATM    5  O1  UNL     1      11.261  34.235  78.668  1.00  0.00    -0.270 OA
HETATM    6  N2  UNL     1      10.683  32.004  78.782  1.00  0.00    -0.304 N 
ATOM      7  H2  UNL     1      10.202  31.502  79.529  1.00  0.00     0.171 HD
BRANCH   6   8
HETATM    8  C4  UNL     1      11.601  31.399  78.052  1.00  0.00     0.152 A 
HETATM    9  N3  UNL     1      11.495  31.002  76.787  1.00  0.00    -0.345 N 
HETATM   10  C5  UNL     1      12.511  30.417  76.225  1.00  0.00     0.116 A 
ATOM     11  H3  UNL     1      10.631  31.154  76.267  1.00  0.00     0.167 HD
HETATM   12  C6  UNL     1      13.643  30.244  76.979  1.00  0.00     0.070 A 
HETATM   13 BR1  UNL     1      15.308  29.424  76.455  1.00  0.00    -0.042 Br
HETATM   14  S1  UNL     1      13.189  30.935  78.472  1.00  0.00    -0.045 SA
ENDBRANCH   6   8
ENDBRANCH   3   4
BRANCH   3  15
HETATM   15  N4  UNL     1       9.036  33.989  76.605  1.00  0.00    -0.330 N 
BRANCH  15  16
HETATM   16  C7  UNL     1       8.756  32.861  75.804  1.00  0.00     0.352 C 
HETATM   17  O2  UNL     1       9.665  32.432  75.034  1.00  0.00    -0.283 OA
ENDBRANCH  15  16
BRANCH  15  18
HETATM   18  C8  UNL     1       9.302  35.262  76.007  1.00  0.00     0.165 C 
BRANCH  18  19
HETATM   19  C9  UNL     1       8.314  36.253  76.440  1.00  0.00    -0.040 A 
HETATM   20  C10 UNL     1       6.968  36.195  76.193  1.00  0.00     0.010 A 
HETATM   21  C11 UNL     1       6.102  37.181  76.645  1.00  0.00     0.021 A 
HETATM   22  C12 UNL     1       6.551  38.259  77.360  1.00  0.00     0.018 A 
HETATM   23  C21 UNL     1       7.912  38.309  77.602  1.00  0.00     0.021 A 
HETATM   24  C22 UNL     1       8.776  37.347  77.164  1.00  0.00     0.010 A 
BRANCH  22  25
HETATM   25  C13 UNL     1       5.637  39.268  77.818  1.00  0.00    -0.061 C 
HETATM   26  C14 UNL     1       4.855  40.106  78.191  1.00  0.00    -0.061 C 
BRANCH  26  27
HETATM   27  C15 UNL     1       3.916  41.089  78.653  1.00  0.00     0.018 A 
HETATM   28  C16 UNL     1       2.677  40.691  79.127  1.00  0.00     0.020 A 
HETATM   29  C17 UNL     1       1.758  41.614  79.575  1.00  0.00     0.001 A 
HETATM   30  C18 UNL     1       2.048  42.972  79.564  1.00  0.00     0.000 A 
HETATM   31  C19 UNL     1       3.271  43.377  79.097  1.00  0.00     0.001 A 
HETATM   32  C20 UNL     1       4.170  42.442  78.655  1.00  0.00     0.020 A 
ENDBRANCH  26  27
ENDBRANCH  22  25
ENDBRANCH  18  19
ENDBRANCH  15  18
ENDBRANCH   3  15
TORSDOF 8
ENDMDL
