MODEL 1
REMARK VINA RESULT: -8.528339604      0.000      0.000
REMARK  6 active torsions:
REMARK  status: ('A' for Active; 'I' for Inactive)
REMARK    1  A    between atoms: C2_2  and  N1_4 
REMARK    2  A    between atoms: C5_6  and  C6_7 
REMARK    3  A    between atoms: C14_16  and  C15_17 
REMARK    4  A    between atoms: C15_17  and  C16_18 
REMARK    5  A    between atoms: C16_18  and  C17_19 
REMARK    6  A    between atoms: C18_22  and  C19_23 
ROOT
HETATM    1  C19 UNL     1      14.600  28.331  74.216  1.00  0.00    -0.034 A 
HETATM    2  C20 UNL     1      15.019  29.421  73.483  1.00  0.00     0.011 A 
HETATM    3  C21 UNL     1      16.088  29.399  72.615  1.00  0.00     0.023 A 
HETATM    4  C22 UNL     1      16.783  28.208  72.471  1.00  0.00     0.044 A 
HETATM    5  C23 UNL     1      17.885  28.205  71.567  1.00  0.00     0.099 C 
HETATM    6  N3  UNL     1      18.787  28.208  70.836  1.00  0.00    -0.191 NA
HETATM    7  C24 UNL     1      16.380  27.110  73.194  1.00  0.00     0.023 A 
HETATM    8  C25 UNL     1      15.294  27.159  74.068  1.00  0.00     0.011 A 
ENDROOT
BRANCH   1   9
HETATM    9  C18 UNL     1      13.444  28.518  75.127  1.00  0.00     0.145 A 
HETATM   10  N2  UNL     1      12.734  29.697  75.018  1.00  0.00    -0.384 N 
HETATM   11  C17 UNL     1      13.036  30.104  76.155  1.00  0.00     0.011 A 
ATOM     12  H2  UNL     1      12.165  30.094  74.270  1.00  0.00     0.160 HD
HETATM   13  C26 UNL     1      13.808  28.937  76.469  1.00  0.00     0.165 A 
HETATM   14  C27 UNL     1      13.270  28.074  77.588  1.00  0.00     0.170 C 
HETATM   15  C29 UNL     1      15.236  29.092  76.836  1.00  0.00     0.242 C 
HETATM   16  O1  UNL     1      12.173  28.151  78.046  1.00  0.00    -0.294 OA
HETATM   17  C28 UNL     1      14.412  27.178  77.925  1.00  0.00     0.202 C 
HETATM   18  N4  UNL     1      15.595  27.819  77.377  1.00  0.00    -0.353 N 
ATOM     19  H4  UNL     1      16.536  27.422  77.379  1.00  0.00     0.162 HD
HETATM   20  O2  UNL     1      15.979  30.083  76.717  1.00  0.00    -0.272 OA
BRANCH  11  21
HETATM   21  C16 UNL     1      12.746  31.337  77.008  1.00  0.00     0.060 C 
BRANCH  21  22
HETATM   22  C15 UNL     1      11.340  31.319  77.501  1.00  0.00     0.063 C 
BRANCH  22  23
HETATM   23  C14 UNL     1      10.598  32.553  77.239  1.00  0.00     0.012 A 
HETATM   24  N1  UNL     1       9.635  32.583  76.310  1.00  0.00    -0.355 N 
HETATM   25  C4  UNL     1       8.965  33.730  76.094  1.00  0.00     0.103 A 
HETATM   26  C5  UNL     1       9.236  34.897  76.806  1.00  0.00    -0.010 A 
HETATM   27  C12 UNL     1      10.226  34.877  77.766  1.00  0.00     0.015 A 
HETATM   28  C13 UNL     1      10.914  33.694  77.986  1.00  0.00     0.026 A 
BRANCH  24  29
HETATM   29  C2  UNL     1       9.339  31.405  75.560  1.00  0.00     0.081 C 
HETATM   30  C1  UNL     1       9.501  31.621  74.060  1.00  0.00     0.032 C 
HETATM   31  C3  UNL     1       7.846  31.103  75.761  1.00  0.00     0.032 C 
ENDBRANCH  24  29
BRANCH  26  32
HETATM   32  C6  UNL     1       8.498  36.130  76.558  1.00  0.00    -0.024 A 
HETATM   33  C7  UNL     1       9.182  37.225  76.082  1.00  0.00     0.015 A 
HETATM   34  C8  UNL     1       8.538  38.426  75.826  1.00  0.00     0.043 A 
HETATM   35  C9  UNL     1       7.184  38.547  76.046  1.00  0.00     0.116 A 
HETATM   36  F1  UNL     1       6.546  39.716  75.800  1.00  0.00    -0.206 F 
HETATM   37  C10 UNL     1       6.514  37.439  76.524  1.00  0.00     0.043 A 
HETATM   38  C11 UNL     1       7.150  36.254  76.776  1.00  0.00     0.015 A 
ENDBRANCH  26  32
ENDBRANCH  22  23
ENDBRANCH  21  22
ENDBRANCH  11  21
ENDBRANCH   1   9
TORSDOF 6
ENDMDL
MODEL 2
REMARK VINA RESULT: -8.270966668      4.217      7.686
REMARK  6 active torsions:
REMARK  status: ('A' for Active; 'I' for Inactive)
REMARK    1  A    between atoms: C2_2  and  N1_4 
REMARK    2  A    between atoms: C5_6  and  C6_7 
REMARK    3  A    between atoms: C14_16  and  C15_17 
REMARK    4  A    between atoms: C15_17  and  C16_18 
REMARK    5  A    between atoms: C16_18  and  C17_19 
REMARK    6  A    between atoms: C18_22  and  C19_23 
ROOT
HETATM    1  C19 UNL     1       9.697  32.721  75.855  1.00  0.00    -0.034 A 
HETATM    2  C20 UNL     1      10.047  31.402  75.660  1.00  0.00     0.011 A 
HETATM    3  C21 UNL     1      11.196  30.830  76.160  1.00  0.00     0.023 A 
HETATM    4  C22 UNL     1      12.050  31.630  76.903  1.00  0.00     0.044 A 
HETATM    5  C23 UNL     1      13.233  31.018  77.412  1.00  0.00     0.099 C 
HETATM    6  N3  UNL     1      14.199  30.520  77.818  1.00  0.00    -0.191 NA
HETATM    7  C24 UNL     1      11.718  32.948  77.107  1.00  0.00     0.023 A 
HETATM    8  C25 UNL     1      10.549  33.505  76.590  1.00  0.00     0.011 A 
ENDROOT
BRANCH   1   9
HETATM    9  C18 UNL     1       8.436  33.198  75.234  1.00  0.00     0.145 A 
HETATM   10  N2  UNL     1       8.226  34.561  75.194  1.00  0.00    -0.384 N 
HETATM   11  C17 UNL     1       7.238  34.535  75.950  1.00  0.00     0.011 A 
ATOM     12  H2  UNL     1       8.709  35.321  74.714  1.00  0.00     0.160 HD
HETATM   13  C26 UNL     1       7.277  33.109  76.103  1.00  0.00     0.165 A 
HETATM   14  C27 UNL     1       6.096  32.354  75.538  1.00  0.00     0.170 C 
HETATM   15  C29 UNL     1       7.411  32.532  77.463  1.00  0.00     0.242 C 
HETATM   16  O1  UNL     1       5.287  32.807  74.789  1.00  0.00    -0.294 OA
HETATM   17  C28 UNL     1       6.224  30.996  76.136  1.00  0.00     0.202 C 
HETATM   18  N4  UNL     1       7.103  31.148  77.284  1.00  0.00    -0.353 N 
ATOM     19  H4  UNL     1       7.446  30.386  77.869  1.00  0.00     0.162 HD
HETATM   20  O2  UNL     1       7.716  33.091  78.531  1.00  0.00    -0.272 OA
BRANCH  11  21
HETATM   21  C16 UNL     1       6.264  35.550  76.544  1.00  0.00     0.060 C 
BRANCH  21  22
HETATM   22  C15 UNL     1       6.971  36.479  77.471  1.00  0.00     0.063 C 
BRANCH  22  23
HETATM   23  C14 UNL     1       6.182  37.646  77.866  1.00  0.00     0.012 A 
HETATM   24  N1  UNL     1       5.476  37.636  79.004  1.00  0.00    -0.355 N 
HETATM   25  C4  UNL     1       4.764  38.726  79.346  1.00  0.00     0.103 A 
HETATM   26  C5  UNL     1       4.731  39.873  78.556  1.00  0.00    -0.010 A 
HETATM   27  C12 UNL     1       5.455  39.894  77.381  1.00  0.00     0.015 A 
HETATM   28  C13 UNL     1       6.188  38.770  77.033  1.00  0.00     0.026 A 
BRANCH  24  29
HETATM   29  C2  UNL     1       5.485  36.473  79.831  1.00  0.00     0.081 C 
HETATM   30  C1  UNL     1       4.079  35.956  80.113  1.00  0.00     0.032 C 
HETATM   31  C3  UNL     1       6.037  36.895  81.202  1.00  0.00     0.032 C 
ENDBRANCH  24  29
BRANCH  26  32
HETATM   32  C6  UNL     1       3.954  41.044  78.943  1.00  0.00    -0.024 A 
HETATM   33  C7  UNL     1       4.537  42.286  78.845  1.00  0.00     0.015 A 
HETATM   34  C8  UNL     1       3.851  43.439  79.199  1.00  0.00     0.043 A 
HETATM   35  C9  UNL     1       2.556  43.360  79.661  1.00  0.00     0.116 A 
HETATM   36  F1  UNL     1       1.878  44.479  80.009  1.00  0.00    -0.206 F 
HETATM   37  C10 UNL     1       1.987  42.106  79.753  1.00  0.00     0.043 A 
HETATM   38  C11 UNL     1       2.665  40.969  79.404  1.00  0.00     0.015 A 
ENDBRANCH  26  32
ENDBRANCH  22  23
ENDBRANCH  21  22
ENDBRANCH  11  21
ENDBRANCH   1   9
TORSDOF 6
ENDMDL
MODEL 3
REMARK VINA RESULT: -8.163446271      3.730      7.114
REMARK  6 active torsions:
REMARK  status: ('A' for Active; 'I' for Inactive)
REMARK    1  A    between atoms: C2_2  and  N1_4 
REMARK    2  A    between atoms: C5_6  and  C6_7 
REMARK    3  A    between atoms: C14_16  and  C15_17 
REMARK    4  A    between atoms: C15_17  and  C16_18 
REMARK    5  A    between atoms: C16_18  and  C17_19 
REMARK    6  A    between atoms: C18_22  and  C19_23 
ROOT
HETATM    1  C19 UNL     1       9.743  32.128  75.980  1.00  0.00    -0.034 A 
HETATM    2  C20 UNL     1      10.192  30.916  75.502  1.00  0.00     0.011 A 
HETATM    3  C21 UNL     1      11.435  30.392  75.781  1.00  0.00     0.023 A 
HETATM    4  C22 UNL     1      12.284  31.131  76.592  1.00  0.00     0.044 A 
HETATM    5  C23 UNL     1      13.565  30.571  76.870  1.00  0.00     0.099 C 
HETATM    6  N3  UNL     1      14.610  30.116  77.088  1.00  0.00    -0.191 NA
HETATM    7  C24 UNL     1      11.853  32.342  77.077  1.00  0.00     0.023 A 
HETATM    8  C25 UNL     1      10.589  32.851  76.780  1.00  0.00     0.011 A 
ENDROOT
BRANCH   1   9
HETATM    9  C18 UNL     1       8.385  32.568  75.572  1.00  0.00     0.145 A 
HETATM   10  N2  UNL     1       8.060  33.893  75.781  1.00  0.00    -0.384 N 
HETATM   11  C17 UNL     1       7.168  33.650  76.614  1.00  0.00     0.011 A 
ATOM     12  H2  UNL     1       8.422  34.763  75.390  1.00  0.00     0.160 HD
HETATM   13  C26 UNL     1       7.342  32.229  76.523  1.00  0.00     0.165 A 
HETATM   14  C27 UNL     1       6.171  31.458  75.957  1.00  0.00     0.170 C 
HETATM   15  C29 UNL     1       7.675  31.461  77.748  1.00  0.00     0.242 C 
HETATM   16  O1  UNL     1       5.249  31.941  75.377  1.00  0.00    -0.294 OA
HETATM   17  C28 UNL     1       6.477  30.042  76.305  1.00  0.00     0.202 C 
HETATM   18  N4  UNL     1       7.464  30.099  77.371  1.00  0.00    -0.353 N 
ATOM     19  H4  UNL     1       7.932  29.292  77.785  1.00  0.00     0.162 HD
HETATM   20  O2  UNL     1       8.051  31.873  78.860  1.00  0.00    -0.272 OA
BRANCH  11  21
HETATM   21  C16 UNL     1       6.187  34.457  77.461  1.00  0.00     0.060 C 
BRANCH  21  22
HETATM   22  C15 UNL     1       6.909  35.469  78.284  1.00  0.00     0.063 C 
BRANCH  22  23
HETATM   23  C14 UNL     1       6.189  36.733  78.445  1.00  0.00     0.012 A 
HETATM   24  N1  UNL     1       6.435  37.764  77.628  1.00  0.00    -0.355 N 
HETATM   25  C4  UNL     1       5.754  38.913  77.796  1.00  0.00     0.103 A 
HETATM   26  C5  UNL     1       4.794  39.072  78.794  1.00  0.00    -0.010 A 
HETATM   27  C12 UNL     1       4.533  38.015  79.641  1.00  0.00     0.015 A 
HETATM   28  C13 UNL     1       5.236  36.834  79.465  1.00  0.00     0.026 A 
BRANCH  24  29
HETATM   29  C2  UNL     1       7.417  37.633  76.600  1.00  0.00     0.081 C 
HETATM   30  C1  UNL     1       8.831  37.862  77.122  1.00  0.00     0.032 C 
HETATM   31  C3  UNL     1       7.174  38.768  75.594  1.00  0.00     0.032 C 
ENDBRANCH  24  29
BRANCH  26  32
HETATM   32  C6  UNL     1       4.067  40.325  78.958  1.00  0.00    -0.024 A 
HETATM   33  C7  UNL     1       2.820  40.293  79.538  1.00  0.00     0.015 A 
HETATM   34  C8  UNL     1       2.076  41.449  79.723  1.00  0.00     0.043 A 
HETATM   35  C9  UNL     1       2.579  42.668  79.323  1.00  0.00     0.116 A 
HETATM   36  F1  UNL     1       1.861  43.802  79.499  1.00  0.00    -0.206 F 
HETATM   37  C10 UNL     1       3.832  42.681  78.743  1.00  0.00     0.043 A 
HETATM   38  C11 UNL     1       4.564  41.539  78.562  1.00  0.00     0.015 A 
ENDBRANCH  26  32
ENDBRANCH  22  23
ENDBRANCH  21  22
ENDBRANCH  11  21
ENDBRANCH   1   9
TORSDOF 6
ENDMDL
MODEL 4
REMARK VINA RESULT: -8.157592065      4.112      9.631
REMARK  6 active torsions:
REMARK  status: ('A' for Active; 'I' for Inactive)
REMARK    1  A    between atoms: C2_2  and  N1_4 
REMARK    2  A    between atoms: C5_6  and  C6_7 
REMARK    3  A    between atoms: C14_16  and  C15_17 
REMARK    4  A    between atoms: C15_17  and  C16_18 
REMARK    5  A    between atoms: C16_18  and  C17_19 
REMARK    6  A    between atoms: C18_22  and  C19_23 
ROOT
HETATM    1  C19 UNL     1       7.152  35.755  76.833  1.00  0.00    -0.034 A 
HETATM    2  C20 UNL     1       6.363  36.493  75.977  1.00  0.00     0.011 A 
HETATM    3  C21 UNL     1       6.796  37.615  75.307  1.00  0.00     0.023 A 
HETATM    4  C22 UNL     1       8.106  38.026  75.507  1.00  0.00     0.044 A 
HETATM    5  C23 UNL     1       8.535  39.189  74.803  1.00  0.00     0.099 C 
HETATM    6  N3  UNL     1       8.880  40.140  74.235  1.00  0.00    -0.191 NA
HETATM    7  C24 UNL     1       8.907  37.302  76.357  1.00  0.00     0.023 A 
HETATM    8  C25 UNL     1       8.444  36.169  77.024  1.00  0.00     0.011 A 
ENDROOT
BRANCH   1   9
HETATM    9  C18 UNL     1       6.534  34.581  77.499  1.00  0.00     0.145 A 
HETATM   10  N2  UNL     1       7.102  34.153  78.682  1.00  0.00    -0.384 N 
HETATM   11  C17 UNL     1       7.466  33.052  78.228  1.00  0.00     0.011 A 
ATOM     12  H2  UNL     1       7.191  34.585  79.602  1.00  0.00     0.160 HD
HETATM   13  C26 UNL     1       6.919  33.304  76.926  1.00  0.00     0.165 A 
HETATM   14  C27 UNL     1       5.775  32.407  76.509  1.00  0.00     0.170 C 
HETATM   15  C29 UNL     1       7.814  33.259  75.745  1.00  0.00     0.242 C 
HETATM   16  O1  UNL     1       5.157  31.699  77.242  1.00  0.00    -0.294 OA
HETATM   17  C28 UNL     1       5.656  32.643  75.043  1.00  0.00     0.202 C 
HETATM   18  N4  UNL     1       6.918  33.235  74.632  1.00  0.00    -0.353 N 
ATOM     19  H4  UNL     1       7.131  33.579  73.695  1.00  0.00     0.162 HD
HETATM   20  O2  UNL     1       9.057  33.244  75.696  1.00  0.00    -0.272 OA
BRANCH  11  21
HETATM   21  C16 UNL     1       8.199  31.821  78.753  1.00  0.00     0.060 C 
BRANCH  21  22
HETATM   22  C15 UNL     1       9.579  32.175  79.193  1.00  0.00     0.063 C 
BRANCH  22  23
HETATM   23  C14 UNL     1      10.638  31.570  78.385  1.00  0.00     0.012 A 
HETATM   24  N1  UNL     1      11.896  32.022  78.462  1.00  0.00    -0.355 N 
HETATM   25  C4  UNL     1      12.851  31.442  77.712  1.00  0.00     0.103 A 
HETATM   26  C5  UNL     1      12.581  30.381  76.850  1.00  0.00    -0.010 A 
HETATM   27  C12 UNL     1      11.288  29.907  76.763  1.00  0.00     0.015 A 
HETATM   28  C13 UNL     1      10.307  30.506  77.538  1.00  0.00     0.026 A 
BRANCH  24  29
HETATM   29  C2  UNL     1      12.202  33.112  79.331  1.00  0.00     0.081 C 
HETATM   30  C1  UNL     1      13.020  34.192  78.633  1.00  0.00     0.032 C 
HETATM   31  C3  UNL     1      13.120  32.567  80.436  1.00  0.00     0.032 C 
ENDBRANCH  24  29
BRANCH  26  32
HETATM   32  C6  UNL     1      13.630  29.766  76.046  1.00  0.00    -0.024 A 
HETATM   33  C7  UNL     1      13.335  29.381  74.759  1.00  0.00     0.015 A 
HETATM   34  C8  UNL     1      14.288  28.791  73.942  1.00  0.00     0.043 A 
HETATM   35  C9  UNL     1      15.565  28.575  74.412  1.00  0.00     0.116 A 
HETATM   36  F1  UNL     1      16.503  27.999  73.624  1.00  0.00    -0.206 F 
HETATM   37  C10 UNL     1      15.843  28.967  75.707  1.00  0.00     0.043 A 
HETATM   38  C11 UNL     1      14.901  29.550  76.510  1.00  0.00     0.015 A 
ENDBRANCH  26  32
ENDBRANCH  22  23
ENDBRANCH  21  22
ENDBRANCH  11  21
ENDBRANCH   1   9
TORSDOF 6
ENDMDL
MODEL 5
REMARK VINA RESULT: -8.002416835      3.894     10.021
REMARK  6 active torsions:
REMARK  status: ('A' for Active; 'I' for Inactive)
REMARK    1  A    between atoms: C2_2  and  N1_4 
REMARK    2  A    between atoms: C5_6  and  C6_7 
REMARK    3  A    between atoms: C14_16  and  C15_17 
REMARK    4  A    between atoms: C15_17  and  C16_18 
REMARK    5  A    between atoms: C16_18  and  C17_19 
REMARK    6  A    between atoms: C18_22  and  C19_23 
ROOT
HETATM    1  C19 UNL     1       8.075  34.600  77.115  1.00  0.00    -0.034 A 
HETATM    2  C20 UNL     1       8.996  35.214  76.294  1.00  0.00     0.011 A 
HETATM    3  C21 UNL     1       8.865  36.499  75.815  1.00  0.00     0.023 A 
HETATM    4  C22 UNL     1       7.736  37.216  76.183  1.00  0.00     0.044 A 
HETATM    5  C23 UNL     1       7.619  38.544  75.678  1.00  0.00     0.099 C 
HETATM    6  N3  UNL     1       7.523  39.622  75.259  1.00  0.00    -0.191 NA
HETATM    7  C24 UNL     1       6.806  36.620  77.001  1.00  0.00     0.023 A 
HETATM    8  C25 UNL     1       6.963  35.317  77.472  1.00  0.00     0.011 A 
ENDROOT
BRANCH   1   9
HETATM    9  C18 UNL     1       8.347  33.202  77.531  1.00  0.00     0.145 A 
HETATM   10  N2  UNL     1       9.550  32.648  77.142  1.00  0.00    -0.384 N 
HETATM   11  C17 UNL     1       9.033  31.783  76.410  1.00  0.00     0.011 A 
ATOM     12  H2  UNL     1      10.519  32.868  77.373  1.00  0.00     0.160 HD
HETATM   13  C26 UNL     1       7.693  32.200  76.707  1.00  0.00     0.165 A 
HETATM   14  C27 UNL     1       6.843  31.198  77.454  1.00  0.00     0.170 C 
HETATM   15  C29 UNL     1       6.803  32.619  75.597  1.00  0.00     0.242 C 
HETATM   16  O1  UNL     1       7.255  30.227  78.007  1.00  0.00    -0.294 OA
HETATM   17  C28 UNL     1       5.458  31.730  77.309  1.00  0.00     0.202 C 
HETATM   18  N4  UNL     1       5.503  32.656  76.190  1.00  0.00    -0.353 N 
ATOM     19  H4  UNL     1       4.728  33.242  75.877  1.00  0.00     0.162 HD
HETATM   20  O2  UNL     1       7.087  32.882  74.415  1.00  0.00    -0.272 OA
BRANCH  11  21
HETATM   21  C16 UNL     1       9.522  30.651  75.510  1.00  0.00     0.060 C 
BRANCH  21  22
HETATM   22  C15 UNL     1      10.448  29.749  76.252  1.00  0.00     0.063 C 
BRANCH  22  23
HETATM   23  C14 UNL     1      11.701  29.470  75.551  1.00  0.00     0.012 A 
HETATM   24  N1  UNL     1      12.879  29.700  76.144  1.00  0.00    -0.355 N 
HETATM   25  C4  UNL     1      14.016  29.427  75.477  1.00  0.00     0.103 A 
HETATM   26  C5  UNL     1      14.016  28.911  74.183  1.00  0.00    -0.010 A 
HETATM   27  C12 UNL     1      12.807  28.669  73.563  1.00  0.00     0.015 A 
HETATM   28  C13 UNL     1      11.639  28.950  74.253  1.00  0.00     0.026 A 
BRANCH  24  29
HETATM   29  C2  UNL     1      12.911  30.235  77.467  1.00  0.00     0.081 C 
HETATM   30  C1  UNL     1      13.100  31.747  77.472  1.00  0.00     0.032 C 
HETATM   31  C3  UNL     1      14.166  29.673  78.153  1.00  0.00     0.032 C 
ENDBRANCH  24  29
BRANCH  26  32
HETATM   32  C6  UNL     1      15.258  28.621  73.478  1.00  0.00    -0.024 A 
HETATM   33  C7  UNL     1      15.761  29.565  72.611  1.00  0.00     0.015 A 
HETATM   34  C8  UNL     1      16.938  29.351  71.910  1.00  0.00     0.043 A 
HETATM   35  C9  UNL     1      17.636  28.174  72.070  1.00  0.00     0.116 A 
HETATM   36  F1  UNL     1      18.786  27.955  71.390  1.00  0.00    -0.206 F 
HETATM   37  C10 UNL     1      17.117  27.238  72.943  1.00  0.00     0.043 A 
HETATM   38  C11 UNL     1      15.955  27.452  73.634  1.00  0.00     0.015 A 
ENDBRANCH  26  32
ENDBRANCH  22  23
ENDBRANCH  21  22
ENDBRANCH  11  21
ENDBRANCH   1   9
TORSDOF 6
ENDMDL
