MODEL 1
REMARK VINA RESULT: -8.037718815      0.000      0.000
REMARK  15 active torsions:
REMARK  status: ('A' for Active; 'I' for Inactive)
REMARK    1  A    between atoms: O1_2  and  C2_3 
REMARK    2  A    between atoms: C3_6  and  O2_7 
REMARK    3  A    between atoms: C3_6  and  C4_9 
REMARK       I    between atoms: C4_9  and  N2_11 
REMARK    4  A    between atoms: N2_11  and  C5_13 
REMARK    5  A    between atoms: C6_15  and  O5_16 
REMARK    6  A    between atoms: O5_16  and  C7_17 
REMARK    7  A    between atoms: N3_21  and  C10_22 
REMARK    8  A    between atoms: C10_22  and  O7_23 
REMARK    9  A    between atoms: C12_29  and  O9_30 
REMARK   10  A    between atoms: C13_32  and  C14_33 
REMARK   11  A    between atoms: C14_33  and  O10_34 
REMARK   12  A    between atoms: C14_33  and  O11_36 
REMARK   13  A    between atoms: O11_36  and  N5_37 
REMARK   14  A    between atoms: C16_41  and  O12_42 
REMARK   15  A    between atoms: C17_44  and  O13_45 
ROOT
HETATM    1  C5  UNL     1      15.702 -20.948  -7.467  1.00  0.00     0.238 C 
HETATM    2  O4  UNL     1      16.611 -20.786  -6.424  1.00  0.00    -0.333 OA
HETATM    3  C6  UNL     1      16.317 -19.519  -5.859  1.00  0.00     0.298 C 
HETATM    4  C12 UNL     1      16.074 -18.645  -7.109  1.00  0.00     0.186 C 
HETATM    5  C13 UNL     1      15.546 -19.597  -8.128  1.00  0.00     0.125 C 
ENDROOT
BRANCH   1   6
HETATM    6  N2  UNL     1      16.193 -21.869  -8.466  1.00  0.00    -0.330 N 
HETATM    7  C4  UNL     1      17.530 -21.867  -8.942  1.00  0.00     0.275 C 
HETATM    8  O3  UNL     1      18.367 -21.032  -8.497  1.00  0.00    -0.268 OA
ATOM      9  H2  UNL     1      15.545 -22.558  -8.849  1.00  0.00     0.165 HD
BRANCH   7  10
HETATM   10  C3  UNL     1      18.026 -22.813  -9.964  1.00  0.00     0.215 C 
HETATM   11  N1  UNL     1      18.085 -24.126  -9.401  1.00  0.00    -0.356 N 
HETATM   12  C2  UNL     1      18.319 -25.177 -10.340  1.00  0.00     0.250 C 
ATOM     13  H1  UNL     1      17.969 -24.300  -8.403  1.00  0.00     0.159 HD
HETATM   14  C17 UNL     1      17.413 -25.115 -11.546  1.00  0.00     0.195 C 
HETATM   15  C16 UNL     1      17.478 -23.730 -12.176  1.00  0.00     0.156 C 
HETATM   16  C15 UNL     1      17.035 -22.748 -11.128  1.00  0.00     0.105 C 
BRANCH  12  17
HETATM   17  O1  UNL     1      18.076 -26.400  -9.704  1.00  0.00    -0.369 OA
HETATM   18  C1  UNL     1      18.124 -26.289  -8.322  1.00  0.00     0.204 C 
ENDBRANCH  12  17
BRANCH  14  19
HETATM   19  O13 UNL     1      17.861 -26.032 -12.493  1.00  0.00    -0.389 OA
ATOM     20  H13 UNL     1      17.153 -26.631 -12.698  1.00  0.00     0.210 HD
ENDBRANCH  14  19
BRANCH  15  21
HETATM   21  O12 UNL     1      16.562 -23.721 -13.227  1.00  0.00    -0.393 OA
ATOM     22  H12 UNL     1      16.889 -24.271 -13.929  1.00  0.00     0.210 HD
ENDBRANCH  15  21
BRANCH  10  23
HETATM   23  O2  UNL     1      19.265 -22.449 -10.472  1.00  0.00    -0.363 OA
ATOM     24  H2  UNL     1      19.200 -22.264 -11.401  1.00  0.00     0.213 HD
ENDBRANCH  10  23
ENDBRANCH   7  10
ENDBRANCH   1   6
BRANCH   5  25
HETATM   25  C14 UNL     1      14.109 -19.324  -8.509  1.00  0.00     0.295 C 
BRANCH  25  26
HETATM   26  O10 UNL     1      13.244 -19.983  -7.640  1.00  0.00    -0.368 OA
ATOM     27  H10 UNL     1      13.272 -19.582  -6.779  1.00  0.00     0.212 HD
ENDBRANCH  25  26
BRANCH  25  28
HETATM   28  O11 UNL     1      13.839 -19.642  -9.817  1.00  0.00    -0.254 OA
BRANCH  28  29
HETATM   29  N5  UNL     1      12.614 -19.288 -10.218  1.00  0.00    -0.308 N 
ATOM     30  H52 UNL     1      11.882 -19.026  -9.559  1.00  0.00     0.184 HD
ATOM     31  H51 UNL     1      12.490 -19.308 -11.230  1.00  0.00     0.184 HD
ENDBRANCH  28  29
ENDBRANCH  25  28
ENDBRANCH   5  25
BRANCH   3  32
HETATM   32  O5  UNL     1      15.213 -19.593  -5.057  1.00  0.00    -0.312 OA
BRANCH  32  33
HETATM   33  C7  UNL     1      14.968 -19.496  -3.743  1.00  0.00     0.146 A 
HETATM   34  C8  UNL     1      15.676 -18.515  -3.030  1.00  0.00     0.118 A 
HETATM   35  C9  UNL     1      15.465 -18.373  -1.692  1.00  0.00     0.266 A 
HETATM   36  O6  UNL     1      16.109 -17.488  -1.070  1.00  0.00    -0.266 OA
HETATM   37  N3  UNL     1      14.604 -19.128  -0.998  1.00  0.00    -0.231 N 
HETATM   38  N4  UNL     1      13.945 -20.039  -1.656  1.00  0.00    -0.257 N 
HETATM   39  C11 UNL     1      14.100 -20.242  -2.992  1.00  0.00     0.293 A 
ATOM     40  H4  UNL     1      13.285 -20.626  -1.146  1.00  0.00     0.190 HD
HETATM   41  O8  UNL     1      13.420 -21.143  -3.533  1.00  0.00    -0.264 OA
BRANCH  37  42
HETATM   42  C10 UNL     1      14.444 -18.904   0.432  1.00  0.00     0.317 C 
BRANCH  42  43
HETATM   43  O7  UNL     1      13.556 -17.823   0.560  1.00  0.00    -0.380 OA
ATOM     44  H7  UNL     1      13.213 -17.867   1.445  1.00  0.00     0.211 HD
ENDBRANCH  42  43
ENDBRANCH  37  42
ENDBRANCH  32  33
ENDBRANCH   3  32
BRANCH   4  45
HETATM   45  O9  UNL     1      17.311 -18.167  -7.511  1.00  0.00    -0.390 OA
ATOM     46  H9  UNL     1      17.967 -18.663  -7.036  1.00  0.00     0.210 HD
ENDBRANCH   4  45
TORSDOF 15
ENDMDL
MODEL 2
REMARK VINA RESULT: -8.030089183      1.033      1.165
REMARK  15 active torsions:
REMARK  status: ('A' for Active; 'I' for Inactive)
REMARK    1  A    between atoms: O1_2  and  C2_3 
REMARK    2  A    between atoms: C3_6  and  O2_7 
REMARK    3  A    between atoms: C3_6  and  C4_9 
REMARK       I    between atoms: C4_9  and  N2_11 
REMARK    4  A    between atoms: N2_11  and  C5_13 
REMARK    5  A    between atoms: C6_15  and  O5_16 
REMARK    6  A    between atoms: O5_16  and  C7_17 
REMARK    7  A    between atoms: N3_21  and  C10_22 
REMARK    8  A    between atoms: C10_22  and  O7_23 
REMARK    9  A    between atoms: C12_29  and  O9_30 
REMARK   10  A    between atoms: C13_32  and  C14_33 
REMARK   11  A    between atoms: C14_33  and  O10_34 
REMARK   12  A    between atoms: C14_33  and  O11_36 
REMARK   13  A    between atoms: O11_36  and  N5_37 
REMARK   14  A    between atoms: C16_41  and  O12_42 
REMARK   15  A    between atoms: C17_44  and  O13_45 
ROOT
HETATM    1  C5  UNL     1      15.789 -20.927  -7.584  1.00  0.00     0.238 C 
HETATM    2  O4  UNL     1      16.772 -20.615  -6.647  1.00  0.00    -0.333 OA
HETATM    3  C6  UNL     1      16.220 -19.582  -5.849  1.00  0.00     0.298 C 
HETATM    4  C12 UNL     1      15.529 -18.684  -6.897  1.00  0.00     0.186 C 
HETATM    5  C13 UNL     1      15.138 -19.623  -7.987  1.00  0.00     0.125 C 
ENDROOT
BRANCH   1   6
HETATM    6  N2  UNL     1      16.352 -21.521  -8.774  1.00  0.00    -0.330 N 
HETATM    7  C4  UNL     1      16.987 -22.790  -8.788  1.00  0.00     0.275 C 
HETATM    8  O3  UNL     1      17.087 -23.469  -7.728  1.00  0.00    -0.268 OA
ATOM      9  H2  UNL     1      16.290 -21.002  -9.650  1.00  0.00     0.165 HD
BRANCH   7  10
HETATM   10  C3  UNL     1      17.561 -23.393 -10.010  1.00  0.00     0.215 C 
HETATM   11  N1  UNL     1      17.993 -24.726  -9.719  1.00  0.00    -0.356 N 
HETATM   12  C2  UNL     1      18.349 -25.508 -10.860  1.00  0.00     0.250 C 
ATOM     13  H1  UNL     1      18.043 -25.091  -8.768  1.00  0.00     0.159 HD
HETATM   14  C17 UNL     1      17.313 -25.472 -11.957  1.00  0.00     0.195 C 
HETATM   15  C16 UNL     1      16.976 -24.029 -12.309  1.00  0.00     0.156 C 
HETATM   16  C15 UNL     1      16.448 -23.383 -11.059  1.00  0.00     0.105 C 
BRANCH  12  17
HETATM   17  O1  UNL     1      18.476 -26.843 -10.457  1.00  0.00    -0.369 OA
HETATM   18  C1  UNL     1      18.567 -26.967  -9.078  1.00  0.00     0.204 C 
ENDBRANCH  12  17
BRANCH  14  19
HETATM   19  O13 UNL     1      17.843 -26.073 -13.096  1.00  0.00    -0.389 OA
ATOM     20  H13 UNL     1      17.533 -26.969 -13.143  1.00  0.00     0.210 HD
ENDBRANCH  14  19
BRANCH  15  21
HETATM   21  O12 UNL     1      15.962 -24.072 -13.265  1.00  0.00    -0.393 OA
ATOM     22  H12 UNL     1      15.438 -24.853 -13.129  1.00  0.00     0.210 HD
ENDBRANCH  15  21
BRANCH  10  23
HETATM   23  O2  UNL     1      18.610 -22.649 -10.531  1.00  0.00    -0.363 OA
ATOM     24  H2  UNL     1      18.661 -21.804 -10.101  1.00  0.00     0.213 HD
ENDBRANCH  10  23
ENDBRANCH   7  10
ENDBRANCH   1   6
BRANCH   5  25
HETATM   25  C14 UNL     1      13.641 -19.769  -8.139  1.00  0.00     0.295 C 
BRANCH  25  26
HETATM   26  O10 UNL     1      13.227 -19.255  -9.365  1.00  0.00    -0.368 OA
ATOM     27  H10 UNL     1      12.694 -18.479  -9.235  1.00  0.00     0.212 HD
ENDBRANCH  25  26
BRANCH  25  28
HETATM   28  O11 UNL     1      12.946 -19.201  -7.100  1.00  0.00    -0.254 OA
BRANCH  28  29
HETATM   29  N5  UNL     1      12.506 -20.084  -6.198  1.00  0.00    -0.308 N 
ATOM     30  H52 UNL     1      13.104 -20.448  -5.457  1.00  0.00     0.184 HD
ATOM     31  H51 UNL     1      11.529 -20.350  -6.325  1.00  0.00     0.184 HD
ENDBRANCH  28  29
ENDBRANCH  25  28
ENDBRANCH   5  25
BRANCH   3  32
HETATM   32  O5  UNL     1      15.336 -20.093  -4.941  1.00  0.00    -0.312 OA
BRANCH  32  33
HETATM   33  C7  UNL     1      15.031 -19.861  -3.656  1.00  0.00     0.146 A 
HETATM   34  C8  UNL     1      15.744 -18.844  -3.003  1.00  0.00     0.118 A 
HETATM   35  C9  UNL     1      15.475 -18.566  -1.696  1.00  0.00     0.266 A 
HETATM   36  O6  UNL     1      16.125 -17.650  -1.128  1.00  0.00    -0.266 OA
HETATM   37  N3  UNL     1      14.551 -19.219  -0.980  1.00  0.00    -0.231 N 
HETATM   38  N4  UNL     1      13.887 -20.164  -1.584  1.00  0.00    -0.257 N 
HETATM   39  C11 UNL     1      14.098 -20.500  -2.885  1.00  0.00     0.293 A 
ATOM     40  H4  UNL     1      13.178 -20.674  -1.057  1.00  0.00     0.190 HD
HETATM   41  O8  UNL     1      13.408 -21.423  -3.374  1.00  0.00    -0.264 OA
BRANCH  37  42
HETATM   42  C10 UNL     1      14.331 -18.853   0.412  1.00  0.00     0.317 C 
BRANCH  42  43
HETATM   43  O7  UNL     1      13.459 -17.751   0.392  1.00  0.00    -0.380 OA
ATOM     44  H7  UNL     1      14.012 -16.980   0.349  1.00  0.00     0.211 HD
ENDBRANCH  42  43
ENDBRANCH  37  42
ENDBRANCH  32  33
ENDBRANCH   3  32
BRANCH   4  45
HETATM   45  O9  UNL     1      16.487 -17.798  -7.363  1.00  0.00    -0.390 OA
ATOM     46  H9  UNL     1      16.498 -17.876  -8.310  1.00  0.00     0.210 HD
ENDBRANCH   4  45
TORSDOF 15
ENDMDL
MODEL 3
REMARK VINA RESULT: -7.839242354      0.795      1.382
REMARK  15 active torsions:
REMARK  status: ('A' for Active; 'I' for Inactive)
REMARK    1  A    between atoms: O1_2  and  C2_3 
REMARK    2  A    between atoms: C3_6  and  O2_7 
REMARK    3  A    between atoms: C3_6  and  C4_9 
REMARK       I    between atoms: C4_9  and  N2_11 
REMARK    4  A    between atoms: N2_11  and  C5_13 
REMARK    5  A    between atoms: C6_15  and  O5_16 
REMARK    6  A    between atoms: O5_16  and  C7_17 
REMARK    7  A    between atoms: N3_21  and  C10_22 
REMARK    8  A    between atoms: C10_22  and  O7_23 
REMARK    9  A    between atoms: C12_29  and  O9_30 
REMARK   10  A    between atoms: C13_32  and  C14_33 
REMARK   11  A    between atoms: C14_33  and  O10_34 
REMARK   12  A    between atoms: C14_33  and  O11_36 
REMARK   13  A    between atoms: O11_36  and  N5_37 
REMARK   14  A    between atoms: C16_41  and  O12_42 
REMARK   15  A    between atoms: C17_44  and  O13_45 
ROOT
HETATM    1  C5  UNL     1      15.934 -21.028  -7.628  1.00  0.00     0.238 C 
HETATM    2  O4  UNL     1      16.914 -20.877  -6.649  1.00  0.00    -0.333 OA
HETATM    3  C6  UNL     1      16.695 -19.592  -6.091  1.00  0.00     0.298 C 
HETATM    4  C12 UNL     1      16.397 -18.733  -7.338  1.00  0.00     0.186 C 
HETATM    5  C13 UNL     1      15.775 -19.685  -8.303  1.00  0.00     0.125 C 
ENDROOT
BRANCH   1   6
HETATM    6  N2  UNL     1      16.331 -21.981  -8.639  1.00  0.00    -0.330 N 
HETATM    7  C4  UNL     1      17.637 -22.038  -9.191  1.00  0.00     0.275 C 
HETATM    8  O3  UNL     1      18.530 -21.231  -8.807  1.00  0.00    -0.268 OA
ATOM      9  H2  UNL     1      15.636 -22.649  -8.974  1.00  0.00     0.165 HD
BRANCH   7  10
HETATM   10  C3  UNL     1      18.037 -23.016 -10.225  1.00  0.00     0.215 C 
HETATM   11  N1  UNL     1      18.203 -24.301  -9.618  1.00  0.00    -0.356 N 
HETATM   12  C2  UNL     1      18.356 -25.386 -10.534  1.00  0.00     0.250 C 
ATOM     13  H1  UNL     1      18.212 -24.433  -8.607  1.00  0.00     0.159 HD
HETATM   14  C17 UNL     1      17.311 -25.402 -11.623  1.00  0.00     0.195 C 
HETATM   15  C16 UNL     1      17.258 -24.046 -12.314  1.00  0.00     0.156 C 
HETATM   16  C15 UNL     1      16.913 -23.029 -11.263  1.00  0.00     0.105 C 
BRANCH  12  17
HETATM   17  O1  UNL     1      18.228 -26.585  -9.822  1.00  0.00    -0.369 OA
HETATM   18  C1  UNL     1      18.202 -26.379  -8.451  1.00  0.00     0.204 C 
ENDBRANCH  12  17
BRANCH  14  19
HETATM   19  O13 UNL     1      17.671 -26.349 -12.578  1.00  0.00    -0.389 OA
ATOM     20  H13 UNL     1      17.684 -25.935 -13.432  1.00  0.00     0.210 HD
ENDBRANCH  14  19
BRANCH  15  21
HETATM   21  O12 UNL     1      16.224 -24.107 -13.247  1.00  0.00    -0.393 OA
ATOM     22  H12 UNL     1      15.820 -24.966 -13.209  1.00  0.00     0.210 HD
ENDBRANCH  15  21
BRANCH  10  23
HETATM   23  O2  UNL     1      19.195 -22.644 -10.893  1.00  0.00    -0.363 OA
ATOM     24  H2  UNL     1      18.981 -22.225 -11.717  1.00  0.00     0.213 HD
ENDBRANCH  10  23
ENDBRANCH   7  10
ENDBRANCH   1   6
BRANCH   5  25
HETATM   25  C14 UNL     1      14.325 -19.374  -8.595  1.00  0.00     0.295 C 
BRANCH  25  26
HETATM   26  O10 UNL     1      13.498 -20.012  -7.674  1.00  0.00    -0.368 OA
ATOM     27  H10 UNL     1      12.639 -19.607  -7.667  1.00  0.00     0.212 HD
ENDBRANCH  25  26
BRANCH  25  28
HETATM   28  O11 UNL     1      13.967 -19.683  -9.884  1.00  0.00    -0.254 OA
BRANCH  28  29
HETATM   29  N5  UNL     1      12.726 -19.306 -10.206  1.00  0.00    -0.308 N 
ATOM     30  H52 UNL     1      12.207 -18.622  -9.657  1.00  0.00     0.184 HD
ATOM     31  H51 UNL     1      12.359 -19.764 -11.040  1.00  0.00     0.184 HD
ENDBRANCH  28  29
ENDBRANCH  25  28
ENDBRANCH   5  25
BRANCH   3  32
HETATM   32  O5  UNL     1      15.644 -19.618  -5.217  1.00  0.00    -0.312 OA
BRANCH  32  33
HETATM   33  C7  UNL     1      15.466 -19.357  -3.915  1.00  0.00     0.146 A 
HETATM   34  C8  UNL     1      14.670 -20.254  -3.185  1.00  0.00     0.118 A 
HETATM   35  C9  UNL     1      14.457 -20.037  -1.857  1.00  0.00     0.266 A 
HETATM   36  O6  UNL     1      13.740 -20.853  -1.220  1.00  0.00    -0.266 OA
HETATM   37  N3  UNL     1      14.973 -18.998  -1.189  1.00  0.00    -0.231 N 
HETATM   38  N4  UNL     1      15.713 -18.164  -1.863  1.00  0.00    -0.257 N 
HETATM   39  C11 UNL     1      15.972 -18.312  -3.190  1.00  0.00     0.293 A 
ATOM     40  H4  UNL     1      16.115 -17.365  -1.373  1.00  0.00     0.190 HD
HETATM   41  O8  UNL     1      16.695 -17.456  -3.748  1.00  0.00    -0.264 OA
BRANCH  37  42
HETATM   42  C10 UNL     1      14.691 -18.847   0.232  1.00  0.00     0.317 C 
BRANCH  42  43
HETATM   43  O7  UNL     1      13.554 -18.026   0.317  1.00  0.00    -0.380 OA
ATOM     44  H7  UNL     1      13.008 -18.402   0.998  1.00  0.00     0.211 HD
ENDBRANCH  42  43
ENDBRANCH  37  42
ENDBRANCH  32  33
ENDBRANCH   3  32
BRANCH   4  45
HETATM   45  O9  UNL     1      17.618 -18.299  -7.830  1.00  0.00    -0.390 OA
ATOM     46  H9  UNL     1      18.201 -18.214  -7.084  1.00  0.00     0.210 HD
ENDBRANCH   4  45
TORSDOF 15
ENDMDL
MODEL 4
REMARK VINA RESULT: -7.723049254      1.958      9.046
REMARK  15 active torsions:
REMARK  status: ('A' for Active; 'I' for Inactive)
REMARK    1  A    between atoms: O1_2  and  C2_3 
REMARK    2  A    between atoms: C3_6  and  O2_7 
REMARK    3  A    between atoms: C3_6  and  C4_9 
REMARK       I    between atoms: C4_9  and  N2_11 
REMARK    4  A    between atoms: N2_11  and  C5_13 
REMARK    5  A    between atoms: C6_15  and  O5_16 
REMARK    6  A    between atoms: O5_16  and  C7_17 
REMARK    7  A    between atoms: N3_21  and  C10_22 
REMARK    8  A    between atoms: C10_22  and  O7_23 
REMARK    9  A    between atoms: C12_29  and  O9_30 
REMARK   10  A    between atoms: C13_32  and  C14_33 
REMARK   11  A    between atoms: C14_33  and  O10_34 
REMARK   12  A    between atoms: C14_33  and  O11_36 
REMARK   13  A    between atoms: O11_36  and  N5_37 
REMARK   14  A    between atoms: C16_41  and  O12_42 
REMARK   15  A    between atoms: C17_44  and  O13_45 
ROOT
HETATM    1  C5  UNL     1      16.080 -20.284  -6.169  1.00  0.00     0.238 C 
HETATM    2  O4  UNL     1      15.266 -21.174  -6.866  1.00  0.00    -0.333 OA
HETATM    3  C6  UNL     1      15.217 -20.681  -8.194  1.00  0.00     0.298 C 
HETATM    4  C12 UNL     1      15.067 -19.160  -7.980  1.00  0.00     0.186 C 
HETATM    5  C13 UNL     1      15.760 -18.900  -6.685  1.00  0.00     0.125 C 
ENDROOT
BRANCH   1   6
HETATM    6  N2  UNL     1      15.799 -20.299  -4.752  1.00  0.00    -0.330 N 
HETATM    7  C4  UNL     1      14.485 -20.259  -4.215  1.00  0.00     0.275 C 
HETATM    8  O3  UNL     1      13.482 -20.208  -4.981  1.00  0.00    -0.268 OA
ATOM      9  H2  UNL     1      16.585 -20.341  -4.103  1.00  0.00     0.165 HD
BRANCH   7  10
HETATM   10  C3  UNL     1      14.204 -20.276  -2.764  1.00  0.00     0.215 C 
HETATM   11  N1  UNL     1      14.827 -21.422  -2.176  1.00  0.00    -0.356 N 
HETATM   12  C2  UNL     1      14.839 -21.438  -0.749  1.00  0.00     0.250 C 
ATOM     13  H1  UNL     1      15.232 -22.172  -2.735  1.00  0.00     0.159 HD
HETATM   14  C17 UNL     1      15.332 -20.148  -0.140  1.00  0.00     0.195 C 
HETATM   15  C16 UNL     1      14.555 -18.970  -0.714  1.00  0.00     0.156 C 
HETATM   16  C15 UNL     1      14.781 -18.976  -2.199  1.00  0.00     0.105 C 
BRANCH  12  17
HETATM   17  O1  UNL     1      15.707 -22.451  -0.326  1.00  0.00    -0.369 OA
HETATM   18  C1  UNL     1      16.991 -22.281  -0.823  1.00  0.00     0.204 C 
ENDBRANCH  12  17
BRANCH  14  19
HETATM   19  O13 UNL     1      15.099 -20.180   1.233  1.00  0.00    -0.389 OA
ATOM     20  H13 UNL     1      15.448 -19.387   1.622  1.00  0.00     0.210 HD
ENDBRANCH  14  19
BRANCH  15  21
HETATM   21  O12 UNL     1      15.114 -17.813  -0.171  1.00  0.00    -0.393 OA
ATOM     22  H12 UNL     1      14.583 -17.525   0.562  1.00  0.00     0.210 HD
ENDBRANCH  15  21
BRANCH  10  23
HETATM   23  O2  UNL     1      12.846 -20.267  -2.483  1.00  0.00    -0.363 OA
ATOM     24  H2  UNL     1      12.391 -20.898  -3.028  1.00  0.00     0.213 HD
ENDBRANCH  10  23
ENDBRANCH   7  10
ENDBRANCH   1   6
BRANCH   5  25
HETATM   25  C14 UNL     1      17.005 -18.057  -6.835  1.00  0.00     0.295 C 
BRANCH  25  26
HETATM   26  O10 UNL     1      17.876 -18.639  -7.753  1.00  0.00    -0.368 OA
ATOM     27  H10 UNL     1      17.548 -18.527  -8.637  1.00  0.00     0.212 HD
ENDBRANCH  25  26
BRANCH  25  28
HETATM   28  O11 UNL     1      17.631 -17.819  -5.637  1.00  0.00    -0.254 OA
BRANCH  28  29
HETATM   29  N5  UNL     1      16.976 -16.963  -4.846  1.00  0.00    -0.308 N 
ATOM     30  H52 UNL     1      16.162 -16.441  -5.167  1.00  0.00     0.184 HD
ATOM     31  H51 UNL     1      17.367 -16.888  -3.907  1.00  0.00     0.184 HD
ENDBRANCH  28  29
ENDBRANCH  25  28
ENDBRANCH   5  25
BRANCH   3  32
HETATM   32  O5  UNL     1      16.361 -20.998  -8.871  1.00  0.00    -0.312 OA
BRANCH  32  33
HETATM   33  C7  UNL     1      16.846 -22.083  -9.490  1.00  0.00     0.146 A 
HETATM   34  C8  UNL     1      16.716 -22.135 -10.887  1.00  0.00     0.118 A 
HETATM   35  C9  UNL     1      17.192 -23.215 -11.567  1.00  0.00     0.266 A 
HETATM   36  O6  UNL     1      17.065 -23.243 -12.819  1.00  0.00    -0.266 OA
HETATM   37  N3  UNL     1      17.790 -24.254 -10.973  1.00  0.00    -0.231 N 
HETATM   38  N4  UNL     1      17.913 -24.210  -9.676  1.00  0.00    -0.257 N 
HETATM   39  C11 UNL     1      17.464 -23.167  -8.926  1.00  0.00     0.293 A 
ATOM     40  H4  UNL     1      18.366 -24.992  -9.202  1.00  0.00     0.190 HD
HETATM   41  O8  UNL     1      17.630 -23.218  -7.687  1.00  0.00    -0.264 OA
BRANCH  37  42
HETATM   42  C10 UNL     1      18.268 -25.367 -11.781  1.00  0.00     0.317 C 
BRANCH  42  43
HETATM   43  O7  UNL     1      17.127 -26.107 -12.137  1.00  0.00    -0.380 OA
ATOM     44  H7  UNL     1      17.321 -26.499 -12.980  1.00  0.00     0.211 HD
ENDBRANCH  42  43
ENDBRANCH  37  42
ENDBRANCH  32  33
ENDBRANCH   3  32
BRANCH   4  45
HETATM   45  O9  UNL     1      13.712 -18.903  -7.845  1.00  0.00    -0.390 OA
ATOM     46  H9  UNL     1      13.506 -18.187  -8.434  1.00  0.00     0.210 HD
ENDBRANCH   4  45
TORSDOF 15
ENDMDL
MODEL 5
REMARK VINA RESULT: -7.703045314      4.403      8.605
REMARK  15 active torsions:
REMARK  status: ('A' for Active; 'I' for Inactive)
REMARK    1  A    between atoms: O1_2  and  C2_3 
REMARK    2  A    between atoms: C3_6  and  O2_7 
REMARK    3  A    between atoms: C3_6  and  C4_9 
REMARK       I    between atoms: C4_9  and  N2_11 
REMARK    4  A    between atoms: N2_11  and  C5_13 
REMARK    5  A    between atoms: C6_15  and  O5_16 
REMARK    6  A    between atoms: O5_16  and  C7_17 
REMARK    7  A    between atoms: N3_21  and  C10_22 
REMARK    8  A    between atoms: C10_22  and  O7_23 
REMARK    9  A    between atoms: C12_29  and  O9_30 
REMARK   10  A    between atoms: C13_32  and  C14_33 
REMARK   11  A    between atoms: C14_33  and  O10_34 
REMARK   12  A    between atoms: C14_33  and  O11_36 
REMARK   13  A    between atoms: O11_36  and  N5_37 
REMARK   14  A    between atoms: C16_41  and  O12_42 
REMARK   15  A    between atoms: C17_44  and  O13_45 
ROOT
HETATM    1  C5  UNL     1      15.827 -17.786  -5.424  1.00  0.00     0.238 C 
HETATM    2  O4  UNL     1      16.126 -17.885  -6.781  1.00  0.00    -0.333 OA
HETATM    3  C6  UNL     1      15.341 -18.963  -7.263  1.00  0.00     0.298 C 
HETATM    4  C12 UNL     1      15.483 -20.009  -6.136  1.00  0.00     0.186 C 
HETATM    5  C13 UNL     1      15.681 -19.197  -4.902  1.00  0.00     0.125 C 
ENDROOT
BRANCH   1   6
HETATM    6  N2  UNL     1      16.897 -17.155  -4.685  1.00  0.00    -0.330 N 
HETATM    7  C4  UNL     1      18.248 -17.585  -4.746  1.00  0.00     0.275 C 
HETATM    8  O3  UNL     1      18.576 -18.567  -5.470  1.00  0.00    -0.268 OA
ATOM      9  H2  UNL     1      16.670 -16.358  -4.090  1.00  0.00     0.165 HD
BRANCH   7  10
HETATM   10  C3  UNL     1      19.339 -16.934  -3.988  1.00  0.00     0.215 C 
HETATM   11  N1  UNL     1      20.542 -16.983  -4.759  1.00  0.00    -0.356 N 
HETATM   12  C2  UNL     1      21.615 -16.187  -4.256  1.00  0.00     0.250 C 
ATOM     13  H1  UNL     1      20.629 -17.545  -5.606  1.00  0.00     0.159 HD
HETATM   14  C17 UNL     1      21.207 -14.771  -3.928  1.00  0.00     0.195 C 
HETATM   15  C16 UNL     1      19.991 -14.778  -3.010  1.00  0.00     0.156 C 
HETATM   16  C15 UNL     1      18.891 -15.492  -3.742  1.00  0.00     0.105 C 
BRANCH  12  17
HETATM   17  O1  UNL     1      22.608 -16.111  -5.240  1.00  0.00    -0.369 OA
HETATM   18  C1  UNL     1      22.339 -16.941  -6.318  1.00  0.00     0.204 C 
ENDBRANCH  12  17
BRANCH  14  19
HETATM   19  O13 UNL     1      22.249 -14.148  -3.246  1.00  0.00    -0.389 OA
ATOM     20  H13 UNL     1      22.071 -14.185  -2.314  1.00  0.00     0.210 HD
ENDBRANCH  14  19
BRANCH  15  21
HETATM   21  O12 UNL     1      19.623 -13.448  -2.815  1.00  0.00    -0.393 OA
ATOM     22  H12 UNL     1      18.690 -13.405  -2.641  1.00  0.00     0.210 HD
ENDBRANCH  15  21
BRANCH  10  23
HETATM   23  O2  UNL     1      19.539 -17.510  -2.742  1.00  0.00    -0.363 OA
ATOM     24  H2  UNL     1      18.740 -17.481  -2.231  1.00  0.00     0.213 HD
ENDBRANCH  10  23
ENDBRANCH   7  10
ENDBRANCH   1   6
BRANCH   5  25
HETATM   25  C14 UNL     1      14.536 -19.315  -3.922  1.00  0.00     0.295 C 
BRANCH  25  26
HETATM   26  O10 UNL     1      14.857 -18.683  -2.724  1.00  0.00    -0.368 OA
ATOM     27  H10 UNL     1      15.180 -17.805  -2.889  1.00  0.00     0.212 HD
ENDBRANCH  25  26
BRANCH  25  28
HETATM   28  O11 UNL     1      14.151 -20.615  -3.712  1.00  0.00    -0.254 OA
BRANCH  28  29
HETATM   29  N5  UNL     1      12.829 -20.776  -3.597  1.00  0.00    -0.308 N 
ATOM     30  H52 UNL     1      12.181 -19.990  -3.628  1.00  0.00     0.184 HD
ATOM     31  H51 UNL     1      12.540 -21.747  -3.478  1.00  0.00     0.184 HD
ENDBRANCH  28  29
ENDBRANCH  25  28
ENDBRANCH   5  25
BRANCH   3  32
HETATM   32  O5  UNL     1      14.044 -18.572  -7.445  1.00  0.00    -0.312 OA
BRANCH  32  33
HETATM   33  C7  UNL     1      12.961 -19.077  -8.053  1.00  0.00     0.146 A 
HETATM   34  C8  UNL     1      12.885 -18.934  -9.447  1.00  0.00     0.118 A 
HETATM   35  C9  UNL     1      11.806 -19.429 -10.116  1.00  0.00     0.266 A 
HETATM   36  O6  UNL     1      11.756 -19.291 -11.366  1.00  0.00    -0.266 OA
HETATM   37  N3  UNL     1      10.791 -20.059  -9.512  1.00  0.00    -0.231 N 
HETATM   38  N4  UNL     1      10.858 -20.194  -8.217  1.00  0.00    -0.257 N 
HETATM   39  C11 UNL     1      11.902 -19.727  -7.479  1.00  0.00     0.293 A 
ATOM     40  H4  UNL     1      10.095 -20.670  -7.737  1.00  0.00     0.190 HD
HETATM   41  O8  UNL     1      11.874 -19.906  -6.241  1.00  0.00    -0.264 OA
BRANCH  37  42
HETATM   42  C10 UNL     1       9.677 -20.556 -10.308  1.00  0.00     0.317 C 
BRANCH  42  43
HETATM   43  O7  UNL     1      10.168 -21.671 -11.009  1.00  0.00    -0.380 OA
ATOM     44  H7  UNL     1      10.055 -21.473 -11.931  1.00  0.00     0.211 HD
ENDBRANCH  42  43
ENDBRANCH  37  42
ENDBRANCH  32  33
ENDBRANCH   3  32
BRANCH   4  45
HETATM   45  O9  UNL     1      16.630 -20.738  -6.407  1.00  0.00    -0.390 OA
ATOM     46  H9  UNL     1      16.351 -21.616  -6.638  1.00  0.00     0.210 HD
ENDBRANCH   4  45
TORSDOF 15
ENDMDL
