MODEL 1
REMARK VINA RESULT: -8.119632862      0.000      0.000
REMARK  11 active torsions:
REMARK  status: ('A' for Active; 'I' for Inactive)
REMARK    1  A    between atoms: N1_1  and  C1_4 
REMARK    2  A    between atoms: C6_17  and  O3_18 
REMARK    3  A    between atoms: C6_17  and  C13_36 
REMARK    4  A    between atoms: O3_18  and  C7_19 
REMARK    5  A    between atoms: C7_19  and  C8_20 
REMARK    6  A    between atoms: C8_20  and  O4_21 
REMARK    7  A    between atoms: O4_21  and  C9_22 
REMARK    8  A    between atoms: C10_27  and  O5_28 
REMARK    9  A    between atoms: C11_30  and  O6_31 
REMARK   10  A    between atoms: C12_33  and  O7_34 
REMARK   11  A    between atoms: N8_43  and  O11_44 
ROOT
HETATM    1  C1  UNL     1      12.692 -19.645  -7.070  1.00  0.00     0.679 A 
HETATM    2  N2  UNL     1      13.771 -19.000  -7.547  1.00  0.00    -0.154 N 
ATOM      3  H2  UNL     1      13.744 -18.596  -8.483  1.00  0.00     0.187 HD
HETATM    4  C2  UNL     1      14.907 -18.879  -6.790  1.00  0.00     0.290 A 
HETATM    5  O1  UNL     1      15.895 -18.273  -7.244  1.00  0.00    -0.265 OA
HETATM    6  C3  UNL     1      14.938 -19.419  -5.546  1.00  0.00     0.156 A 
HETATM    7  C4  UNL     1      13.817 -20.061  -5.108  1.00  0.00     0.152 A 
HETATM    8  N3  UNL     1      12.684 -20.194  -5.837  1.00  0.00    -0.184 N 
ATOM      9  H3  UNL     1      11.868 -20.684  -5.474  1.00  0.00     0.184 HD
HETATM   10  C5  UNL     1      14.055 -20.484  -3.844  1.00  0.00     0.295 A 
HETATM   11  O2  UNL     1      13.360 -21.108  -3.029  1.00  0.00    -0.264 OA
HETATM   12  N4  UNL     1      15.346 -20.067  -3.567  1.00  0.00    -0.199 N 
HETATM   13  N5  UNL     1      15.889 -19.453  -4.534  1.00  0.00    -0.226 N 
HETATM   14  C6  UNL     1      17.121 -19.242  -3.907  1.00  0.00     0.308 A 
HETATM   15  C14 UNL     1      16.431 -19.879  -2.696  1.00  0.00     0.306 A 
HETATM   16  O10 UNL     1      17.012 -21.052  -2.262  1.00  0.00    -0.345 OA
HETATM   17  C15 UNL     1      18.084 -20.918  -1.436  1.00  0.00     0.194 C 
HETATM   18  C16 UNL     1      18.085 -19.835  -0.434  1.00  0.00     0.185 C 
HETATM   19  N8  UNL     1      17.217 -18.724  -0.677  1.00  0.00    -0.222 N 
HETATM   20  C17 UNL     1      16.153 -18.936  -1.616  1.00  0.00     0.307 C 
HETATM   21  O12 UNL     1      15.066 -18.334  -1.488  1.00  0.00    -0.265 OA
ENDROOT
BRANCH  14  22
HETATM   22  O3  UNL     1      18.260 -19.864  -4.164  1.00  0.00    -0.344 OA
BRANCH  22  23
HETATM   23  C7  UNL     1      18.990 -19.784  -5.244  1.00  0.00     0.198 C 
BRANCH  23  24
HETATM   24  C8  UNL     1      19.075 -20.907  -6.234  1.00  0.00     0.197 C 
BRANCH  24  25
HETATM   25  O4  UNL     1      17.893 -21.136  -6.897  1.00  0.00    -0.361 OA
BRANCH  25  26
HETATM   26  C9  UNL     1      17.947 -21.121  -8.283  1.00  0.00     0.267 C 
HETATM   27  N6  UNL     1      16.752 -20.573  -8.865  1.00  0.00    -0.307 N 
HETATM   28  N7  UNL     1      15.906 -21.404  -9.514  1.00  0.00    -0.307 N 
ATOM     29  H6  UNL     1      16.546 -19.577  -8.789  1.00  0.00     0.183 HD
HETATM   30  C10 UNL     1      16.541 -22.328 -10.426  1.00  0.00     0.264 C 
ATOM     31  H7  UNL     1      14.896 -21.381  -9.372  1.00  0.00     0.182 HD
HETATM   32  C11 UNL     1      17.386 -23.228  -9.586  1.00  0.00     0.201 C 
HETATM   33  C12 UNL     1      18.382 -22.429  -8.836  1.00  0.00     0.201 C 
BRANCH  30  34
HETATM   34  O5  UNL     1      15.536 -23.004 -11.112  1.00  0.00    -0.373 OA
ATOM     35  H5  UNL     1      14.874 -23.255 -10.480  1.00  0.00     0.212 HD
ENDBRANCH  30  34
BRANCH  32  36
HETATM   36  O6  UNL     1      16.603 -24.026  -8.759  1.00  0.00    -0.388 OA
ATOM     37  H6  UNL     1      17.141 -24.586  -8.210  1.00  0.00     0.210 HD
ENDBRANCH  32  36
BRANCH  33  38
HETATM   38  O7  UNL     1      19.532 -22.312  -9.636  1.00  0.00    -0.388 OA
ATOM     39  H7  UNL     1      19.323 -22.077 -10.533  1.00  0.00     0.210 HD
ENDBRANCH  33  38
ENDBRANCH  25  26
ENDBRANCH  24  25
ENDBRANCH  23  24
ENDBRANCH  22  23
ENDBRANCH  14  22
BRANCH  14  40
HETATM   40  C13 UNL     1      17.411 -17.770  -3.653  1.00  0.00     0.239 C 
HETATM   41  O8  UNL     1      16.609 -16.944  -4.135  1.00  0.00    -0.644 OA
HETATM   42  O9  UNL     1      18.474 -17.312  -2.941  1.00  0.00    -0.644 OA
ENDBRANCH  14  40
BRANCH  19  43
HETATM   43  O11 UNL     1      17.380 -17.537  -0.056  1.00  0.00    -0.285 OA
ATOM     44  H11 UNL     1      17.951 -16.861  -0.401  1.00  0.00     0.245 HD
ENDBRANCH  19  43
BRANCH   1  45
HETATM   45  N1  UNL     1      11.624 -19.767  -7.770  1.00  0.00    -0.234 N 
ATOM     46  H12 UNL     1      11.476 -19.084  -8.512  1.00  0.00     0.174 HD
ATOM     47  H11 UNL     1      10.953 -20.514  -7.589  1.00  0.00     0.174 HD
ENDBRANCH   1  45
TORSDOF 11
ENDMDL
MODEL 2
REMARK VINA RESULT: -7.945053918      2.258      3.261
REMARK  11 active torsions:
REMARK  status: ('A' for Active; 'I' for Inactive)
REMARK    1  A    between atoms: N1_1  and  C1_4 
REMARK    2  A    between atoms: C6_17  and  O3_18 
REMARK    3  A    between atoms: C6_17  and  C13_36 
REMARK    4  A    between atoms: O3_18  and  C7_19 
REMARK    5  A    between atoms: C7_19  and  C8_20 
REMARK    6  A    between atoms: C8_20  and  O4_21 
REMARK    7  A    between atoms: O4_21  and  C9_22 
REMARK    8  A    between atoms: C10_27  and  O5_28 
REMARK    9  A    between atoms: C11_30  and  O6_31 
REMARK   10  A    between atoms: C12_33  and  O7_34 
REMARK   11  A    between atoms: N8_43  and  O11_44 
ROOT
HETATM    1  C1  UNL     1      13.027 -19.589  -7.337  1.00  0.00     0.679 A 
HETATM    2  N2  UNL     1      13.883 -19.774  -8.357  1.00  0.00    -0.154 N 
ATOM      3  H2  UNL     1      13.523 -20.029  -9.277  1.00  0.00     0.187 HD
HETATM    4  C2  UNL     1      15.233 -19.626  -8.177  1.00  0.00     0.290 A 
HETATM    5  O1  UNL     1      16.011 -19.796  -9.133  1.00  0.00    -0.265 OA
HETATM    6  C3  UNL     1      15.707 -19.288  -6.951  1.00  0.00     0.156 A 
HETATM    7  C4  UNL     1      14.797 -19.109  -5.950  1.00  0.00     0.152 A 
HETATM    8  N3  UNL     1      13.460 -19.251  -6.104  1.00  0.00    -0.184 N 
ATOM      9  H3  UNL     1      12.814 -19.109  -5.329  1.00  0.00     0.184 HD
HETATM   10  C5  UNL     1      15.480 -18.745  -4.838  1.00  0.00     0.295 A 
HETATM   11  O2  UNL     1      15.112 -18.474  -3.686  1.00  0.00    -0.264 OA
HETATM   12  N4  UNL     1      16.808 -18.721  -5.228  1.00  0.00    -0.199 N 
HETATM   13  N5  UNL     1      16.975 -19.037  -6.444  1.00  0.00    -0.226 N 
HETATM   14  C6  UNL     1      18.370 -18.933  -6.437  1.00  0.00     0.308 A 
HETATM   15  C14 UNL     1      18.165 -18.438  -5.002  1.00  0.00     0.306 A 
HETATM   16  O10 UNL     1      18.750 -19.231  -4.037  1.00  0.00    -0.345 OA
HETATM   17  C15 UNL     1      20.070 -19.010  -3.802  1.00  0.00     0.194 C 
HETATM   18  C16 UNL     1      20.583 -17.627  -3.841  1.00  0.00     0.185 C 
HETATM   19  N8  UNL     1      19.808 -16.666  -4.565  1.00  0.00    -0.222 N 
HETATM   20  C17 UNL     1      18.441 -17.015  -4.828  1.00  0.00     0.307 C 
HETATM   21  O12 UNL     1      17.563 -16.128  -4.895  1.00  0.00    -0.265 OA
ENDROOT
BRANCH  14  22
HETATM   22  O3  UNL     1      19.240 -19.930  -6.457  1.00  0.00    -0.344 OA
BRANCH  22  23
HETATM   23  C7  UNL     1      19.437 -20.802  -7.409  1.00  0.00     0.198 C 
BRANCH  23  24
HETATM   24  C8  UNL     1      18.506 -21.955  -7.638  1.00  0.00     0.197 C 
BRANCH  24  25
HETATM   25  O4  UNL     1      18.453 -22.355  -8.952  1.00  0.00    -0.361 OA
BRANCH  25  26
HETATM   26  C9  UNL     1      17.308 -23.031  -9.349  1.00  0.00     0.267 C 
HETATM   27  N6  UNL     1      17.406 -24.446  -9.117  1.00  0.00    -0.307 N 
HETATM   28  N7  UNL     1      17.526 -25.271 -10.182  1.00  0.00    -0.307 N 
ATOM     29  H6  UNL     1      17.387 -24.820  -8.169  1.00  0.00     0.183 HD
HETATM   30  C10 UNL     1      16.618 -24.993 -11.272  1.00  0.00     0.264 C 
ATOM     31  H7  UNL     1      18.205 -26.032 -10.213  1.00  0.00     0.182 HD
HETATM   32  C11 UNL     1      16.994 -23.646 -11.793  1.00  0.00     0.201 C 
HETATM   33  C12 UNL     1      16.877 -22.637 -10.715  1.00  0.00     0.201 C 
BRANCH  30  34
HETATM   34  O5  UNL     1      16.768 -26.006 -12.215  1.00  0.00    -0.373 OA
ATOM     35  H5  UNL     1      17.289 -26.694 -11.819  1.00  0.00     0.212 HD
ENDBRANCH  30  34
BRANCH  32  36
HETATM   36  O6  UNL     1      18.257 -23.665 -12.377  1.00  0.00    -0.388 OA
ATOM     37  H6  UNL     1      18.894 -23.216 -11.834  1.00  0.00     0.210 HD
ENDBRANCH  32  36
BRANCH  33  38
HETATM   38  O7  UNL     1      15.564 -22.135 -10.735  1.00  0.00    -0.388 OA
ATOM     39  H7  UNL     1      15.538 -21.202 -10.909  1.00  0.00     0.210 HD
ENDBRANCH  33  38
ENDBRANCH  25  26
ENDBRANCH  24  25
ENDBRANCH  23  24
ENDBRANCH  22  23
ENDBRANCH  14  22
BRANCH  14  40
HETATM   40  C13 UNL     1      18.884 -17.812  -7.328  1.00  0.00     0.239 C 
HETATM   41  O8  UNL     1      18.044 -17.227  -8.043  1.00  0.00    -0.644 OA
HETATM   42  O9  UNL     1      20.184 -17.418  -7.388  1.00  0.00    -0.644 OA
ENDBRANCH  14  40
BRANCH  19  43
HETATM   43  O11 UNL     1      20.325 -15.491  -4.978  1.00  0.00    -0.285 OA
ATOM     44  H11 UNL     1      20.926 -15.433  -5.712  1.00  0.00     0.245 HD
ENDBRANCH  19  43
BRANCH   1  45
HETATM   45  N1  UNL     1      11.761 -19.727  -7.493  1.00  0.00    -0.234 N 
ATOM     46  H12 UNL     1      11.437 -20.017  -8.415  1.00  0.00     0.174 HD
ATOM     47  H11 UNL     1      11.110 -19.552  -6.728  1.00  0.00     0.174 HD
ENDBRANCH   1  45
TORSDOF 11
ENDMDL
MODEL 3
REMARK VINA RESULT: -7.905353610      1.724      2.307
REMARK  11 active torsions:
REMARK  status: ('A' for Active; 'I' for Inactive)
REMARK    1  A    between atoms: N1_1  and  C1_4 
REMARK    2  A    between atoms: C6_17  and  O3_18 
REMARK    3  A    between atoms: C6_17  and  C13_36 
REMARK    4  A    between atoms: O3_18  and  C7_19 
REMARK    5  A    between atoms: C7_19  and  C8_20 
REMARK    6  A    between atoms: C8_20  and  O4_21 
REMARK    7  A    between atoms: O4_21  and  C9_22 
REMARK    8  A    between atoms: C10_27  and  O5_28 
REMARK    9  A    between atoms: C11_30  and  O6_31 
REMARK   10  A    between atoms: C12_33  and  O7_34 
REMARK   11  A    between atoms: N8_43  and  O11_44 
ROOT
HETATM    1  C1  UNL     1      12.712 -19.654  -7.587  1.00  0.00     0.679 A 
HETATM    2  N2  UNL     1      13.779 -19.634  -8.405  1.00  0.00    -0.154 N 
ATOM      3  H2  UNL     1      13.639 -19.620  -9.416  1.00  0.00     0.187 HD
HETATM    4  C2  UNL     1      15.052 -19.633  -7.899  1.00  0.00     0.290 A 
HETATM    5  O1  UNL     1      16.028 -19.608  -8.671  1.00  0.00    -0.265 OA
HETATM    6  C3  UNL     1      15.233 -19.652  -6.555  1.00  0.00     0.156 A 
HETATM    7  C4  UNL     1      14.119 -19.669  -5.768  1.00  0.00     0.152 A 
HETATM    8  N3  UNL     1      12.852 -19.672  -6.245  1.00  0.00    -0.184 N 
ATOM      9  H3  UNL     1      12.045 -19.687  -5.622  1.00  0.00     0.184 HD
HETATM   10  C5  UNL     1      14.530 -19.650  -4.477  1.00  0.00     0.295 A 
HETATM   11  O2  UNL     1      13.908 -19.655  -3.405  1.00  0.00    -0.264 OA
HETATM   12  N4  UNL     1      15.912 -19.621  -4.545  1.00  0.00    -0.199 N 
HETATM   13  N5  UNL     1      16.353 -19.629  -5.733  1.00  0.00    -0.226 N 
HETATM   14  C6  UNL     1      17.709 -19.629  -5.392  1.00  0.00     0.308 A 
HETATM   15  C14 UNL     1      17.183 -19.502  -3.959  1.00  0.00     0.306 A 
HETATM   16  O10 UNL     1      17.521 -20.553  -3.133  1.00  0.00    -0.345 OA
HETATM   17  C15 UNL     1      18.753 -20.493  -2.563  1.00  0.00     0.194 C 
HETATM   18  C16 UNL     1      19.276 -19.185  -2.122  1.00  0.00     0.185 C 
HETATM   19  N8  UNL     1      18.699 -18.020  -2.719  1.00  0.00    -0.222 N 
HETATM   20  C17 UNL     1      17.426 -18.193  -3.359  1.00  0.00     0.307 C 
HETATM   21  O12 UNL     1      16.597 -17.258  -3.381  1.00  0.00    -0.265 OA
ENDROOT
BRANCH  14  22
HETATM   22  O3  UNL     1      18.550 -20.646  -5.482  1.00  0.00    -0.344 OA
BRANCH  22  23
HETATM   23  C7  UNL     1      18.995 -21.225  -6.565  1.00  0.00     0.198 C 
BRANCH  23  24
HETATM   24  C8  UNL     1      18.304 -22.405  -7.179  1.00  0.00     0.197 C 
BRANCH  24  25
HETATM   25  O4  UNL     1      18.193 -22.317  -8.546  1.00  0.00    -0.361 OA
BRANCH  25  26
HETATM   26  C9  UNL     1      17.068 -22.895  -9.116  1.00  0.00     0.267 C 
HETATM   27  N6  UNL     1      17.061 -24.325  -8.969  1.00  0.00    -0.307 N 
HETATM   28  N7  UNL     1      17.261 -25.092 -10.065  1.00  0.00    -0.307 N 
ATOM     29  H6  UNL     1      16.908 -24.753  -8.056  1.00  0.00     0.183 HD
HETATM   30  C10 UNL     1      16.506 -24.694 -11.232  1.00  0.00     0.264 C 
ATOM     31  H7  UNL     1      17.896 -25.890 -10.069  1.00  0.00     0.182 HD
HETATM   32  C11 UNL     1      17.014 -23.344 -11.616  1.00  0.00     0.201 C 
HETATM   33  C12 UNL     1      16.825 -22.395 -10.494  1.00  0.00     0.201 C 
BRANCH  30  34
HETATM   34  O5  UNL     1      16.710 -25.656 -12.216  1.00  0.00    -0.373 OA
ATOM     35  H5  UNL     1      16.025 -25.555 -12.866  1.00  0.00     0.212 HD
ENDBRANCH  30  34
BRANCH  32  36
HETATM   36  O6  UNL     1      18.334 -23.406 -12.051  1.00  0.00    -0.388 OA
ATOM     37  H6  UNL     1      18.576 -22.622 -12.530  1.00  0.00     0.210 HD
ENDBRANCH  32  36
BRANCH  33  38
HETATM   38  O7  UNL     1      15.553 -21.813 -10.631  1.00  0.00    -0.388 OA
ATOM     39  H7  UNL     1      15.495 -20.970 -10.197  1.00  0.00     0.210 HD
ENDBRANCH  33  38
ENDBRANCH  25  26
ENDBRANCH  24  25
ENDBRANCH  23  24
ENDBRANCH  22  23
ENDBRANCH  14  22
BRANCH  14  40
HETATM   40  C13 UNL     1      18.427 -18.358  -5.820  1.00  0.00     0.239 C 
HETATM   41  O8  UNL     1      19.640 -18.270  -5.536  1.00  0.00    -0.644 OA
HETATM   42  O9  UNL     1      17.834 -17.331  -6.484  1.00  0.00    -0.644 OA
ENDBRANCH  14  40
BRANCH  19  43
HETATM   43  O11 UNL     1      19.310 -16.818  -2.683  1.00  0.00    -0.285 OA
ATOM     44  H11 UNL     1      19.075 -16.115  -3.277  1.00  0.00     0.245 HD
ENDBRANCH  19  43
BRANCH   1  45
HETATM   45  N1  UNL     1      11.516 -19.658  -8.048  1.00  0.00    -0.234 N 
ATOM     46  H12 UNL     1      11.386 -20.010  -8.997  1.00  0.00     0.174 HD
ATOM     47  H11 UNL     1      10.730 -19.323  -7.491  1.00  0.00     0.174 HD
ENDBRANCH   1  45
TORSDOF 11
ENDMDL
MODEL 4
REMARK VINA RESULT: -7.874443597      2.244      3.218
REMARK  11 active torsions:
REMARK  status: ('A' for Active; 'I' for Inactive)
REMARK    1  A    between atoms: N1_1  and  C1_4 
REMARK    2  A    between atoms: C6_17  and  O3_18 
REMARK    3  A    between atoms: C6_17  and  C13_36 
REMARK    4  A    between atoms: O3_18  and  C7_19 
REMARK    5  A    between atoms: C7_19  and  C8_20 
REMARK    6  A    between atoms: C8_20  and  O4_21 
REMARK    7  A    between atoms: O4_21  and  C9_22 
REMARK    8  A    between atoms: C10_27  and  O5_28 
REMARK    9  A    between atoms: C11_30  and  O6_31 
REMARK   10  A    between atoms: C12_33  and  O7_34 
REMARK   11  A    between atoms: N8_43  and  O11_44 
ROOT
HETATM    1  C1  UNL     1      13.033 -19.629  -7.456  1.00  0.00     0.679 A 
HETATM    2  N2  UNL     1      13.897 -19.864  -8.459  1.00  0.00    -0.154 N 
ATOM      3  H2  UNL     1      13.543 -20.134  -9.377  1.00  0.00     0.187 HD
HETATM    4  C2  UNL     1      15.248 -19.746  -8.263  1.00  0.00     0.290 A 
HETATM    5  O1  UNL     1      16.034 -19.961  -9.203  1.00  0.00    -0.265 OA
HETATM    6  C3  UNL     1      15.713 -19.388  -7.040  1.00  0.00     0.156 A 
HETATM    7  C4  UNL     1      14.795 -19.158  -6.057  1.00  0.00     0.152 A 
HETATM    8  N3  UNL     1      13.457 -19.270  -6.227  1.00  0.00    -0.184 N 
ATOM      9  H3  UNL     1      12.804 -19.091  -5.465  1.00  0.00     0.184 HD
HETATM   10  C5  UNL     1      15.471 -18.783  -4.945  1.00  0.00     0.295 A 
HETATM   11  O2  UNL     1      15.095 -18.471  -3.806  1.00  0.00    -0.264 OA
HETATM   12  N4  UNL     1      16.805 -18.803  -5.317  1.00  0.00    -0.199 N 
HETATM   13  N5  UNL     1      16.981 -19.156  -6.521  1.00  0.00    -0.226 N 
HETATM   14  C6  UNL     1      18.377 -19.088  -6.497  1.00  0.00     0.308 A 
HETATM   15  C14 UNL     1      18.165 -18.550  -5.078  1.00  0.00     0.306 A 
HETATM   16  O10 UNL     1      18.716 -19.332  -4.084  1.00  0.00    -0.345 OA
HETATM   17  C15 UNL     1      20.038 -19.138  -3.836  1.00  0.00     0.194 C 
HETATM   18  C16 UNL     1      20.588 -17.770  -3.904  1.00  0.00     0.185 C 
HETATM   19  N8  UNL     1      19.849 -16.810  -4.664  1.00  0.00    -0.222 N 
HETATM   20  C17 UNL     1      18.476 -17.130  -4.937  1.00  0.00     0.307 C 
HETATM   21  O12 UNL     1      17.624 -16.223  -5.041  1.00  0.00    -0.265 OA
ENDROOT
BRANCH  14  22
HETATM   22  O3  UNL     1      19.222 -20.107  -6.478  1.00  0.00    -0.344 OA
BRANCH  22  23
HETATM   23  C7  UNL     1      19.622 -20.835  -7.486  1.00  0.00     0.198 C 
BRANCH  23  24
HETATM   24  C8  UNL     1      18.795 -21.959  -8.035  1.00  0.00     0.197 C 
BRANCH  24  25
HETATM   25  O4  UNL     1      18.792 -22.008  -9.408  1.00  0.00    -0.361 OA
BRANCH  25  26
HETATM   26  C9  UNL     1      18.455 -23.225  -9.985  1.00  0.00     0.267 C 
HETATM   27  N6  UNL     1      18.797 -23.276 -11.380  1.00  0.00    -0.307 N 
HETATM   28  N7  UNL     1      17.800 -23.260 -12.294  1.00  0.00    -0.307 N 
ATOM     29  H6  UNL     1      19.772 -23.324 -11.675  1.00  0.00     0.183 HD
HETATM   30  C10 UNL     1      16.695 -24.146 -12.005  1.00  0.00     0.264 C 
ATOM     31  H7  UNL     1      17.826 -22.667 -13.124  1.00  0.00     0.182 HD
HETATM   32  C11 UNL     1      16.068 -23.635 -10.750  1.00  0.00     0.201 C 
HETATM   33  C12 UNL     1      17.064 -23.628  -9.654  1.00  0.00     0.201 C 
BRANCH  30  34
HETATM   34  O5  UNL     1      15.835 -24.119 -13.098  1.00  0.00    -0.373 OA
ATOM     35  H5  UNL     1      15.640 -25.018 -13.335  1.00  0.00     0.212 HD
ENDBRANCH  30  34
BRANCH  32  36
HETATM   36  O6  UNL     1      15.482 -22.389 -10.951  1.00  0.00    -0.388 OA
ATOM     37  H6  UNL     1      14.549 -22.470 -11.117  1.00  0.00     0.210 HD
ENDBRANCH  32  36
BRANCH  33  38
HETATM   38  O7  UNL     1      17.011 -24.880  -9.016  1.00  0.00    -0.388 OA
ATOM     39  H7  UNL     1      16.850 -24.802  -8.084  1.00  0.00     0.210 HD
ENDBRANCH  33  38
ENDBRANCH  25  26
ENDBRANCH  24  25
ENDBRANCH  23  24
ENDBRANCH  22  23
ENDBRANCH  14  22
BRANCH  14  40
HETATM   40  C13 UNL     1      18.934 -18.005  -7.409  1.00  0.00     0.239 C 
HETATM   41  O8  UNL     1      18.109 -17.357  -8.086  1.00  0.00    -0.644 OA
HETATM   42  O9  UNL     1      20.255 -17.708  -7.526  1.00  0.00    -0.644 OA
ENDBRANCH  14  40
BRANCH  19  43
HETATM   43  O11 UNL     1      20.402 -15.660  -5.101  1.00  0.00    -0.285 OA
ATOM     44  H11 UNL     1      21.310 -15.609  -5.376  1.00  0.00     0.245 HD
ENDBRANCH  19  43
BRANCH   1  45
HETATM   45  N1  UNL     1      11.766 -19.738  -7.627  1.00  0.00    -0.234 N 
ATOM     46  H12 UNL     1      11.391 -19.432  -8.525  1.00  0.00     0.174 HD
ATOM     47  H11 UNL     1      11.162 -20.115  -6.897  1.00  0.00     0.174 HD
ENDBRANCH   1  45
TORSDOF 11
ENDMDL
MODEL 5
REMARK VINA RESULT: -7.794789014      2.292      3.065
REMARK  11 active torsions:
REMARK  status: ('A' for Active; 'I' for Inactive)
REMARK    1  A    between atoms: N1_1  and  C1_4 
REMARK    2  A    between atoms: C6_17  and  O3_18 
REMARK    3  A    between atoms: C6_17  and  C13_36 
REMARK    4  A    between atoms: O3_18  and  C7_19 
REMARK    5  A    between atoms: C7_19  and  C8_20 
REMARK    6  A    between atoms: C8_20  and  O4_21 
REMARK    7  A    between atoms: O4_21  and  C9_22 
REMARK    8  A    between atoms: C10_27  and  O5_28 
REMARK    9  A    between atoms: C11_30  and  O6_31 
REMARK   10  A    between atoms: C12_33  and  O7_34 
REMARK   11  A    between atoms: N8_43  and  O11_44 
ROOT
HETATM    1  C1  UNL     1      12.912 -19.559  -7.368  1.00  0.00     0.679 A 
HETATM    2  N2  UNL     1      13.737 -19.753  -8.411  1.00  0.00    -0.154 N 
ATOM      3  H2  UNL     1      13.349 -19.987  -9.325  1.00  0.00     0.187 HD
HETATM    4  C2  UNL     1      15.095 -19.639  -8.262  1.00  0.00     0.290 A 
HETATM    5  O1  UNL     1      15.845 -19.816  -9.239  1.00  0.00    -0.265 OA
HETATM    6  C3  UNL     1      15.606 -19.329  -7.045  1.00  0.00     0.156 A 
HETATM    7  C4  UNL     1      14.726 -19.140  -6.019  1.00  0.00     0.152 A 
HETATM    8  N3  UNL     1      13.382 -19.247  -6.142  1.00  0.00    -0.184 N 
ATOM      9  H3  UNL     1      12.758 -19.100  -5.350  1.00  0.00     0.184 HD
HETATM   10  C5  UNL     1      15.444 -18.807  -4.920  1.00  0.00     0.295 A 
HETATM   11  O2  UNL     1      15.111 -18.542  -3.756  1.00  0.00    -0.264 OA
HETATM   12  N4  UNL     1      16.762 -18.810  -5.343  1.00  0.00    -0.199 N 
HETATM   13  N5  UNL     1      16.893 -19.115  -6.566  1.00  0.00    -0.226 N 
HETATM   14  C6  UNL     1      18.289 -19.045  -6.592  1.00  0.00     0.308 A 
HETATM   15  C14 UNL     1      18.131 -18.563  -5.146  1.00  0.00     0.306 A 
HETATM   16  O10 UNL     1      18.720 -19.382  -4.206  1.00  0.00    -0.345 OA
HETATM   17  C15 UNL     1      20.050 -19.197  -4.000  1.00  0.00     0.194 C 
HETATM   18  C16 UNL     1      20.596 -17.826  -4.036  1.00  0.00     0.185 C 
HETATM   19  N8  UNL     1      19.828 -16.838  -4.729  1.00  0.00    -0.222 N 
HETATM   20  C17 UNL     1      18.446 -17.150  -4.962  1.00  0.00     0.307 C 
HETATM   21  O12 UNL     1      17.589 -16.241  -4.997  1.00  0.00    -0.265 OA
ENDROOT
BRANCH  14  22
HETATM   22  O3  UNL     1      19.134 -20.062  -6.646  1.00  0.00    -0.344 OA
BRANCH  22  23
HETATM   23  C7  UNL     1      19.356 -20.867  -7.650  1.00  0.00     0.198 C 
BRANCH  23  24
HETATM   24  C8  UNL     1      18.850 -22.278  -7.667  1.00  0.00     0.197 C 
BRANCH  24  25
HETATM   25  O4  UNL     1      17.634 -22.410  -8.293  1.00  0.00    -0.361 OA
BRANCH  25  26
HETATM   26  C9  UNL     1      17.656 -22.515  -9.676  1.00  0.00     0.267 C 
HETATM   27  N6  UNL     1      16.338 -22.676 -10.228  1.00  0.00    -0.307 N 
HETATM   28  N7  UNL     1      15.996 -23.875 -10.751  1.00  0.00    -0.307 N 
ATOM     29  H6  UNL     1      15.675 -21.902 -10.224  1.00  0.00     0.183 HD
HETATM   30  C10 UNL     1      16.990 -24.466 -11.619  1.00  0.00     0.264 C 
ATOM     31  H7  UNL     1      15.105 -24.329 -10.550  1.00  0.00     0.182 HD
HETATM   32  C11 UNL     1      18.176 -24.753 -10.760  1.00  0.00     0.201 C 
HETATM   33  C12 UNL     1      18.667 -23.499 -10.142  1.00  0.00     0.201 C 
BRANCH  30  34
HETATM   34  O5  UNL     1      16.433 -25.610 -12.183  1.00  0.00    -0.373 OA
ATOM     35  H5  UNL     1      16.770 -25.690 -13.067  1.00  0.00     0.212 HD
ENDBRANCH  30  34
BRANCH  32  36
HETATM   36  O6  UNL     1      17.892 -25.739  -9.821  1.00  0.00    -0.388 OA
ATOM     37  H6  UNL     1      18.607 -26.361  -9.748  1.00  0.00     0.210 HD
ENDBRANCH  32  36
BRANCH  33  38
HETATM   38  O7  UNL     1      19.604 -22.924 -11.019  1.00  0.00    -0.388 OA
ATOM     39  H7  UNL     1      20.464 -22.845 -10.624  1.00  0.00     0.210 HD
ENDBRANCH  33  38
ENDBRANCH  25  26
ENDBRANCH  24  25
ENDBRANCH  23  24
ENDBRANCH  22  23
ENDBRANCH  14  22
BRANCH  14  40
HETATM   40  C13 UNL     1      18.809 -17.926  -7.482  1.00  0.00     0.239 C 
HETATM   41  O8  UNL     1      17.961 -17.276  -8.128  1.00  0.00    -0.644 OA
HETATM   42  O9  UNL     1      20.122 -17.599  -7.610  1.00  0.00    -0.644 OA
ENDBRANCH  14  40
BRANCH  19  43
HETATM   43  O11 UNL     1      20.363 -15.670  -5.140  1.00  0.00    -0.285 OA
ATOM     44  H11 UNL     1      20.998 -15.194  -4.619  1.00  0.00     0.245 HD
ENDBRANCH  19  43
BRANCH   1  45
HETATM   45  N1  UNL     1      11.639 -19.664  -7.495  1.00  0.00    -0.234 N 
ATOM     46  H12 UNL     1      11.295 -20.371  -8.145  1.00  0.00     0.174 HD
ATOM     47  H11 UNL     1      11.002 -19.067  -6.969  1.00  0.00     0.174 HD
ENDBRANCH   1  45
TORSDOF 11
ENDMDL
