MODEL 1
REMARK VINA RESULT: -7.512497102      0.000      0.000
REMARK  17 active torsions:
REMARK  status: ('A' for Active; 'I' for Inactive)
REMARK    1  A    between atoms: N1_1  and  C1_5 
REMARK    2  A    between atoms: C1_5  and  N2_6 
REMARK    3  A    between atoms: C1_5  and  C2_10 
REMARK    4  A    between atoms: C4_16  and  C5_17 
REMARK    5  A    between atoms: C5_17  and  O4_19 
REMARK    6  A    between atoms: O4_19  and  C6_20 
REMARK    7  A    between atoms: C6_20  and  C7_22 
REMARK    8  A    between atoms: C7_22  and  N4_23 
REMARK    9  A    between atoms: C7_22  and  C15_43 
REMARK   10  A    between atoms: N4_23  and  C8_25 
REMARK   11  A    between atoms: C9_27  and  C10_28 
REMARK   12  A    between atoms: C10_28  and  O7_29 
REMARK   13  A    between atoms: C10_28  and  C11_31 
REMARK   14  A    between atoms: C12_34  and  O10_35 
REMARK   15  A    between atoms: C13_37  and  O11_38 
REMARK   16  A    between atoms: C14_40  and  O12_41 
REMARK   17  A    between atoms: C16_46  and  O15_47 
ROOT
HETATM    1  C6  UNL     1      15.333 -20.118  -9.446  1.00  0.00     0.299 C 
HETATM    2  O5  UNL     1      14.795 -19.999 -10.567  1.00  0.00    -0.262 OA
ENDROOT
BRANCH   1   3
HETATM    3  O4  UNL     1      15.005 -19.157  -8.492  1.00  0.00    -0.237 OA
BRANCH   3   4
HETATM    4  C5  UNL     1      13.933 -19.264  -7.611  1.00  0.00     0.328 C 
HETATM    5  O3  UNL     1      12.801 -19.342  -8.136  1.00  0.00    -0.256 OA
BRANCH   4   6
HETATM    6  C4  UNL     1      14.158 -19.282  -6.177  1.00  0.00     0.191 A 
HETATM    7  O2  UNL     1      15.095 -18.463  -5.692  1.00  0.00    -0.252 OA
HETATM    8  C3  UNL     1      15.391 -18.388  -4.419  1.00  0.00     0.370 A 
HETATM    9  N3  UNL     1      14.729 -19.167  -3.538  1.00  0.00    -0.300 N 
HETATM   10  O1  UNL     1      16.296 -17.587  -4.002  1.00  0.00    -0.238 OA
HETATM   11  C2  UNL     1      13.774 -20.023  -3.916  1.00  0.00     0.108 A 
ATOM     12  H3  UNL     1      14.966 -19.102  -2.548  1.00  0.00     0.171 HD
HETATM   13  C16 UNL     1      13.481 -20.079  -5.287  1.00  0.00     0.133 A 
BRANCH  11  14
HETATM   14  C1  UNL     1      13.068 -20.852  -2.964  1.00  0.00     0.430 C 
BRANCH  14  15
HETATM   15  N1  UNL     1      13.780 -20.798  -1.674  1.00  0.00    -0.045 N 
ATOM     16  H13 UNL     1      13.410 -21.439  -0.973  1.00  0.00     0.277 HD
ATOM     17  H12 UNL     1      14.721 -21.188  -1.708  1.00  0.00     0.277 HD
ATOM     18  H11 UNL     1      13.751 -19.819  -1.389  1.00  0.00     0.277 HD
ENDBRANCH  14  15
BRANCH  14  19
HETATM   19  N2  UNL     1      11.724 -20.434  -2.677  1.00  0.00    -0.045 N 
ATOM     20  H23 UNL     1      11.657 -19.479  -2.325  1.00  0.00     0.277 HD
ATOM     21  H22 UNL     1      11.151 -20.295  -3.509  1.00  0.00     0.277 HD
ATOM     22  H21 UNL     1      11.353 -21.134  -2.034  1.00  0.00     0.277 HD
ENDBRANCH  14  19
ENDBRANCH  11  14
BRANCH  13  23
HETATM   23  O15 UNL     1      12.516 -20.946  -5.649  1.00  0.00    -0.356 OA
ATOM     24  H15 UNL     1      12.639 -21.380  -6.485  1.00  0.00     0.218 HD
ENDBRANCH  13  23
ENDBRANCH   4   6
ENDBRANCH   3   4
ENDBRANCH   1   3
BRANCH   1  25
HETATM   25  C7  UNL     1      16.263 -21.203  -9.124  1.00  0.00     0.282 C 
BRANCH  25  26
HETATM   26  N4  UNL     1      17.084 -21.774 -10.087  1.00  0.00    -0.373 N 
ATOM     27  H4  UNL     1      17.962 -21.319 -10.340  1.00  0.00     0.157 HD
BRANCH  26  28
HETATM   28  C8  UNL     1      16.713 -22.977 -10.717  1.00  0.00     0.249 C 
HETATM   29  O6  UNL     1      16.662 -24.031  -9.779  1.00  0.00    -0.353 OA
HETATM   30  C9  UNL     1      17.859 -24.674  -9.588  1.00  0.00     0.194 C 
HETATM   31  C12 UNL     1      18.200 -25.534 -10.786  1.00  0.00     0.181 C 
HETATM   32  C13 UNL     1      17.451 -24.967 -11.978  1.00  0.00     0.182 C 
HETATM   33  C14 UNL     1      17.536 -23.402 -11.876  1.00  0.00     0.197 C 
BRANCH  30  34
HETATM   34  C10 UNL     1      17.761 -25.491  -8.300  1.00  0.00     0.250 C 
BRANCH  34  35
HETATM   35  O7  UNL     1      16.376 -25.594  -8.041  1.00  0.00    -0.382 OA
ATOM     36  H7  UNL     1      16.110 -26.407  -8.455  1.00  0.00     0.210 HD
ENDBRANCH  34  35
BRANCH  34  37
HETATM   37  C11 UNL     1      18.454 -24.839  -7.192  1.00  0.00     0.205 C 
HETATM   38  O8  UNL     1      18.998 -23.701  -7.391  1.00  0.00    -0.646 OA
HETATM   39  O9  UNL     1      18.521 -25.439  -5.950  1.00  0.00    -0.646 OA
ENDBRANCH  34  37
ENDBRANCH  30  34
BRANCH  31  40
HETATM   40  O10 UNL     1      19.582 -25.442 -11.064  1.00  0.00    -0.390 OA
ATOM     41  H10 UNL     1      19.827 -26.101 -11.703  1.00  0.00     0.210 HD
ENDBRANCH  31  40
BRANCH  32  42
HETATM   42  O11 UNL     1      16.105 -25.288 -11.986  1.00  0.00    -0.390 OA
ATOM     43  H11 UNL     1      15.538 -24.545 -11.819  1.00  0.00     0.210 HD
ENDBRANCH  32  42
BRANCH  33  44
HETATM   44  O12 UNL     1      17.078 -22.988 -13.120  1.00  0.00    -0.389 OA
ATOM     45  H12 UNL     1      17.742 -22.906 -13.794  1.00  0.00     0.210 HD
ENDBRANCH  33  44
ENDBRANCH  26  28
ENDBRANCH  25  26
BRANCH  25  46
HETATM   46  C15 UNL     1      17.062 -20.819  -7.874  1.00  0.00     0.206 C 
HETATM   47  O13 UNL     1      16.764 -21.298  -6.755  1.00  0.00    -0.646 OA
HETATM   48  O14 UNL     1      18.126 -19.936  -7.956  1.00  0.00    -0.646 OA
ENDBRANCH  25  46
ENDBRANCH   1  25
TORSDOF 17
ENDMDL
MODEL 2
REMARK VINA RESULT: -7.467421186      2.355      8.322
REMARK  17 active torsions:
REMARK  status: ('A' for Active; 'I' for Inactive)
REMARK    1  A    between atoms: N1_1  and  C1_5 
REMARK    2  A    between atoms: C1_5  and  N2_6 
REMARK    3  A    between atoms: C1_5  and  C2_10 
REMARK    4  A    between atoms: C4_16  and  C5_17 
REMARK    5  A    between atoms: C5_17  and  O4_19 
REMARK    6  A    between atoms: O4_19  and  C6_20 
REMARK    7  A    between atoms: C6_20  and  C7_22 
REMARK    8  A    between atoms: C7_22  and  N4_23 
REMARK    9  A    between atoms: C7_22  and  C15_43 
REMARK   10  A    between atoms: N4_23  and  C8_25 
REMARK   11  A    between atoms: C9_27  and  C10_28 
REMARK   12  A    between atoms: C10_28  and  O7_29 
REMARK   13  A    between atoms: C10_28  and  C11_31 
REMARK   14  A    between atoms: C12_34  and  O10_35 
REMARK   15  A    between atoms: C13_37  and  O11_38 
REMARK   16  A    between atoms: C14_40  and  O12_41 
REMARK   17  A    between atoms: C16_46  and  O15_47 
ROOT
HETATM    1  C6  UNL     1      15.543 -19.887  -7.039  1.00  0.00     0.299 C 
HETATM    2  O5  UNL     1      16.346 -18.949  -7.227  1.00  0.00    -0.262 OA
ENDROOT
BRANCH   1   3
HETATM    3  O4  UNL     1      15.710 -21.019  -7.832  1.00  0.00    -0.237 OA
BRANCH   3   4
HETATM    4  C5  UNL     1      15.916 -20.986  -9.208  1.00  0.00     0.328 C 
HETATM    5  O3  UNL     1      15.233 -20.153  -9.842  1.00  0.00    -0.256 OA
BRANCH   4   6
HETATM    6  C4  UNL     1      16.874 -21.882  -9.830  1.00  0.00     0.191 A 
HETATM    7  O2  UNL     1      18.145 -21.800  -9.425  1.00  0.00    -0.252 OA
HETATM    8  C3  UNL     1      19.101 -22.551  -9.909  1.00  0.00     0.370 A 
HETATM    9  N3  UNL     1      18.810 -23.459 -10.865  1.00  0.00    -0.300 N 
HETATM   10  O1  UNL     1      20.303 -22.437  -9.489  1.00  0.00    -0.238 OA
HETATM   11  C2  UNL     1      17.572 -23.623 -11.343  1.00  0.00     0.108 A 
ATOM     12  H3  UNL     1      19.561 -24.040 -11.237  1.00  0.00     0.171 HD
HETATM   13  C16 UNL     1      16.571 -22.802 -10.804  1.00  0.00     0.133 A 
BRANCH  11  14
HETATM   14  C1  UNL     1      17.270 -24.601 -12.366  1.00  0.00     0.430 C 
BRANCH  14  15
HETATM   15  N1  UNL     1      16.608 -25.755 -11.733  1.00  0.00    -0.045 N 
ATOM     16  H13 UNL     1      15.957 -25.499 -10.991  1.00  0.00     0.277 HD
ATOM     17  H12 UNL     1      15.927 -26.219 -12.334  1.00  0.00     0.277 HD
ATOM     18  H11 UNL     1      17.364 -26.365 -11.423  1.00  0.00     0.277 HD
ENDBRANCH  14  15
BRANCH  14  19
HETATM   19  N2  UNL     1      16.362 -24.150 -13.385  1.00  0.00    -0.045 N 
ATOM     20  H23 UNL     1      16.411 -24.692 -14.247  1.00  0.00     0.277 HD
ATOM     21  H22 UNL     1      15.383 -24.346 -13.177  1.00  0.00     0.277 HD
ATOM     22  H21 UNL     1      16.566 -23.159 -13.511  1.00  0.00     0.277 HD
ENDBRANCH  14  19
ENDBRANCH  11  14
BRANCH  13  23
HETATM   23  O15 UNL     1      15.331 -22.982 -11.296  1.00  0.00    -0.356 OA
ATOM     24  H15 UNL     1      14.776 -22.211 -11.319  1.00  0.00     0.218 HD
ENDBRANCH  13  23
ENDBRANCH   4   6
ENDBRANCH   3   4
ENDBRANCH   1   3
BRANCH   1  25
HETATM   25  C7  UNL     1      14.472 -19.825  -6.041  1.00  0.00     0.282 C 
BRANCH  25  26
HETATM   26  N4  UNL     1      14.506 -18.924  -4.984  1.00  0.00    -0.373 N 
ATOM     27  H4  UNL     1      14.783 -17.957  -5.152  1.00  0.00     0.157 HD
BRANCH  26  28
HETATM   28  C8  UNL     1      14.162 -19.340  -3.683  1.00  0.00     0.249 C 
HETATM   29  O6  UNL     1      14.889 -18.606  -2.721  1.00  0.00    -0.353 OA
HETATM   30  C9  UNL     1      16.112 -19.143  -2.409  1.00  0.00     0.194 C 
HETATM   31  C12 UNL     1      15.948 -20.395  -1.574  1.00  0.00     0.181 C 
HETATM   32  C13 UNL     1      14.560 -20.943  -1.849  1.00  0.00     0.182 C 
HETATM   33  C14 UNL     1      14.299 -20.788  -3.390  1.00  0.00     0.197 C 
BRANCH  30  34
HETATM   34  C10 UNL     1      16.933 -18.073  -1.690  1.00  0.00     0.250 C 
BRANCH  34  35
HETATM   35  O7  UNL     1      16.073 -17.567  -0.690  1.00  0.00    -0.382 OA
ATOM     36  H7  UNL     1      16.414 -16.703  -0.489  1.00  0.00     0.210 HD
ENDBRANCH  34  35
BRANCH  34  37
HETATM   37  C11 UNL     1      17.357 -17.013  -2.602  1.00  0.00     0.205 C 
HETATM   38  O8  UNL     1      17.935 -15.982  -2.120  1.00  0.00    -0.646 OA
HETATM   39  O9  UNL     1      17.137 -17.121  -3.960  1.00  0.00    -0.646 OA
ENDBRANCH  34  37
ENDBRANCH  30  34
BRANCH  31  40
HETATM   40  O10 UNL     1      16.884 -21.370  -1.982  1.00  0.00    -0.390 OA
ATOM     41  H10 UNL     1      17.680 -20.948  -2.283  1.00  0.00     0.210 HD
ENDBRANCH  31  40
BRANCH  32  42
HETATM   42  O11 UNL     1      13.554 -20.244  -1.207  1.00  0.00    -0.390 OA
ATOM     43  H11 UNL     1      13.117 -20.747  -0.530  1.00  0.00     0.210 HD
ENDBRANCH  32  42
BRANCH  33  44
HETATM   44  O12 UNL     1      13.155 -21.550  -3.587  1.00  0.00    -0.389 OA
ATOM     45  H12 UNL     1      13.203 -22.447  -3.281  1.00  0.00     0.210 HD
ENDBRANCH  33  44
ENDBRANCH  26  28
ENDBRANCH  25  26
BRANCH  25  46
HETATM   46  C15 UNL     1      13.122 -19.779  -6.763  1.00  0.00     0.206 C 
HETATM   47  O13 UNL     1      12.133 -20.399  -6.304  1.00  0.00    -0.646 OA
HETATM   48  O14 UNL     1      12.966 -19.055  -7.932  1.00  0.00    -0.646 OA
ENDBRANCH  25  46
ENDBRANCH   1  25
TORSDOF 17
ENDMDL
MODEL 3
REMARK VINA RESULT: -7.380679258      4.309      8.187
REMARK  17 active torsions:
REMARK  status: ('A' for Active; 'I' for Inactive)
REMARK    1  A    between atoms: N1_1  and  C1_5 
REMARK    2  A    between atoms: C1_5  and  N2_6 
REMARK    3  A    between atoms: C1_5  and  C2_10 
REMARK    4  A    between atoms: C4_16  and  C5_17 
REMARK    5  A    between atoms: C5_17  and  O4_19 
REMARK    6  A    between atoms: O4_19  and  C6_20 
REMARK    7  A    between atoms: C6_20  and  C7_22 
REMARK    8  A    between atoms: C7_22  and  N4_23 
REMARK    9  A    between atoms: C7_22  and  C15_43 
REMARK   10  A    between atoms: N4_23  and  C8_25 
REMARK   11  A    between atoms: C9_27  and  C10_28 
REMARK   12  A    between atoms: C10_28  and  O7_29 
REMARK   13  A    between atoms: C10_28  and  C11_31 
REMARK   14  A    between atoms: C12_34  and  O10_35 
REMARK   15  A    between atoms: C13_37  and  O11_38 
REMARK   16  A    between atoms: C14_40  and  O12_41 
REMARK   17  A    between atoms: C16_46  and  O15_47 
ROOT
HETATM    1  C6  UNL     1      15.529 -19.714  -2.238  1.00  0.00     0.299 C 
HETATM    2  O5  UNL     1      16.287 -20.593  -2.701  1.00  0.00    -0.262 OA
ENDROOT
BRANCH   1   3
HETATM    3  O4  UNL     1      14.339 -19.491  -2.926  1.00  0.00    -0.237 OA
BRANCH   3   4
HETATM    4  C5  UNL     1      13.706 -20.442  -3.721  1.00  0.00     0.328 C 
HETATM    5  O3  UNL     1      13.195 -21.408  -3.115  1.00  0.00    -0.256 OA
BRANCH   4   6
HETATM    6  C4  UNL     1      13.663 -20.285  -5.164  1.00  0.00     0.191 A 
HETATM    7  O2  UNL     1      12.469 -20.070  -5.723  1.00  0.00    -0.252 OA
HETATM    8  C3  UNL     1      12.299 -19.913  -7.011  1.00  0.00     0.370 A 
HETATM    9  N3  UNL     1      13.370 -19.967  -7.832  1.00  0.00    -0.300 N 
HETATM   10  O1  UNL     1      11.136 -19.709  -7.500  1.00  0.00    -0.238 OA
HETATM   11  C2  UNL     1      14.610 -20.178  -7.377  1.00  0.00     0.108 A 
ATOM     12  H3  UNL     1      13.229 -19.843  -8.834  1.00  0.00     0.171 HD
HETATM   13  C16 UNL     1      14.757 -20.343  -5.992  1.00  0.00     0.133 A 
BRANCH  11  14
HETATM   14  C1  UNL     1      15.752 -20.232  -8.265  1.00  0.00     0.430 C 
BRANCH  14  15
HETATM   15  N1  UNL     1      15.265 -20.276  -9.655  1.00  0.00    -0.045 N 
ATOM     16  H13 UNL     1      15.779 -20.927 -10.249  1.00  0.00     0.277 HD
ATOM     17  H12 UNL     1      14.352 -20.717  -9.757  1.00  0.00     0.277 HD
ATOM     18  H11 UNL     1      15.294 -19.311  -9.984  1.00  0.00     0.277 HD
ENDBRANCH  14  15
BRANCH  14  19
HETATM   19  N2  UNL     1      16.622 -19.090  -8.200  1.00  0.00    -0.045 N 
ATOM     20  H23 UNL     1      17.608 -19.318  -8.330  1.00  0.00     0.277 HD
ATOM     21  H22 UNL     1      16.538 -18.464  -9.000  1.00  0.00     0.277 HD
ATOM     22  H21 UNL     1      16.419 -18.644  -7.305  1.00  0.00     0.277 HD
ENDBRANCH  14  19
ENDBRANCH  11  14
BRANCH  13  23
HETATM   23  O15 UNL     1      16.012 -20.553  -5.553  1.00  0.00    -0.356 OA
ATOM     24  H15 UNL     1      16.096 -21.087  -4.771  1.00  0.00     0.218 HD
ENDBRANCH  13  23
ENDBRANCH   4   6
ENDBRANCH   3   4
ENDBRANCH   1   3
BRANCH   1  25
HETATM   25  C7  UNL     1      15.851 -18.942  -1.035  1.00  0.00     0.282 C 
BRANCH  25  26
HETATM   26  N4  UNL     1      16.330 -17.640  -1.106  1.00  0.00    -0.373 N 
ATOM     27  H4  UNL     1      15.712 -16.860  -0.883  1.00  0.00     0.157 HD
BRANCH  26  28
HETATM   28  C8  UNL     1      17.664 -17.392  -1.484  1.00  0.00     0.249 C 
HETATM   29  O6  UNL     1      17.709 -16.729  -2.729  1.00  0.00    -0.353 OA
HETATM   30  C9  UNL     1      17.714 -17.568  -3.815  1.00  0.00     0.194 C 
HETATM   31  C12 UNL     1      19.052 -18.263  -3.947  1.00  0.00     0.181 C 
HETATM   32  C13 UNL     1      19.701 -18.259  -2.575  1.00  0.00     0.182 C 
HETATM   33  C14 UNL     1      18.571 -18.566  -1.529  1.00  0.00     0.197 C 
BRANCH  30  34
HETATM   34  C10 UNL     1      17.365 -16.745  -5.055  1.00  0.00     0.250 C 
BRANCH  34  35
HETATM   35  O7  UNL     1      16.291 -17.436  -5.659  1.00  0.00    -0.382 OA
ATOM     36  H7  UNL     1      15.965 -16.844  -6.326  1.00  0.00     0.210 HD
ENDBRANCH  34  35
BRANCH  34  37
HETATM   37  C11 UNL     1      18.500 -16.639  -5.970  1.00  0.00     0.205 C 
HETATM   38  O8  UNL     1      19.252 -15.611  -5.901  1.00  0.00    -0.646 OA
HETATM   39  O9  UNL     1      18.756 -17.633  -6.894  1.00  0.00    -0.646 OA
ENDBRANCH  34  37
ENDBRANCH  30  34
BRANCH  31  40
HETATM   40  O10 UNL     1      18.859 -19.609  -4.328  1.00  0.00    -0.390 OA
ATOM     41  H10 UNL     1      18.429 -20.084  -3.626  1.00  0.00     0.210 HD
ENDBRANCH  31  40
BRANCH  32  42
HETATM   42  O11 UNL     1      20.241 -17.035  -2.224  1.00  0.00    -0.390 OA
ATOM     43  H11 UNL     1      20.842 -17.083  -1.490  1.00  0.00     0.210 HD
ENDBRANCH  32  42
BRANCH  33  44
HETATM   44  O12 UNL     1      19.289 -18.812  -0.366  1.00  0.00    -0.389 OA
ATOM     45  H12 UNL     1      19.707 -18.055   0.026  1.00  0.00     0.210 HD
ENDBRANCH  33  44
ENDBRANCH  26  28
ENDBRANCH  25  26
BRANCH  25  46
HETATM   46  C15 UNL     1      14.684 -19.048  -0.049  1.00  0.00     0.206 C 
HETATM   47  O13 UNL     1      13.955 -18.055   0.185  1.00  0.00    -0.646 OA
HETATM   48  O14 UNL     1      14.412 -20.239   0.604  1.00  0.00    -0.646 OA
ENDBRANCH  25  46
ENDBRANCH   1  25
TORSDOF 17
ENDMDL
MODEL 4
REMARK VINA RESULT: -7.349251576      3.592      6.527
REMARK  17 active torsions:
REMARK  status: ('A' for Active; 'I' for Inactive)
REMARK    1  A    between atoms: N1_1  and  C1_5 
REMARK    2  A    between atoms: C1_5  and  N2_6 
REMARK    3  A    between atoms: C1_5  and  C2_10 
REMARK    4  A    between atoms: C4_16  and  C5_17 
REMARK    5  A    between atoms: C5_17  and  O4_19 
REMARK    6  A    between atoms: O4_19  and  C6_20 
REMARK    7  A    between atoms: C6_20  and  C7_22 
REMARK    8  A    between atoms: C7_22  and  N4_23 
REMARK    9  A    between atoms: C7_22  and  C15_43 
REMARK   10  A    between atoms: N4_23  and  C8_25 
REMARK   11  A    between atoms: C9_27  and  C10_28 
REMARK   12  A    between atoms: C10_28  and  O7_29 
REMARK   13  A    between atoms: C10_28  and  C11_31 
REMARK   14  A    between atoms: C12_34  and  O10_35 
REMARK   15  A    between atoms: C13_37  and  O11_38 
REMARK   16  A    between atoms: C14_40  and  O12_41 
REMARK   17  A    between atoms: C16_46  and  O15_47 
ROOT
HETATM    1  C6  UNL     1      15.939 -18.959  -3.277  1.00  0.00     0.299 C 
HETATM    2  O5  UNL     1      15.164 -18.066  -3.679  1.00  0.00    -0.262 OA
ENDROOT
BRANCH   1   3
HETATM    3  O4  UNL     1      15.449 -20.263  -3.292  1.00  0.00    -0.237 OA
BRANCH   3   4
HETATM    4  C5  UNL     1      14.248 -20.640  -3.884  1.00  0.00     0.328 C 
HETATM    5  O3  UNL     1      13.410 -21.175  -3.128  1.00  0.00    -0.256 OA
BRANCH   4   6
HETATM    6  C4  UNL     1      14.020 -20.406  -5.299  1.00  0.00     0.191 A 
HETATM    7  O2  UNL     1      12.786 -20.058  -5.674  1.00  0.00    -0.252 OA
HETATM    8  C3  UNL     1      12.454 -19.822  -6.917  1.00  0.00     0.370 A 
HETATM    9  N3  UNL     1      13.391 -19.929  -7.884  1.00  0.00    -0.300 N 
HETATM   10  O1  UNL     1      11.259 -19.491  -7.227  1.00  0.00    -0.238 OA
HETATM   11  C2  UNL     1      14.656 -20.271  -7.620  1.00  0.00     0.108 A 
ATOM     12  H3  UNL     1      13.124 -19.742  -8.851  1.00  0.00     0.171 HD
HETATM   13  C16 UNL     1      14.978 -20.518  -6.277  1.00  0.00     0.133 A 
BRANCH  11  14
HETATM   14  C1  UNL     1      15.653 -20.381  -8.662  1.00  0.00     0.430 C 
BRANCH  14  15
HETATM   15  N1  UNL     1      16.705 -19.378  -8.414  1.00  0.00    -0.045 N 
ATOM     16  H13 UNL     1      16.548 -18.817  -7.578  1.00  0.00     0.277 HD
ATOM     17  H12 UNL     1      17.595 -19.781  -8.122  1.00  0.00     0.277 HD
ATOM     18  H11 UNL     1      16.765 -18.830  -9.272  1.00  0.00     0.277 HD
ENDBRANCH  14  15
BRANCH  14  19
HETATM   19  N2  UNL     1      16.335 -21.645  -8.718  1.00  0.00    -0.045 N 
ATOM     20  H23 UNL     1      16.977 -21.730  -9.505  1.00  0.00     0.277 HD
ATOM     21  H22 UNL     1      17.030 -21.769  -7.982  1.00  0.00     0.277 HD
ATOM     22  H21 UNL     1      15.598 -22.351  -8.711  1.00  0.00     0.277 HD
ENDBRANCH  14  19
ENDBRANCH  11  14
BRANCH  13  23
HETATM   23  O15 UNL     1      16.256 -20.861  -6.030  1.00  0.00    -0.356 OA
ATOM     24  H15 UNL     1      16.506 -20.904  -5.114  1.00  0.00     0.218 HD
ENDBRANCH  13  23
ENDBRANCH   4   6
ENDBRANCH   3   4
ENDBRANCH   1   3
BRANCH   1  25
HETATM   25  C7  UNL     1      17.298 -18.677  -2.809  1.00  0.00     0.282 C 
BRANCH  25  26
HETATM   26  N4  UNL     1      18.377 -18.619  -3.683  1.00  0.00    -0.373 N 
ATOM     27  H4  UNL     1      19.291 -18.959  -3.384  1.00  0.00     0.157 HD
BRANCH  26  28
HETATM   28  C8  UNL     1      18.215 -18.092  -4.979  1.00  0.00     0.249 C 
HETATM   29  O6  UNL     1      18.486 -19.079  -5.951  1.00  0.00    -0.353 OA
HETATM   30  C9  UNL     1      19.807 -19.167  -6.312  1.00  0.00     0.194 C 
HETATM   31  C12 UNL     1      20.207 -17.981  -7.163  1.00  0.00     0.181 C 
HETATM   32  C13 UNL     1      19.239 -16.854  -6.853  1.00  0.00     0.182 C 
HETATM   33  C14 UNL     1      18.993 -16.870  -5.302  1.00  0.00     0.197 C 
BRANCH  30  34
HETATM   34  C10 UNL     1      20.016 -20.495  -7.039  1.00  0.00     0.250 C 
BRANCH  34  35
HETATM   35  O7  UNL     1      19.328 -20.351  -8.264  1.00  0.00    -0.382 OA
ATOM     36  H7  UNL     1      19.463 -21.174  -8.718  1.00  0.00     0.210 HD
ENDBRANCH  34  35
BRANCH  34  37
HETATM   37  C11 UNL     1      19.486 -21.620  -6.271  1.00  0.00     0.205 C 
HETATM   38  O8  UNL     1      18.614 -22.378  -6.813  1.00  0.00    -0.646 OA
HETATM   39  O9  UNL     1      19.919 -21.861  -4.983  1.00  0.00    -0.646 OA
ENDBRANCH  34  37
ENDBRANCH  30  34
BRANCH  31  40
HETATM   40  O10 UNL     1      21.502 -17.547  -6.803  1.00  0.00    -0.390 OA
ATOM     41  H10 UNL     1      21.493 -16.613  -6.631  1.00  0.00     0.210 HD
ENDBRANCH  31  40
BRANCH  32  42
HETATM   42  O11 UNL     1      18.001 -17.011  -7.450  1.00  0.00    -0.390 OA
ATOM     43  H11 UNL     1      17.468 -16.225  -7.426  1.00  0.00     0.210 HD
ENDBRANCH  32  42
BRANCH  33  44
HETATM   44  O12 UNL     1      18.336 -15.667  -5.082  1.00  0.00    -0.389 OA
ATOM     45  H12 UNL     1      17.801 -15.630  -4.298  1.00  0.00     0.210 HD
ENDBRANCH  33  44
ENDBRANCH  26  28
ENDBRANCH  25  26
BRANCH  25  46
HETATM   46  C15 UNL     1      17.265 -17.451  -1.891  1.00  0.00     0.206 C 
HETATM   47  O13 UNL     1      18.052 -16.494  -2.078  1.00  0.00    -0.646 OA
HETATM   48  O14 UNL     1      16.368 -17.377  -0.839  1.00  0.00    -0.646 OA
ENDBRANCH  25  46
ENDBRANCH   1  25
TORSDOF 17
ENDMDL
MODEL 5
REMARK VINA RESULT: -7.209648320      1.968      2.719
REMARK  17 active torsions:
REMARK  status: ('A' for Active; 'I' for Inactive)
REMARK    1  A    between atoms: N1_1  and  C1_5 
REMARK    2  A    between atoms: C1_5  and  N2_6 
REMARK    3  A    between atoms: C1_5  and  C2_10 
REMARK    4  A    between atoms: C4_16  and  C5_17 
REMARK    5  A    between atoms: C5_17  and  O4_19 
REMARK    6  A    between atoms: O4_19  and  C6_20 
REMARK    7  A    between atoms: C6_20  and  C7_22 
REMARK    8  A    between atoms: C7_22  and  N4_23 
REMARK    9  A    between atoms: C7_22  and  C15_43 
REMARK   10  A    between atoms: N4_23  and  C8_25 
REMARK   11  A    between atoms: C9_27  and  C10_28 
REMARK   12  A    between atoms: C10_28  and  O7_29 
REMARK   13  A    between atoms: C10_28  and  C11_31 
REMARK   14  A    between atoms: C12_34  and  O10_35 
REMARK   15  A    between atoms: C13_37  and  O11_38 
REMARK   16  A    between atoms: C14_40  and  O12_41 
REMARK   17  A    between atoms: C16_46  and  O15_47 
ROOT
HETATM    1  C6  UNL     1      14.273 -19.397  -7.725  1.00  0.00     0.299 C 
HETATM    2  O5  UNL     1      13.555 -19.220  -8.732  1.00  0.00    -0.262 OA
ENDROOT
BRANCH   1   3
HETATM    3  O4  UNL     1      13.774 -18.925  -6.513  1.00  0.00    -0.237 OA
BRANCH   3   4
HETATM    4  C5  UNL     1      13.432 -19.741  -5.439  1.00  0.00     0.328 C 
HETATM    5  O3  UNL     1      12.495 -20.543  -5.639  1.00  0.00    -0.256 OA
BRANCH   4   6
HETATM    6  C4  UNL     1      14.145 -19.635  -4.179  1.00  0.00     0.191 A 
HETATM    7  O2  UNL     1      14.978 -18.601  -4.028  1.00  0.00    -0.252 OA
HETATM    8  C3  UNL     1      15.678 -18.397  -2.942  1.00  0.00     0.370 A 
HETATM    9  N3  UNL     1      15.567 -19.262  -1.911  1.00  0.00    -0.300 N 
HETATM   10  O1  UNL     1      16.461 -17.392  -2.844  1.00  0.00    -0.238 OA
HETATM   11  C2  UNL     1      14.764 -20.330  -1.956  1.00  0.00     0.108 A 
ATOM     12  H3  UNL     1      16.115 -19.095  -1.067  1.00  0.00     0.171 HD
HETATM   13  C16 UNL     1      14.028 -20.520  -3.135  1.00  0.00     0.133 A 
BRANCH  11  14
HETATM   14  C1  UNL     1      14.650 -21.249  -0.844  1.00  0.00     0.430 C 
BRANCH  14  15
HETATM   15  N1  UNL     1      15.635 -22.330  -1.024  1.00  0.00    -0.045 N 
ATOM     16  H13 UNL     1      15.386 -23.197  -0.548  1.00  0.00     0.277 HD
ATOM     17  H12 UNL     1      15.655 -22.715  -1.969  1.00  0.00     0.277 HD
ATOM     18  H11 UNL     1      16.527 -21.938  -0.723  1.00  0.00     0.277 HD
ENDBRANCH  14  15
BRANCH  14  19
HETATM   19  N2  UNL     1      14.938 -20.680   0.444  1.00  0.00    -0.045 N 
ATOM     20  H23 UNL     1      14.126 -20.628   1.060  1.00  0.00     0.277 HD
ATOM     21  H22 UNL     1      15.503 -21.283   1.042  1.00  0.00     0.277 HD
ATOM     22  H21 UNL     1      15.366 -19.774   0.251  1.00  0.00     0.277 HD
ENDBRANCH  14  19
ENDBRANCH  11  14
BRANCH  13  23
HETATM   23  O15 UNL     1      13.225 -21.600  -3.161  1.00  0.00    -0.356 OA
ATOM     24  H15 UNL     1      12.550 -21.633  -2.493  1.00  0.00     0.218 HD
ENDBRANCH  13  23
ENDBRANCH   4   6
ENDBRANCH   3   4
ENDBRANCH   1   3
BRANCH   1  25
HETATM   25  C7  UNL     1      15.575 -20.064  -7.788  1.00  0.00     0.282 C 
BRANCH  25  26
HETATM   26  N4  UNL     1      16.076 -20.583  -8.975  1.00  0.00    -0.373 N 
ATOM     27  H4  UNL     1      16.293 -19.957  -9.751  1.00  0.00     0.157 HD
BRANCH  26  28
HETATM   28  C8  UNL     1      16.286 -21.969  -9.113  1.00  0.00     0.249 C 
HETATM   29  O6  UNL     1      17.285 -22.409  -8.218  1.00  0.00    -0.353 OA
HETATM   30  C9  UNL     1      18.563 -22.317  -8.710  1.00  0.00     0.194 C 
HETATM   31  C12 UNL     1      18.807 -23.374  -9.765  1.00  0.00     0.181 C 
HETATM   32  C13 UNL     1      17.455 -23.774 -10.326  1.00  0.00     0.182 C 
HETATM   33  C14 UNL     1      16.610 -22.459 -10.476  1.00  0.00     0.197 C 
BRANCH  30  34
HETATM   34  C10 UNL     1      19.535 -22.437  -7.536  1.00  0.00     0.250 C 
BRANCH  34  35
HETATM   35  O7  UNL     1      18.731 -22.288  -6.383  1.00  0.00    -0.382 OA
ATOM     36  H7  UNL     1      18.139 -21.575  -6.589  1.00  0.00     0.210 HD
ENDBRANCH  34  35
BRANCH  34  37
HETATM   37  C11 UNL     1      20.573 -21.410  -7.586  1.00  0.00     0.205 C 
HETATM   38  O8  UNL     1      20.828 -20.741  -6.530  1.00  0.00    -0.646 OA
HETATM   39  O9  UNL     1      21.268 -21.166  -8.754  1.00  0.00    -0.646 OA
ENDBRANCH  34  37
ENDBRANCH  30  34
BRANCH  31  40
HETATM   40  O10 UNL     1      19.567 -22.830 -10.823  1.00  0.00    -0.390 OA
ATOM     41  H10 UNL     1      20.432 -22.593 -10.510  1.00  0.00     0.210 HD
ENDBRANCH  31  40
BRANCH  32  42
HETATM   42  O11 UNL     1      16.737 -24.610  -9.489  1.00  0.00    -0.390 OA
ATOM     43  H11 UNL     1      15.901 -24.880  -9.852  1.00  0.00     0.210 HD
ENDBRANCH  32  42
BRANCH  33  44
HETATM   44  O12 UNL     1      15.524 -22.876 -11.236  1.00  0.00    -0.389 OA
ATOM     45  H12 UNL     1      14.750 -22.329 -11.178  1.00  0.00     0.210 HD
ENDBRANCH  33  44
ENDBRANCH  26  28
ENDBRANCH  25  26
BRANCH  25  46
HETATM   46  C15 UNL     1      16.618 -19.188  -7.086  1.00  0.00     0.206 C 
HETATM   47  O13 UNL     1      17.331 -19.658  -6.168  1.00  0.00    -0.646 OA
HETATM   48  O14 UNL     1      16.791 -17.863  -7.448  1.00  0.00    -0.646 OA
ENDBRANCH  25  46
ENDBRANCH   1  25
TORSDOF 17
ENDMDL
