MODEL 1
REMARK VINA RESULT: -7.705825486      0.000      0.000
REMARK  16 active torsions:
REMARK  status: ('A' for Active; 'I' for Inactive)
REMARK    1  A    between atoms: N5_15  and  C6_16 
REMARK    2  A    between atoms: C7_18  and  C8_19 
REMARK    3  A    between atoms: C8_19  and  O2_20 
REMARK    4  A    between atoms: C8_19  and  C9_22 
REMARK    5  A    between atoms: C9_22  and  C10_24 
REMARK    6  A    between atoms: C10_24  and  O4_25 
REMARK    7  A    between atoms: C10_24  and  C11_27 
REMARK    8  A    between atoms: C11_27  and  N6_28 
REMARK    9  A    between atoms: C11_27  and  C12_32 
REMARK   10  A    between atoms: C12_32  and  O5_33 
REMARK   11  A    between atoms: C12_32  and  C13_35 
REMARK   12  A    between atoms: C15_37  and  O6_38 
REMARK   13  A    between atoms: C16_40  and  O7_41 
REMARK   14  A    between atoms: C17_43  and  O8_44 
REMARK   15  A    between atoms: C18_47  and  O10_48 
REMARK   16  A    between atoms: C19_50  and  O11_51 
ROOT
HETATM    1  C8  UNL     1      12.999 -20.109  -4.948  1.00  0.00     0.222 C 
ENDROOT
BRANCH   1   2
HETATM    2  C7  UNL     1      14.012 -19.413  -5.827  1.00  0.00     0.191 C 
HETATM    3  O1  UNL     1      15.069 -20.254  -6.039  1.00  0.00    -0.353 OA
HETATM    4  C6  UNL     1      15.041 -20.711  -7.352  1.00  0.00     0.262 C 
HETATM    5  C19 UNL     1      14.581 -19.486  -8.104  1.00  0.00     0.198 C 
HETATM    6  C18 UNL     1      13.433 -19.051  -7.177  1.00  0.00     0.183 C 
BRANCH   4   7
HETATM    7  N5  UNL     1      16.312 -21.197  -7.779  1.00  0.00    -0.297 N 
HETATM    8  C3  UNL     1      16.694 -21.779  -8.923  1.00  0.00     0.142 A 
HETATM    9  N3  UNL     1      16.032 -22.096 -10.025  1.00  0.00    -0.336 N 
HETATM   10  C4  UNL     1      18.048 -22.081  -8.872  1.00  0.00     0.122 A 
HETATM   11  C2  UNL     1      16.646 -22.686 -11.054  1.00  0.00     0.183 A 
ATOM     12  H3  UNL     1      15.036 -21.886 -10.089  1.00  0.00     0.168 HD
HETATM   13  N2  UNL     1      17.956 -22.983 -11.019  1.00  0.00    -0.337 N 
HETATM   14  C1  UNL     1      18.707 -22.690  -9.921  1.00  0.00     0.131 A 
ATOM     15  H2  UNL     1      18.392 -23.432 -11.824  1.00  0.00     0.168 HD
HETATM   16  N1  UNL     1      19.966 -22.969  -9.874  1.00  0.00    -0.383 N 
ATOM     17  H12 UNL     1      20.453 -23.420 -10.649  1.00  0.00     0.157 HD
ATOM     18  H11 UNL     1      20.529 -22.750  -9.052  1.00  0.00     0.157 HD
HETATM   19  N4  UNL     1      18.466 -21.669  -7.681  1.00  0.00    -0.346 N 
HETATM   20  C5  UNL     1      17.421 -21.136  -7.022  1.00  0.00     0.188 A 
ATOM     21  H4  UNL     1      19.419 -21.744  -7.326  1.00  0.00     0.167 HD
ENDBRANCH   4   7
BRANCH   5  22
HETATM   22  O11 UNL     1      14.009 -19.793  -9.334  1.00  0.00    -0.388 OA
ATOM     23  H11 UNL     1      14.332 -19.242 -10.037  1.00  0.00     0.210 HD
ENDBRANCH   5  22
BRANCH   6  24
HETATM   24  O10 UNL     1      12.328 -19.799  -7.507  1.00  0.00    -0.390 OA
ATOM     25  H10 UNL     1      11.607 -19.273  -7.832  1.00  0.00     0.210 HD
ENDBRANCH   6  24
ENDBRANCH   1   2
BRANCH   1  26
HETATM   26  O2  UNL     1      12.474 -21.245  -5.521  1.00  0.00    -0.385 OA
ATOM     27  H2  UNL     1      12.938 -22.036  -5.274  1.00  0.00     0.210 HD
ENDBRANCH   1  26
BRANCH   1  28
HETATM   28  C9  UNL     1      13.505 -20.395  -3.595  1.00  0.00     0.188 C 
HETATM   29  O3  UNL     1      13.395 -21.543  -3.206  1.00  0.00    -0.292 OA
BRANCH  28  30
HETATM   30  C10 UNL     1      14.116 -19.406  -2.713  1.00  0.00     0.223 C 
BRANCH  30  31
HETATM   31  O4  UNL     1      13.689 -19.527  -1.363  1.00  0.00    -0.386 OA
ATOM     32  H4  UNL     1      12.758 -19.379  -1.253  1.00  0.00     0.210 HD
ENDBRANCH  30  31
BRANCH  30  33
HETATM   33  C11 UNL     1      15.599 -19.355  -2.638  1.00  0.00     0.250 C 
BRANCH  33  34
HETATM   34  N6  UNL     1      16.275 -20.426  -3.363  1.00  0.00    -0.070 N 
ATOM     35  H63 UNL     1      15.665 -21.239  -3.449  1.00  0.00     0.275 HD
ATOM     36  H62 UNL     1      16.377 -20.180  -4.349  1.00  0.00     0.275 HD
ATOM     37  H61 UNL     1      17.176 -20.697  -2.970  1.00  0.00     0.275 HD
ENDBRANCH  33  34
BRANCH  33  38
HETATM   38  C12 UNL     1      16.268 -18.044  -2.806  1.00  0.00     0.180 C 
BRANCH  38  39
HETATM   39  O5  UNL     1      16.498 -17.293  -1.702  1.00  0.00    -0.391 OA
ATOM     40  H5  UNL     1      17.361 -16.911  -1.587  1.00  0.00     0.210 HD
ENDBRANCH  38  39
BRANCH  38  41
HETATM   41  C13 UNL     1      17.518 -18.237  -3.675  1.00  0.00     0.158 C 
HETATM   42  C14 UNL     1      18.563 -17.206  -3.353  1.00  0.00     0.069 C 
HETATM   43  C15 UNL     1      18.229 -15.908  -4.092  1.00  0.00     0.154 C 
HETATM   44  C16 UNL     1      18.360 -16.191  -5.558  1.00  0.00     0.201 C 
HETATM   45  C17 UNL     1      18.045 -17.635  -5.841  1.00  0.00     0.288 C 
HETATM   46  O9  UNL     1      17.077 -18.148  -4.992  1.00  0.00    -0.351 OA
BRANCH  43  47
HETATM   47  O6  UNL     1      19.181 -14.929  -3.772  1.00  0.00    -0.393 OA
ATOM     48  H6  UNL     1      18.901 -14.457  -2.996  1.00  0.00     0.210 HD
ENDBRANCH  43  47
BRANCH  44  49
HETATM   49  O7  UNL     1      19.674 -15.953  -5.956  1.00  0.00    -0.388 OA
ATOM     50  H7  UNL     1      20.067 -16.768  -6.244  1.00  0.00     0.210 HD
ENDBRANCH  44  49
BRANCH  45  51
HETATM   51  O8  UNL     1      17.484 -17.668  -7.138  1.00  0.00    -0.369 OA
ATOM     52  H8  UNL     1      16.562 -17.867  -7.022  1.00  0.00     0.212 HD
ENDBRANCH  45  51
ENDBRANCH  38  41
ENDBRANCH  33  38
ENDBRANCH  30  33
ENDBRANCH  28  30
ENDBRANCH   1  28
TORSDOF 16
ENDMDL
MODEL 2
REMARK VINA RESULT: -7.590761870      1.974      3.972
REMARK  16 active torsions:
REMARK  status: ('A' for Active; 'I' for Inactive)
REMARK    1  A    between atoms: N5_15  and  C6_16 
REMARK    2  A    between atoms: C7_18  and  C8_19 
REMARK    3  A    between atoms: C8_19  and  O2_20 
REMARK    4  A    between atoms: C8_19  and  C9_22 
REMARK    5  A    between atoms: C9_22  and  C10_24 
REMARK    6  A    between atoms: C10_24  and  O4_25 
REMARK    7  A    between atoms: C10_24  and  C11_27 
REMARK    8  A    between atoms: C11_27  and  N6_28 
REMARK    9  A    between atoms: C11_27  and  C12_32 
REMARK   10  A    between atoms: C12_32  and  O5_33 
REMARK   11  A    between atoms: C12_32  and  C13_35 
REMARK   12  A    between atoms: C15_37  and  O6_38 
REMARK   13  A    between atoms: C16_40  and  O7_41 
REMARK   14  A    between atoms: C17_43  and  O8_44 
REMARK   15  A    between atoms: C18_47  and  O10_48 
REMARK   16  A    between atoms: C19_50  and  O11_51 
ROOT
HETATM    1  C8  UNL     1      16.473 -19.888  -1.939  1.00  0.00     0.222 C 
ENDROOT
BRANCH   1   2
HETATM    2  C7  UNL     1      15.332 -19.323  -2.753  1.00  0.00     0.191 C 
HETATM    3  O1  UNL     1      15.679 -19.339  -4.076  1.00  0.00    -0.353 OA
HETATM    4  C6  UNL     1      14.951 -20.325  -4.733  1.00  0.00     0.262 C 
HETATM    5  C19 UNL     1      13.602 -20.224  -4.060  1.00  0.00     0.198 C 
HETATM    6  C18 UNL     1      14.069 -20.140  -2.596  1.00  0.00     0.183 C 
BRANCH   4   7
HETATM    7  N5  UNL     1      14.902 -20.108  -6.141  1.00  0.00    -0.297 N 
HETATM    8  C3  UNL     1      15.451 -20.787  -7.157  1.00  0.00     0.142 A 
HETATM    9  N3  UNL     1      16.212 -21.870  -7.196  1.00  0.00    -0.336 N 
HETATM   10  C4  UNL     1      15.120 -20.185  -8.362  1.00  0.00     0.122 A 
HETATM   11  C2  UNL     1      16.646 -22.367  -8.357  1.00  0.00     0.183 A 
ATOM     12  H3  UNL     1      16.471 -22.332  -6.324  1.00  0.00     0.168 HD
HETATM   13  N2  UNL     1      16.333 -21.796  -9.531  1.00  0.00    -0.337 N 
HETATM   14  C1  UNL     1      15.555 -20.679  -9.576  1.00  0.00     0.131 A 
ATOM     15  H2  UNL     1      16.681 -22.203 -10.399  1.00  0.00     0.168 HD
HETATM   16  N1  UNL     1      15.246 -20.119 -10.698  1.00  0.00    -0.383 N 
ATOM     17  H12 UNL     1      15.568 -20.484 -11.595  1.00  0.00     0.157 HD
ATOM     18  H11 UNL     1      14.663 -19.282 -10.732  1.00  0.00     0.157 HD
HETATM   19  N4  UNL     1      14.365 -19.138  -8.050  1.00  0.00    -0.346 N 
HETATM   20  C5  UNL     1      14.233 -19.091  -6.712  1.00  0.00     0.188 A 
ATOM     21  H4  UNL     1      13.954 -18.481  -8.713  1.00  0.00     0.167 HD
ENDBRANCH   4   7
BRANCH   5  22
HETATM   22  O11 UNL     1      12.855 -21.391  -4.176  1.00  0.00    -0.388 OA
ATOM     23  H11 UNL     1      12.343 -21.577  -3.398  1.00  0.00     0.210 HD
ENDBRANCH   5  22
BRANCH   6  24
HETATM   24  O10 UNL     1      14.308 -21.422  -2.163  1.00  0.00    -0.390 OA
ATOM     25  H10 UNL     1      13.552 -21.990  -2.249  1.00  0.00     0.210 HD
ENDBRANCH   6  24
ENDBRANCH   1   2
BRANCH   1  26
HETATM   26  O2  UNL     1      17.287 -20.731  -2.660  1.00  0.00    -0.385 OA
ATOM     27  H2  UNL     1      17.858 -21.257  -2.113  1.00  0.00     0.210 HD
ENDBRANCH   1  26
BRANCH   1  28
HETATM   28  C9  UNL     1      17.270 -18.851  -1.260  1.00  0.00     0.188 C 
HETATM   29  O3  UNL     1      17.866 -19.197  -0.256  1.00  0.00    -0.292 OA
BRANCH  28  30
HETATM   30  C10 UNL     1      17.384 -17.468  -1.708  1.00  0.00     0.223 C 
BRANCH  30  31
HETATM   31  O4  UNL     1      17.330 -16.532  -0.641  1.00  0.00    -0.386 OA
ATOM     32  H4  UNL     1      16.591 -15.938  -0.704  1.00  0.00     0.210 HD
ENDBRANCH  30  31
BRANCH  30  33
HETATM   33  C11 UNL     1      18.587 -17.081  -2.489  1.00  0.00     0.250 C 
BRANCH  33  34
HETATM   34  N6  UNL     1      19.771 -17.888  -2.209  1.00  0.00    -0.070 N 
ATOM     35  H63 UNL     1      19.510 -18.749  -1.728  1.00  0.00     0.275 HD
ATOM     36  H62 UNL     1      20.148 -18.280  -3.074  1.00  0.00     0.275 HD
ATOM     37  H61 UNL     1      20.501 -17.398  -1.693  1.00  0.00     0.275 HD
ENDBRANCH  33  34
BRANCH  33  38
HETATM   38  C12 UNL     1      18.426 -16.790  -3.932  1.00  0.00     0.180 C 
BRANCH  38  39
HETATM   39  O5  UNL     1      18.484 -15.498  -4.339  1.00  0.00    -0.391 OA
ATOM     40  H5  UNL     1      19.338 -15.097  -4.448  1.00  0.00     0.210 HD
ENDBRANCH  38  39
BRANCH  38  41
HETATM   41  C13 UNL     1      19.358 -17.714  -4.729  1.00  0.00     0.158 C 
HETATM   42  C14 UNL     1      19.464 -17.269  -6.160  1.00  0.00     0.069 C 
HETATM   43  C15 UNL     1      18.254 -17.793  -6.937  1.00  0.00     0.154 C 
HETATM   44  C16 UNL     1      18.356 -19.287  -6.957  1.00  0.00     0.201 C 
HETATM   45  C17 UNL     1      19.065 -19.778  -5.723  1.00  0.00     0.288 C 
HETATM   46  O9  UNL     1      18.812 -18.989  -4.611  1.00  0.00    -0.351 OA
BRANCH  43  47
HETATM   47  O6  UNL     1      18.327 -17.354  -8.268  1.00  0.00    -0.393 OA
ATOM     48  H6  UNL     1      18.015 -16.458  -8.324  1.00  0.00     0.210 HD
ENDBRANCH  43  47
BRANCH  44  49
HETATM   49  O7  UNL     1      19.104 -19.682  -8.065  1.00  0.00    -0.388 OA
ATOM     50  H7  UNL     1      19.479 -20.540  -7.902  1.00  0.00     0.210 HD
ENDBRANCH  44  49
BRANCH  45  51
HETATM   51  O8  UNL     1      18.517 -21.048  -5.433  1.00  0.00    -0.369 OA
ATOM     52  H8  UNL     1      18.156 -20.986  -4.556  1.00  0.00     0.212 HD
ENDBRANCH  45  51
ENDBRANCH  38  41
ENDBRANCH  33  38
ENDBRANCH  30  33
ENDBRANCH  28  30
ENDBRANCH   1  28
TORSDOF 16
ENDMDL
MODEL 3
REMARK VINA RESULT: -7.515174400      3.330      8.202
REMARK  16 active torsions:
REMARK  status: ('A' for Active; 'I' for Inactive)
REMARK    1  A    between atoms: N5_15  and  C6_16 
REMARK    2  A    between atoms: C7_18  and  C8_19 
REMARK    3  A    between atoms: C8_19  and  O2_20 
REMARK    4  A    between atoms: C8_19  and  C9_22 
REMARK    5  A    between atoms: C9_22  and  C10_24 
REMARK    6  A    between atoms: C10_24  and  O4_25 
REMARK    7  A    between atoms: C10_24  and  C11_27 
REMARK    8  A    between atoms: C11_27  and  N6_28 
REMARK    9  A    between atoms: C11_27  and  C12_32 
REMARK   10  A    between atoms: C12_32  and  O5_33 
REMARK   11  A    between atoms: C12_32  and  C13_35 
REMARK   12  A    between atoms: C15_37  and  O6_38 
REMARK   13  A    between atoms: C16_40  and  O7_41 
REMARK   14  A    between atoms: C17_43  and  O8_44 
REMARK   15  A    between atoms: C18_47  and  O10_48 
REMARK   16  A    between atoms: C19_50  and  O11_51 
ROOT
HETATM    1  C8  UNL     1      14.337 -19.652  -7.619  1.00  0.00     0.222 C 
ENDROOT
BRANCH   1   2
HETATM    2  C7  UNL     1      14.478 -20.472  -6.358  1.00  0.00     0.191 C 
HETATM    3  O1  UNL     1      15.151 -19.736  -5.422  1.00  0.00    -0.353 OA
HETATM    4  C6  UNL     1      14.267 -19.339  -4.424  1.00  0.00     0.262 C 
HETATM    5  C19 UNL     1      13.381 -20.553  -4.284  1.00  0.00     0.198 C 
HETATM    6  C18 UNL     1      13.133 -20.844  -5.774  1.00  0.00     0.183 C 
BRANCH   4   7
HETATM    7  N5  UNL     1      14.943 -18.985  -3.219  1.00  0.00    -0.297 N 
HETATM    8  C3  UNL     1      15.963 -18.146  -2.994  1.00  0.00     0.142 A 
HETATM    9  N3  UNL     1      16.677 -17.377  -3.801  1.00  0.00    -0.336 N 
HETATM   10  C4  UNL     1      16.277 -18.135  -1.643  1.00  0.00     0.122 A 
HETATM   11  C2  UNL     1      17.666 -16.614  -3.330  1.00  0.00     0.183 A 
ATOM     12  H3  UNL     1      16.468 -17.367  -4.799  1.00  0.00     0.168 HD
HETATM   13  N2  UNL     1      17.981 -16.590  -2.025  1.00  0.00    -0.337 N 
HETATM   14  C1  UNL     1      17.294 -17.355  -1.130  1.00  0.00     0.131 A 
ATOM     15  H2  UNL     1      18.742 -15.994  -1.700  1.00  0.00     0.168 HD
HETATM   16  N1  UNL     1      17.586 -17.343   0.128  1.00  0.00    -0.383 N 
ATOM     17  H12 UNL     1      18.338 -16.766   0.507  1.00  0.00     0.157 HD
ATOM     18  H11 UNL     1      17.071 -17.915   0.798  1.00  0.00     0.157 HD
HETATM   19  N4  UNL     1      15.429 -18.977  -1.066  1.00  0.00    -0.346 N 
HETATM   20  C5  UNL     1      14.624 -19.490  -2.015  1.00  0.00     0.188 A 
ATOM     21  H4  UNL     1      15.393 -19.199  -0.071  1.00  0.00     0.167 HD
ENDBRANCH   4   7
BRANCH   5  22
HETATM   22  O11 UNL     1      12.144 -20.254  -3.723  1.00  0.00    -0.388 OA
ATOM     23  H11 UNL     1      11.903 -20.852  -3.025  1.00  0.00     0.210 HD
ENDBRANCH   5  22
BRANCH   6  24
HETATM   24  O10 UNL     1      12.118 -20.019  -6.194  1.00  0.00    -0.390 OA
ATOM     25  H10 UNL     1      11.304 -20.162  -5.724  1.00  0.00     0.210 HD
ENDBRANCH   6  24
ENDBRANCH   1   2
BRANCH   1  26
HETATM   26  O2  UNL     1      14.041 -18.330  -7.376  1.00  0.00    -0.385 OA
ATOM     27  H2  UNL     1      14.212 -17.766  -8.120  1.00  0.00     0.210 HD
ENDBRANCH   1  26
BRANCH   1  28
HETATM   28  C9  UNL     1      15.498 -19.768  -8.519  1.00  0.00     0.188 C 
HETATM   29  O3  UNL     1      16.478 -19.108  -8.228  1.00  0.00    -0.292 OA
BRANCH  28  30
HETATM   30  C10 UNL     1      15.541 -20.608  -9.711  1.00  0.00     0.223 C 
BRANCH  30  31
HETATM   31  O4  UNL     1      15.627 -19.859 -10.915  1.00  0.00    -0.386 OA
ATOM     32  H4  UNL     1      14.835 -19.370 -11.106  1.00  0.00     0.210 HD
ENDBRANCH  30  31
BRANCH  30  33
HETATM   33  C11 UNL     1      16.624 -21.620  -9.817  1.00  0.00     0.250 C 
BRANCH  33  34
HETATM   34  N6  UNL     1      17.318 -21.891  -8.562  1.00  0.00    -0.070 N 
ATOM     35  H63 UNL     1      18.076 -21.223  -8.422  1.00  0.00     0.275 HD
ATOM     36  H62 UNL     1      16.725 -21.650  -7.767  1.00  0.00     0.275 HD
ATOM     37  H61 UNL     1      17.664 -22.846  -8.470  1.00  0.00     0.275 HD
ENDBRANCH  33  34
BRANCH  33  38
HETATM   38  C12 UNL     1      16.364 -22.850 -10.600  1.00  0.00     0.180 C 
BRANCH  38  39
HETATM   39  O5  UNL     1      15.153 -22.995 -11.189  1.00  0.00    -0.391 OA
ATOM     40  H5  UNL     1      14.529 -23.594 -10.797  1.00  0.00     0.210 HD
ENDBRANCH  38  39
BRANCH  38  41
HETATM   41  C13 UNL     1      17.535 -23.073 -11.568  1.00  0.00     0.158 C 
HETATM   42  C14 UNL     1      17.314 -24.300 -12.406  1.00  0.00     0.069 C 
HETATM   43  C15 UNL     1      17.723 -25.536 -11.601  1.00  0.00     0.154 C 
HETATM   44  C16 UNL     1      19.201 -25.446 -11.375  1.00  0.00     0.201 C 
HETATM   45  C17 UNL     1      19.634 -24.005 -11.321  1.00  0.00     0.288 C 
HETATM   46  O9  UNL     1      18.669 -23.178 -10.767  1.00  0.00    -0.351 OA
BRANCH  43  47
HETATM   47  O6  UNL     1      17.490 -26.690 -12.364  1.00  0.00    -0.393 OA
ATOM     48  H6  UNL     1      17.168 -27.384 -11.800  1.00  0.00     0.210 HD
ENDBRANCH  43  47
BRANCH  44  49
HETATM   49  O7  UNL     1      19.867 -26.052 -12.440  1.00  0.00    -0.388 OA
ATOM     50  H7  UNL     1      20.571 -25.486 -12.733  1.00  0.00     0.210 HD
ENDBRANCH  44  49
BRANCH  45  51
HETATM   51  O8  UNL     1      20.739 -23.959 -10.441  1.00  0.00    -0.369 OA
ATOM     52  H8  UNL     1      21.508 -24.119 -10.974  1.00  0.00     0.212 HD
ENDBRANCH  45  51
ENDBRANCH  38  41
ENDBRANCH  33  38
ENDBRANCH  30  33
ENDBRANCH  28  30
ENDBRANCH   1  28
TORSDOF 16
ENDMDL
MODEL 4
REMARK VINA RESULT: -7.500359190      3.353      5.803
REMARK  16 active torsions:
REMARK  status: ('A' for Active; 'I' for Inactive)
REMARK    1  A    between atoms: N5_15  and  C6_16 
REMARK    2  A    between atoms: C7_18  and  C8_19 
REMARK    3  A    between atoms: C8_19  and  O2_20 
REMARK    4  A    between atoms: C8_19  and  C9_22 
REMARK    5  A    between atoms: C9_22  and  C10_24 
REMARK    6  A    between atoms: C10_24  and  O4_25 
REMARK    7  A    between atoms: C10_24  and  C11_27 
REMARK    8  A    between atoms: C11_27  and  N6_28 
REMARK    9  A    between atoms: C11_27  and  C12_32 
REMARK   10  A    between atoms: C12_32  and  O5_33 
REMARK   11  A    between atoms: C12_32  and  C13_35 
REMARK   12  A    between atoms: C15_37  and  O6_38 
REMARK   13  A    between atoms: C16_40  and  O7_41 
REMARK   14  A    between atoms: C17_43  and  O8_44 
REMARK   15  A    between atoms: C18_47  and  O10_48 
REMARK   16  A    between atoms: C19_50  and  O11_51 
ROOT
HETATM    1  C8  UNL     1      17.555 -18.178  -1.017  1.00  0.00     0.222 C 
ENDROOT
BRANCH   1   2
HETATM    2  C7  UNL     1      16.048 -18.119  -1.114  1.00  0.00     0.191 C 
HETATM    3  O1  UNL     1      15.672 -18.423  -2.393  1.00  0.00    -0.353 OA
HETATM    4  C6  UNL     1      15.088 -19.685  -2.417  1.00  0.00     0.262 C 
HETATM    5  C19 UNL     1      14.310 -19.698  -1.123  1.00  0.00     0.198 C 
HETATM    6  C18 UNL     1      15.385 -19.116  -0.189  1.00  0.00     0.183 C 
BRANCH   4   7
HETATM    7  N5  UNL     1      14.276 -19.879  -3.572  1.00  0.00    -0.297 N 
HETATM    8  C3  UNL     1      14.328 -19.323  -4.790  1.00  0.00     0.142 A 
HETATM    9  N3  UNL     1      15.137 -18.421  -5.323  1.00  0.00    -0.336 N 
HETATM   10  C4  UNL     1      13.313 -19.834  -5.587  1.00  0.00     0.122 A 
HETATM   11  C2  UNL     1      14.983 -18.016  -6.585  1.00  0.00     0.183 A 
ATOM     12  H3  UNL     1      15.890 -18.028  -4.758  1.00  0.00     0.168 HD
HETATM   13  N2  UNL     1      14.007 -18.502  -7.370  1.00  0.00    -0.337 N 
HETATM   14  C1  UNL     1      13.133 -19.433  -6.896  1.00  0.00     0.131 A 
ATOM     15  H2  UNL     1      13.920 -18.171  -8.330  1.00  0.00     0.168 HD
HETATM   16  N1  UNL     1      12.190 -19.909  -7.638  1.00  0.00    -0.383 N 
ATOM     17  H12 UNL     1      12.056 -19.612  -8.605  1.00  0.00     0.157 HD
ATOM     18  H11 UNL     1      11.535 -20.606  -7.283  1.00  0.00     0.157 HD
HETATM   19  N4  UNL     1      12.657 -20.702  -4.827  1.00  0.00    -0.346 N 
HETATM   20  C5  UNL     1      13.236 -20.730  -3.613  1.00  0.00     0.188 A 
ATOM     21  H4  UNL     1      11.850 -21.255  -5.115  1.00  0.00     0.167 HD
ENDBRANCH   4   7
BRANCH   5  22
HETATM   22  O11 UNL     1      14.040 -20.985  -0.671  1.00  0.00    -0.388 OA
ATOM     23  H11 UNL     1      14.810 -21.421  -0.324  1.00  0.00     0.210 HD
ENDBRANCH   5  22
BRANCH   6  24
HETATM   24  O10 UNL     1      16.217 -20.146   0.178  1.00  0.00    -0.390 OA
ATOM     25  H10 UNL     1      16.107 -20.409   1.084  1.00  0.00     0.210 HD
ENDBRANCH   6  24
ENDBRANCH   1   2
BRANCH   1  26
HETATM   26  O2  UNL     1      18.130 -18.958  -1.994  1.00  0.00    -0.385 OA
ATOM     27  H2  UNL     1      18.291 -19.851  -1.713  1.00  0.00     0.210 HD
ENDBRANCH   1  26
BRANCH   1  28
HETATM   28  C9  UNL     1      18.185 -16.847  -0.977  1.00  0.00     0.188 C 
HETATM   29  O3  UNL     1      18.782 -16.560   0.044  1.00  0.00    -0.292 OA
BRANCH  28  30
HETATM   30  C10 UNL     1      18.139 -15.875  -2.064  1.00  0.00     0.223 C 
BRANCH  30  31
HETATM   31  O4  UNL     1      18.160 -14.530  -1.608  1.00  0.00    -0.386 OA
ATOM     32  H4  UNL     1      17.637 -13.947  -2.146  1.00  0.00     0.210 HD
ENDBRANCH  30  31
BRANCH  30  33
HETATM   33  C11 UNL     1      19.196 -15.938  -3.106  1.00  0.00     0.250 C 
BRANCH  33  34
HETATM   34  N6  UNL     1      20.365 -16.726  -2.730  1.00  0.00    -0.070 N 
ATOM     35  H63 UNL     1      20.093 -17.685  -2.512  1.00  0.00     0.275 HD
ATOM     36  H62 UNL     1      20.958 -16.894  -3.544  1.00  0.00     0.275 HD
ATOM     37  H61 UNL     1      20.913 -16.329  -1.967  1.00  0.00     0.275 HD
ENDBRANCH  33  34
BRANCH  33  38
HETATM   38  C12 UNL     1      18.787 -16.162  -4.512  1.00  0.00     0.180 C 
BRANCH  38  39
HETATM   39  O5  UNL     1      18.907 -15.136  -5.389  1.00  0.00    -0.391 OA
ATOM     40  H5  UNL     1      19.733 -15.027  -5.846  1.00  0.00     0.210 HD
ENDBRANCH  38  39
BRANCH  38  41
HETATM   41  C13 UNL     1      19.434 -17.460  -5.012  1.00  0.00     0.158 C 
HETATM   42  C14 UNL     1      19.812 -17.351  -6.462  1.00  0.00     0.069 C 
HETATM   43  C15 UNL     1      18.574 -17.617  -7.323  1.00  0.00     0.154 C 
HETATM   44  C16 UNL     1      18.183 -19.046  -7.101  1.00  0.00     0.201 C 
HETATM   45  C17 UNL     1      18.575 -19.486  -5.716  1.00  0.00     0.288 C 
HETATM   46  O9  UNL     1      18.493 -18.461  -4.786  1.00  0.00    -0.351 OA
BRANCH  43  47
HETATM   47  O6  UNL     1      18.909 -17.484  -8.679  1.00  0.00    -0.393 OA
ATOM     48  H6  UNL     1      18.174 -17.113  -9.152  1.00  0.00     0.210 HD
ENDBRANCH  43  47
BRANCH  44  49
HETATM   49  O7  UNL     1      18.859 -19.855  -8.014  1.00  0.00    -0.388 OA
ATOM     50  H7  UNL     1      18.508 -20.736  -7.972  1.00  0.00     0.210 HD
ENDBRANCH  44  49
BRANCH  45  51
HETATM   51  O8  UNL     1      17.617 -20.447  -5.322  1.00  0.00    -0.369 OA
ATOM     52  H8  UNL     1      17.213 -20.109  -4.532  1.00  0.00     0.212 HD
ENDBRANCH  45  51
ENDBRANCH  38  41
ENDBRANCH  33  38
ENDBRANCH  30  33
ENDBRANCH  28  30
ENDBRANCH   1  28
TORSDOF 16
ENDMDL
MODEL 5
REMARK VINA RESULT: -7.499904310      0.760      1.619
REMARK  16 active torsions:
REMARK  status: ('A' for Active; 'I' for Inactive)
REMARK    1  A    between atoms: N5_15  and  C6_16 
REMARK    2  A    between atoms: C7_18  and  C8_19 
REMARK    3  A    between atoms: C8_19  and  O2_20 
REMARK    4  A    between atoms: C8_19  and  C9_22 
REMARK    5  A    between atoms: C9_22  and  C10_24 
REMARK    6  A    between atoms: C10_24  and  O4_25 
REMARK    7  A    between atoms: C10_24  and  C11_27 
REMARK    8  A    between atoms: C11_27  and  N6_28 
REMARK    9  A    between atoms: C11_27  and  C12_32 
REMARK   10  A    between atoms: C12_32  and  O5_33 
REMARK   11  A    between atoms: C12_32  and  C13_35 
REMARK   12  A    between atoms: C15_37  and  O6_38 
REMARK   13  A    between atoms: C16_40  and  O7_41 
REMARK   14  A    between atoms: C17_43  and  O8_44 
REMARK   15  A    between atoms: C18_47  and  O10_48 
REMARK   16  A    between atoms: C19_50  and  O11_51 
ROOT
HETATM    1  C8  UNL     1      13.071 -20.259  -4.770  1.00  0.00     0.222 C 
ENDROOT
BRANCH   1   2
HETATM    2  C7  UNL     1      14.008 -19.481  -5.664  1.00  0.00     0.191 C 
HETATM    3  O1  UNL     1      15.026 -20.303  -6.064  1.00  0.00    -0.353 OA
HETATM    4  C6  UNL     1      14.865 -20.616  -7.410  1.00  0.00     0.262 C 
HETATM    5  C19 UNL     1      14.357 -19.314  -7.980  1.00  0.00     0.198 C 
HETATM    6  C18 UNL     1      13.310 -18.973  -6.906  1.00  0.00     0.183 C 
BRANCH   4   7
HETATM    7  N5  UNL     1      16.081 -21.063  -8.005  1.00  0.00    -0.297 N 
HETATM    8  C3  UNL     1      17.295 -21.273  -7.479  1.00  0.00     0.142 A 
HETATM    9  N3  UNL     1      17.768 -21.140  -6.250  1.00  0.00    -0.336 N 
HETATM   10  C4  UNL     1      18.169 -21.709  -8.465  1.00  0.00     0.122 A 
HETATM   11  C2  UNL     1      19.043 -21.416  -5.967  1.00  0.00     0.183 A 
ATOM     12  H3  UNL     1      17.147 -20.820  -5.506  1.00  0.00     0.168 HD
HETATM   13  N2  UNL     1      19.901 -21.840  -6.910  1.00  0.00    -0.337 N 
HETATM   14  C1  UNL     1      19.492 -22.002  -8.199  1.00  0.00     0.131 A 
ATOM     15  H2  UNL     1      20.867 -22.043  -6.657  1.00  0.00     0.168 HD
HETATM   16  N1  UNL     1      20.305 -22.409  -9.116  1.00  0.00    -0.383 N 
ATOM     17  H12 UNL     1      21.282 -22.626  -8.919  1.00  0.00     0.157 HD
ATOM     18  H11 UNL     1      19.999 -22.531 -10.081  1.00  0.00     0.157 HD
HETATM   19  N4  UNL     1      17.458 -21.756  -9.585  1.00  0.00    -0.346 N 
HETATM   20  C5  UNL     1      16.200 -21.367  -9.310  1.00  0.00     0.188 A 
ATOM     21  H4  UNL     1      17.807 -22.040 -10.500  1.00  0.00     0.167 HD
ENDBRANCH   4   7
BRANCH   5  22
HETATM   22  O11 UNL     1      13.666 -19.484  -9.175  1.00  0.00    -0.388 OA
ATOM     23  H11 UNL     1      12.946 -18.871  -9.272  1.00  0.00     0.210 HD
ENDBRANCH   5  22
BRANCH   6  24
HETATM   24  O10 UNL     1      12.166 -19.673  -7.205  1.00  0.00    -0.390 OA
ATOM     25  H10 UNL     1      12.293 -20.319  -7.890  1.00  0.00     0.210 HD
ENDBRANCH   6  24
ENDBRANCH   1   2
BRANCH   1  26
HETATM   26  O2  UNL     1      12.689 -21.468  -5.306  1.00  0.00    -0.385 OA
ATOM     27  H2  UNL     1      13.285 -22.176  -5.093  1.00  0.00     0.210 HD
ENDBRANCH   1  26
BRANCH   1  28
HETATM   28  C9  UNL     1      13.589 -20.438  -3.402  1.00  0.00     0.188 C 
HETATM   29  O3  UNL     1      13.484 -21.552  -2.924  1.00  0.00    -0.292 OA
BRANCH  28  30
HETATM   30  C10 UNL     1      14.206 -19.383  -2.607  1.00  0.00     0.223 C 
BRANCH  30  31
HETATM   31  O4  UNL     1      13.789 -19.395  -1.249  1.00  0.00    -0.386 OA
ATOM     32  H4  UNL     1      13.973 -18.580  -0.796  1.00  0.00     0.210 HD
ENDBRANCH  30  31
BRANCH  30  33
HETATM   33  C11 UNL     1      15.690 -19.327  -2.546  1.00  0.00     0.250 C 
BRANCH  33  34
HETATM   34  N6  UNL     1      16.362 -20.421  -3.241  1.00  0.00    -0.070 N 
ATOM     35  H63 UNL     1      15.678 -21.088  -3.599  1.00  0.00     0.275 HD
ATOM     36  H62 UNL     1      16.762 -20.092  -4.121  1.00  0.00     0.275 HD
ATOM     37  H61 UNL     1      17.070 -20.900  -2.686  1.00  0.00     0.275 HD
ENDBRANCH  33  34
BRANCH  33  38
HETATM   38  C12 UNL     1      16.355 -18.022  -2.762  1.00  0.00     0.180 C 
BRANCH  38  39
HETATM   39  O5  UNL     1      16.579 -17.227  -1.688  1.00  0.00    -0.391 OA
ATOM     40  H5  UNL     1      16.108 -17.411  -0.884  1.00  0.00     0.210 HD
ENDBRANCH  38  39
BRANCH  38  41
HETATM   41  C13 UNL     1      17.610 -18.245  -3.618  1.00  0.00     0.158 C 
HETATM   42  C14 UNL     1      18.627 -17.167  -3.374  1.00  0.00     0.069 C 
HETATM   43  C15 UNL     1      18.259 -15.935  -4.206  1.00  0.00     0.154 C 
HETATM   44  C16 UNL     1      18.397 -16.320  -5.647  1.00  0.00     0.201 C 
HETATM   45  C17 UNL     1      18.121 -17.789  -5.824  1.00  0.00     0.288 C 
HETATM   46  O9  UNL     1      17.166 -18.264  -4.937  1.00  0.00    -0.351 OA
BRANCH  43  47
HETATM   47  O6  UNL     1      19.186 -14.910  -3.960  1.00  0.00    -0.393 OA
ATOM     48  H6  UNL     1      19.179 -14.296  -4.685  1.00  0.00     0.210 HD
ENDBRANCH  43  47
BRANCH  44  49
HETATM   49  O7  UNL     1      19.705 -16.078  -6.065  1.00  0.00    -0.388 OA
ATOM     50  H7  UNL     1      19.689 -15.593  -6.881  1.00  0.00     0.210 HD
ENDBRANCH  44  49
BRANCH  45  51
HETATM   51  O8  UNL     1      17.560 -17.931  -7.113  1.00  0.00    -0.369 OA
ATOM     52  H8  UNL     1      17.174 -18.799  -7.139  1.00  0.00     0.212 HD
ENDBRANCH  45  51
ENDBRANCH  38  41
ENDBRANCH  33  38
ENDBRANCH  30  33
ENDBRANCH  28  30
ENDBRANCH   1  28
TORSDOF 16
ENDMDL
