MODEL 1
REMARK VINA RESULT: -6.240656880      0.000      0.000
REMARK  17 active torsions:
REMARK  status: ('A' for Active; 'I' for Inactive)
REMARK    1  A    between atoms: O1_2  and  C2_3 
REMARK    2  A    between atoms: C3_5  and  O3_6 
REMARK    3  A    between atoms: C3_5  and  C4_8 
REMARK    4  A    between atoms: C4_8  and  N1_9 
REMARK    5  A    between atoms: C8_15  and  O4_16 
REMARK    6  A    between atoms: C8_15  and  C9_18 
REMARK    7  A    between atoms: C9_18  and  O5_19 
REMARK    8  A    between atoms: C9_18  and  C10_21 
REMARK    9  A    between atoms: C10_21  and  O6_22 
REMARK   10  A    between atoms: C11_24  and  O7_25 
REMARK   11  A    between atoms: C12_27  and  O8_28 
REMARK   12  A    between atoms: C12_27  and  C13_30 
REMARK   13  A    between atoms: C14_33  and  C15_34 
REMARK   14  A    between atoms: C14_33  and  C16_37 
REMARK   15  A    between atoms: C15_34  and  O11_35 
REMARK   16  A    between atoms: C17_40  and  O14_41 
REMARK   17  A    between atoms: C18_43  and  O15_44 
ROOT
HETATM    1  N1  UNL     1      18.036 -22.355  -7.682  1.00  0.00    -0.337 N 
HETATM    2  C5  UNL     1      19.357 -22.556  -7.390  1.00  0.00     0.183 A 
HETATM    3  N2  UNL     1      19.826 -21.529  -6.753  1.00  0.00    -0.353 N 
ATOM      4  H2  UNL     1      20.781 -21.414  -6.415  1.00  0.00     0.166 HD
HETATM    5  C6  UNL     1      18.806 -20.628  -6.617  1.00  0.00     0.061 A 
HETATM    6  C7  UNL     1      17.688 -21.164  -7.209  1.00  0.00     0.077 A 
HETATM    7  C8  UNL     1      16.468 -20.324  -7.185  1.00  0.00     0.159 C 
HETATM    8  C11 UNL     1      16.817 -18.879  -7.203  1.00  0.00     0.208 C 
HETATM    9  C12 UNL     1      17.788 -18.391  -6.172  1.00  0.00     0.200 C 
HETATM   10  C14 UNL     1      18.920 -19.292  -5.925  1.00  0.00     0.157 C 
ENDROOT
BRANCH   1  11
HETATM   11  C4  UNL     1      17.245 -23.358  -8.353  1.00  0.00     0.201 C 
BRANCH  11  12
HETATM   12  C3  UNL     1      17.481 -23.561  -9.793  1.00  0.00     0.210 C 
HETATM   13  O2  UNL     1      18.507 -24.482 -10.059  1.00  0.00    -0.318 OA
HETATM   14  C2  UNL     1      18.612 -24.428 -11.439  1.00  0.00     0.294 C 
HETATM   15  C18 UNL     1      17.225 -24.228 -11.994  1.00  0.00     0.207 C 
HETATM   16  C17 UNL     1      16.410 -23.967 -10.699  1.00  0.00     0.215 C 
BRANCH  14  17
HETATM   17  O1  UNL     1      19.483 -23.410 -11.774  1.00  0.00    -0.363 OA
HETATM   18  C1  UNL     1      20.810 -23.754 -11.679  1.00  0.00     0.204 C 
ENDBRANCH  14  17
BRANCH  15  19
HETATM   19  O15 UNL     1      16.705 -25.342 -12.603  1.00  0.00    -0.388 OA
ATOM     20  H15 UNL     1      15.889 -25.183 -13.063  1.00  0.00     0.210 HD
ENDBRANCH  15  19
BRANCH  16  21
HETATM   21  O14 UNL     1      15.578 -22.857 -10.966  1.00  0.00    -0.387 OA
ATOM     22  H14 UNL     1      14.669 -23.128 -10.919  1.00  0.00     0.210 HD
ENDBRANCH  16  21
BRANCH  12  23
HETATM   23  O3  UNL     1      17.984 -22.318 -10.285  1.00  0.00    -0.362 OA
ATOM     24  H3  UNL     1      17.711 -22.296 -11.194  1.00  0.00     0.213 HD
ENDBRANCH  12  23
ENDBRANCH  11  12
ENDBRANCH   1  11
BRANCH   7  25
HETATM   25  O4  UNL     1      15.749 -20.673  -6.026  1.00  0.00    -0.378 OA
ATOM     26  H4  UNL     1      14.983 -20.112  -5.994  1.00  0.00     0.211 HD
ENDBRANCH   7  25
BRANCH   7  27
HETATM   27  C9  UNL     1      15.507 -20.545  -8.322  1.00  0.00     0.185 C 
BRANCH  27  28
HETATM   28  O5  UNL     1      16.059 -20.256  -9.586  1.00  0.00    -0.390 OA
ATOM     29  H5  UNL     1      15.544 -19.637 -10.089  1.00  0.00     0.210 HD
ENDBRANCH  27  28
BRANCH  27  30
HETATM   30  C10 UNL     1      14.394 -19.478  -8.205  1.00  0.00     0.199 C 
BRANCH  30  31
HETATM   31  O6  UNL     1      13.255 -19.949  -7.624  1.00  0.00    -0.398 OA
ATOM     32  H6  UNL     1      13.420 -20.504  -6.870  1.00  0.00     0.209 HD
ENDBRANCH  30  31
ENDBRANCH  27  30
ENDBRANCH   7  27
BRANCH  10  33
HETATM   33  C15 UNL     1      20.208 -18.659  -6.570  1.00  0.00     0.195 C 
BRANCH  33  34
HETATM   34  O11 UNL     1      20.214 -18.893  -7.940  1.00  0.00    -0.399 OA
ATOM     35  H11 UNL     1      20.664 -18.186  -8.386  1.00  0.00     0.209 HD
ENDBRANCH  33  34
ENDBRANCH  10  33
BRANCH  10  36
HETATM   36  C16 UNL     1      19.358 -19.489  -4.528  1.00  0.00     0.194 C 
HETATM   37  O12 UNL     1      20.106 -18.757  -3.914  1.00  0.00    -0.647 OA
HETATM   38  O13 UNL     1      18.861 -20.628  -3.849  1.00  0.00    -0.647 OA
ENDBRANCH  10  36
BRANCH   8  39
HETATM   39  O7  UNL     1      17.218 -18.523  -8.483  1.00  0.00    -0.388 OA
ATOM     40  H7  UNL     1      18.023 -18.980  -8.696  1.00  0.00     0.210 HD
ENDBRANCH   8  39
BRANCH   9  41
HETATM   41  O8  UNL     1      18.367 -17.218  -6.783  1.00  0.00    -0.375 OA
ATOM     42  H8  UNL     1      17.982 -16.500  -6.294  1.00  0.00     0.211 HD
ENDBRANCH   9  41
BRANCH   9  43
HETATM   43  C13 UNL     1      17.061 -17.847  -5.007  1.00  0.00     0.213 C 
HETATM   44  O9  UNL     1      16.058 -18.388  -4.484  1.00  0.00    -0.646 OA
HETATM   45  O10 UNL     1      17.440 -16.644  -4.362  1.00  0.00    -0.646 OA
ENDBRANCH   9  43
TORSDOF 17
ENDMDL
MODEL 2
REMARK VINA RESULT: -5.988924918      3.271      6.423
REMARK  17 active torsions:
REMARK  status: ('A' for Active; 'I' for Inactive)
REMARK    1  A    between atoms: O1_2  and  C2_3 
REMARK    2  A    between atoms: C3_5  and  O3_6 
REMARK    3  A    between atoms: C3_5  and  C4_8 
REMARK    4  A    between atoms: C4_8  and  N1_9 
REMARK    5  A    between atoms: C8_15  and  O4_16 
REMARK    6  A    between atoms: C8_15  and  C9_18 
REMARK    7  A    between atoms: C9_18  and  O5_19 
REMARK    8  A    between atoms: C9_18  and  C10_21 
REMARK    9  A    between atoms: C10_21  and  O6_22 
REMARK   10  A    between atoms: C11_24  and  O7_25 
REMARK   11  A    between atoms: C12_27  and  O8_28 
REMARK   12  A    between atoms: C12_27  and  C13_30 
REMARK   13  A    between atoms: C14_33  and  C15_34 
REMARK   14  A    between atoms: C14_33  and  C16_37 
REMARK   15  A    between atoms: C15_34  and  O11_35 
REMARK   16  A    between atoms: C17_40  and  O14_41 
REMARK   17  A    between atoms: C18_43  and  O15_44 
ROOT
HETATM    1  N1  UNL     1      16.378 -18.290  -4.868  1.00  0.00    -0.337 N 
HETATM    2  C5  UNL     1      16.708 -17.412  -3.872  1.00  0.00     0.183 A 
HETATM    3  N2  UNL     1      17.981 -17.172  -3.905  1.00  0.00    -0.353 N 
ATOM      4  H2  UNL     1      18.494 -16.554  -3.277  1.00  0.00     0.166 HD
HETATM    5  C6  UNL     1      18.512 -17.900  -4.935  1.00  0.00     0.061 A 
HETATM    6  C7  UNL     1      17.488 -18.597  -5.528  1.00  0.00     0.077 A 
HETATM    7  C8  UNL     1      17.864 -19.470  -6.665  1.00  0.00     0.159 C 
HETATM    8  C11 UNL     1      19.249 -19.984  -6.505  1.00  0.00     0.208 C 
HETATM    9  C12 UNL     1      20.334 -18.981  -6.258  1.00  0.00     0.200 C 
HETATM   10  C14 UNL     1      19.968 -17.905  -5.329  1.00  0.00     0.157 C 
ENDROOT
BRANCH   1  11
HETATM   11  C4  UNL     1      15.014 -18.703  -5.095  1.00  0.00     0.201 C 
BRANCH  11  12
HETATM   12  C3  UNL     1      14.392 -19.581  -4.088  1.00  0.00     0.210 C 
HETATM   13  O2  UNL     1      14.449 -19.056  -2.788  1.00  0.00    -0.318 OA
HETATM   14  C2  UNL     1      13.910 -20.077  -2.024  1.00  0.00     0.294 C 
HETATM   15  C18 UNL     1      12.818 -20.725  -2.836  1.00  0.00     0.207 C 
HETATM   16  C17 UNL     1      13.010 -20.038  -4.215  1.00  0.00     0.215 C 
BRANCH  14  17
HETATM   17  O1  UNL     1      14.922 -20.951  -1.681  1.00  0.00    -0.363 OA
HETATM   18  C1  UNL     1      15.008 -21.210  -0.335  1.00  0.00     0.204 C 
ENDBRANCH  14  17
BRANCH  15  19
HETATM   19  O15 UNL     1      11.551 -20.436  -2.393  1.00  0.00    -0.388 OA
ATOM     20  H15 UNL     1      11.212 -19.608  -2.712  1.00  0.00     0.210 HD
ENDBRANCH  15  19
BRANCH  16  21
HETATM   21  O14 UNL     1      12.944 -21.062  -5.185  1.00  0.00    -0.387 OA
ATOM     22  H14 UNL     1      12.775 -20.677  -6.037  1.00  0.00     0.210 HD
ENDBRANCH  16  21
BRANCH  12  23
HETATM   23  O3  UNL     1      15.207 -20.752  -4.035  1.00  0.00    -0.362 OA
ATOM     24  H3  UNL     1      14.956 -21.250  -4.804  1.00  0.00     0.213 HD
ENDBRANCH  12  23
ENDBRANCH  11  12
ENDBRANCH   1  11
BRANCH   7  25
HETATM   25  O4  UNL     1      17.723 -18.704  -7.838  1.00  0.00    -0.378 OA
ATOM     26  H4  UNL     1      17.638 -19.314  -8.561  1.00  0.00     0.211 HD
ENDBRANCH   7  25
BRANCH   7  27
HETATM   27  C9  UNL     1      16.984 -20.672  -6.877  1.00  0.00     0.185 C 
BRANCH  27  28
HETATM   28  O5  UNL     1      17.629 -21.724  -7.557  1.00  0.00    -0.390 OA
ATOM     29  H5  UNL     1      17.265 -22.580  -7.361  1.00  0.00     0.210 HD
ENDBRANCH  27  28
BRANCH  27  30
HETATM   30  C10 UNL     1      15.879 -20.269  -7.882  1.00  0.00     0.199 C 
BRANCH  30  31
HETATM   31  O6  UNL     1      14.705 -20.931  -7.683  1.00  0.00    -0.398 OA
ATOM     32  H6  UNL     1      14.033 -20.701  -8.315  1.00  0.00     0.209 HD
ENDBRANCH  30  31
ENDBRANCH  27  30
ENDBRANCH   7  27
BRANCH  10  33
HETATM   33  C15 UNL     1      20.712 -18.153  -3.964  1.00  0.00     0.195 C 
BRANCH  33  34
HETATM   34  O11 UNL     1      20.030 -19.111  -3.224  1.00  0.00    -0.399 OA
ATOM     35  H11 UNL     1      20.137 -18.937  -2.296  1.00  0.00     0.209 HD
ENDBRANCH  33  34
ENDBRANCH  10  33
BRANCH  10  36
HETATM   36  C16 UNL     1      20.402 -16.530  -5.654  1.00  0.00     0.194 C 
HETATM   37  O12 UNL     1      21.535 -16.108  -5.556  1.00  0.00    -0.647 OA
HETATM   38  O13 UNL     1      19.411 -15.632  -6.119  1.00  0.00    -0.647 OA
ENDBRANCH  10  36
BRANCH   8  39
HETATM   39  O7  UNL     1      19.257 -20.983  -5.542  1.00  0.00    -0.388 OA
ATOM     40  H7  UNL     1      19.910 -21.633  -5.772  1.00  0.00     0.210 HD
ENDBRANCH   8  39
BRANCH   9  41
HETATM   41  O8  UNL     1      21.348 -19.743  -5.569  1.00  0.00    -0.375 OA
ATOM     42  H8  UNL     1      21.271 -19.452  -4.668  1.00  0.00     0.211 HD
ENDBRANCH   9  41
BRANCH   9  43
HETATM   43  C13 UNL     1      20.985 -18.613  -7.531  1.00  0.00     0.213 C 
HETATM   44  O9  UNL     1      20.385 -18.126  -8.518  1.00  0.00    -0.646 OA
HETATM   45  O10 UNL     1      22.374 -18.778  -7.755  1.00  0.00    -0.646 OA
ENDBRANCH   9  43
TORSDOF 17
ENDMDL
MODEL 3
REMARK VINA RESULT: -5.916104084      0.943      1.673
REMARK  17 active torsions:
REMARK  status: ('A' for Active; 'I' for Inactive)
REMARK    1  A    between atoms: O1_2  and  C2_3 
REMARK    2  A    between atoms: C3_5  and  O3_6 
REMARK    3  A    between atoms: C3_5  and  C4_8 
REMARK    4  A    between atoms: C4_8  and  N1_9 
REMARK    5  A    between atoms: C8_15  and  O4_16 
REMARK    6  A    between atoms: C8_15  and  C9_18 
REMARK    7  A    between atoms: C9_18  and  O5_19 
REMARK    8  A    between atoms: C9_18  and  C10_21 
REMARK    9  A    between atoms: C10_21  and  O6_22 
REMARK   10  A    between atoms: C11_24  and  O7_25 
REMARK   11  A    between atoms: C12_27  and  O8_28 
REMARK   12  A    between atoms: C12_27  and  C13_30 
REMARK   13  A    between atoms: C14_33  and  C15_34 
REMARK   14  A    between atoms: C14_33  and  C16_37 
REMARK   15  A    between atoms: C15_34  and  O11_35 
REMARK   16  A    between atoms: C17_40  and  O14_41 
REMARK   17  A    between atoms: C18_43  and  O15_44 
ROOT
HETATM    1  N1  UNL     1      18.521 -22.183  -7.533  1.00  0.00    -0.337 N 
HETATM    2  C5  UNL     1      19.886 -22.133  -7.472  1.00  0.00     0.183 A 
HETATM    3  N2  UNL     1      20.262 -20.982  -7.010  1.00  0.00    -0.353 N 
ATOM      4  H2  UNL     1      21.224 -20.678  -6.861  1.00  0.00     0.166 HD
HETATM    5  C6  UNL     1      19.134 -20.250  -6.759  1.00  0.00     0.061 A 
HETATM    6  C7  UNL     1      18.049 -21.022  -7.096  1.00  0.00     0.077 A 
HETATM    7  C8  UNL     1      16.719 -20.394  -6.914  1.00  0.00     0.159 C 
HETATM    8  C11 UNL     1      16.794 -18.922  -7.104  1.00  0.00     0.208 C 
HETATM    9  C12 UNL     1      17.820 -18.175  -6.306  1.00  0.00     0.200 C 
HETATM   10  C14 UNL     1      19.120 -18.848  -6.202  1.00  0.00     0.157 C 
ENDROOT
BRANCH   1  11
HETATM   11  C4  UNL     1      17.822 -23.367  -7.971  1.00  0.00     0.201 C 
BRANCH  11  12
HETATM   12  C3  UNL     1      17.862 -23.688  -9.409  1.00  0.00     0.210 C 
HETATM   13  O2  UNL     1      17.790 -22.552 -10.230  1.00  0.00    -0.318 OA
HETATM   14  C2  UNL     1      17.740 -23.099 -11.501  1.00  0.00     0.294 C 
HETATM   15  C18 UNL     1      18.611 -24.329 -11.502  1.00  0.00     0.207 C 
HETATM   16  C17 UNL     1      18.950 -24.468  -9.993  1.00  0.00     0.215 C 
BRANCH  14  17
HETATM   17  O1  UNL     1      16.423 -23.367 -11.813  1.00  0.00    -0.363 OA
HETATM   18  C1  UNL     1      16.257 -24.122 -12.949  1.00  0.00     0.204 C 
ENDBRANCH  14  17
BRANCH  15  19
HETATM   19  O15 UNL     1      19.791 -24.173 -12.186  1.00  0.00    -0.388 OA
ATOM     20  H15 UNL     1      19.722 -23.612 -12.950  1.00  0.00     0.210 HD
ENDBRANCH  15  19
BRANCH  16  21
HETATM   21  O14 UNL     1      18.774 -25.831  -9.668  1.00  0.00    -0.387 OA
ATOM     22  H14 UNL     1      18.967 -26.363 -10.431  1.00  0.00     0.210 HD
ENDBRANCH  16  21
BRANCH  12  23
HETATM   23  O3  UNL     1      16.654 -24.401  -9.683  1.00  0.00    -0.362 OA
ATOM     24  H3  UNL     1      16.416 -24.132 -10.562  1.00  0.00     0.213 HD
ENDBRANCH  12  23
ENDBRANCH  11  12
ENDBRANCH   1  11
BRANCH   7  25
HETATM   25  O4  UNL     1      16.276 -20.732  -5.620  1.00  0.00    -0.378 OA
ATOM     26  H4  UNL     1      15.443 -20.296  -5.488  1.00  0.00     0.211 HD
ENDBRANCH   7  25
BRANCH   7  27
HETATM   27  C9  UNL     1      15.637 -20.889  -7.837  1.00  0.00     0.185 C 
BRANCH  27  28
HETATM   28  O5  UNL     1      15.936 -20.699  -9.201  1.00  0.00    -0.390 OA
ATOM     29  H5  UNL     1      16.646 -21.249  -9.511  1.00  0.00     0.210 HD
ENDBRANCH  27  28
BRANCH  27  30
HETATM   30  C10 UNL     1      14.407 -19.971  -7.646  1.00  0.00     0.199 C 
BRANCH  30  31
HETATM   31  O6  UNL     1      13.812 -19.618  -8.820  1.00  0.00    -0.398 OA
ATOM     32  H6  UNL     1      12.961 -20.022  -8.946  1.00  0.00     0.209 HD
ENDBRANCH  30  31
ENDBRANCH  27  30
ENDBRANCH   7  27
BRANCH  10  33
HETATM   33  C15 UNL     1      20.149 -18.085  -7.117  1.00  0.00     0.195 C 
BRANCH  33  34
HETATM   34  O11 UNL     1      19.938 -18.425  -8.448  1.00  0.00    -0.399 OA
ATOM     35  H11 UNL     1      20.165 -17.691  -9.007  1.00  0.00     0.209 HD
ENDBRANCH  33  34
ENDBRANCH  10  33
BRANCH  10  36
HETATM   36  C16 UNL     1      19.812 -18.823  -4.897  1.00  0.00     0.194 C 
HETATM   37  O12 UNL     1      20.519 -17.924  -4.493  1.00  0.00    -0.647 OA
HETATM   38  O13 UNL     1      19.633 -19.942  -4.048  1.00  0.00    -0.647 OA
ENDBRANCH  10  36
BRANCH   8  39
HETATM   39  O7  UNL     1      16.907 -18.642  -8.458  1.00  0.00    -0.388 OA
ATOM     40  H7  UNL     1      16.730 -17.720  -8.602  1.00  0.00     0.210 HD
ENDBRANCH   8  39
BRANCH   9  41
HETATM   41  O8  UNL     1      18.069 -16.995  -7.099  1.00  0.00    -0.375 OA
ATOM     42  H8  UNL     1      17.465 -17.085  -7.827  1.00  0.00     0.211 HD
ENDBRANCH   9  41
BRANCH   9  43
HETATM   43  C13 UNL     1      17.211 -17.638  -5.073  1.00  0.00     0.213 C 
HETATM   44  O9  UNL     1      16.412 -18.272  -4.343  1.00  0.00    -0.646 OA
HETATM   45  O10 UNL     1      17.481 -16.333  -4.592  1.00  0.00    -0.646 OA
ENDBRANCH   9  43
TORSDOF 17
ENDMDL
MODEL 4
REMARK VINA RESULT: -5.817010906      3.172      5.479
REMARK  17 active torsions:
REMARK  status: ('A' for Active; 'I' for Inactive)
REMARK    1  A    between atoms: O1_2  and  C2_3 
REMARK    2  A    between atoms: C3_5  and  O3_6 
REMARK    3  A    between atoms: C3_5  and  C4_8 
REMARK    4  A    between atoms: C4_8  and  N1_9 
REMARK    5  A    between atoms: C8_15  and  O4_16 
REMARK    6  A    between atoms: C8_15  and  C9_18 
REMARK    7  A    between atoms: C9_18  and  O5_19 
REMARK    8  A    between atoms: C9_18  and  C10_21 
REMARK    9  A    between atoms: C10_21  and  O6_22 
REMARK   10  A    between atoms: C11_24  and  O7_25 
REMARK   11  A    between atoms: C12_27  and  O8_28 
REMARK   12  A    between atoms: C12_27  and  C13_30 
REMARK   13  A    between atoms: C14_33  and  C15_34 
REMARK   14  A    between atoms: C14_33  and  C16_37 
REMARK   15  A    between atoms: C15_34  and  O11_35 
REMARK   16  A    between atoms: C17_40  and  O14_41 
REMARK   17  A    between atoms: C18_43  and  O15_44 
ROOT
HETATM    1  N1  UNL     1      15.517 -19.403  -4.883  1.00  0.00    -0.337 N 
HETATM    2  C5  UNL     1      14.558 -20.289  -4.477  1.00  0.00     0.183 A 
HETATM    3  N2  UNL     1      14.654 -20.483  -3.199  1.00  0.00    -0.353 N 
ATOM      4  H2  UNL     1      14.063 -21.094  -2.636  1.00  0.00     0.166 HD
HETATM    5  C6  UNL     1      15.693 -19.718  -2.743  1.00  0.00     0.061 A 
HETATM    6  C7  UNL     1      16.224 -19.047  -3.817  1.00  0.00     0.077 A 
HETATM    7  C8  UNL     1      17.385 -18.171  -3.533  1.00  0.00     0.159 C 
HETATM    8  C11 UNL     1      18.181 -18.697  -2.393  1.00  0.00     0.208 C 
HETATM    9  C12 UNL     1      17.449 -18.997  -1.120  1.00  0.00     0.200 C 
HETATM   10  C14 UNL     1      16.143 -19.642  -1.306  1.00  0.00     0.157 C 
ENDROOT
BRANCH   1  11
HETATM   11  C4  UNL     1      15.617 -18.968  -6.256  1.00  0.00     0.201 C 
BRANCH  11  12
HETATM   12  C3  UNL     1      16.332 -19.847  -7.198  1.00  0.00     0.210 C 
HETATM   13  O2  UNL     1      17.352 -20.594  -6.590  1.00  0.00    -0.318 OA
HETATM   14  C2  UNL     1      17.932 -21.247  -7.665  1.00  0.00     0.294 C 
HETATM   15  C18 UNL     1      16.833 -21.588  -8.637  1.00  0.00     0.207 C 
HETATM   16  C17 UNL     1      15.628 -20.828  -8.019  1.00  0.00     0.215 C 
BRANCH  14  17
HETATM   17  O1  UNL     1      18.901 -20.426  -8.206  1.00  0.00    -0.363 OA
HETATM   18  C1  UNL     1      20.076 -20.400  -7.495  1.00  0.00     0.204 C 
ENDBRANCH  14  17
BRANCH  15  19
HETATM   19  O15 UNL     1      16.516 -22.923  -8.672  1.00  0.00    -0.388 OA
ATOM     20  H15 UNL     1      15.621 -23.100  -8.935  1.00  0.00     0.210 HD
ENDBRANCH  15  19
BRANCH  16  21
HETATM   21  O14 UNL     1      14.982 -20.167  -9.087  1.00  0.00    -0.387 OA
ATOM     22  H14 UNL     1      15.011 -19.229  -8.939  1.00  0.00     0.210 HD
ENDBRANCH  16  21
BRANCH  12  23
HETATM   23  O3  UNL     1      17.018 -18.976  -8.099  1.00  0.00    -0.362 OA
ATOM     24  H3  UNL     1      16.330 -18.605  -8.639  1.00  0.00     0.213 HD
ENDBRANCH  12  23
ENDBRANCH  11  12
ENDBRANCH   1  11
BRANCH   7  25
HETATM   25  O4  UNL     1      16.876 -16.886  -3.266  1.00  0.00    -0.378 OA
ATOM     26  H4  UNL     1      17.545 -16.262  -3.521  1.00  0.00     0.211 HD
ENDBRANCH   7  25
BRANCH   7  27
HETATM   27  C9  UNL     1      18.347 -17.980  -4.673  1.00  0.00     0.185 C 
BRANCH  27  28
HETATM   28  O5  UNL     1      19.656 -17.665  -4.254  1.00  0.00    -0.390 OA
ATOM     29  H5  UNL     1      19.719 -16.824  -3.818  1.00  0.00     0.210 HD
ENDBRANCH  27  28
BRANCH  27  30
HETATM   30  C10 UNL     1      17.931 -16.693  -5.423  1.00  0.00     0.199 C 
BRANCH  30  31
HETATM   31  O6  UNL     1      18.644 -15.595  -5.044  1.00  0.00    -0.398 OA
ATOM     32  H6  UNL     1      18.121 -14.947  -4.586  1.00  0.00     0.209 HD
ENDBRANCH  30  31
ENDBRANCH  27  30
ENDBRANCH   7  27
BRANCH  10  33
HETATM   33  C15 UNL     1      16.271 -21.153  -0.885  1.00  0.00     0.195 C 
BRANCH  33  34
HETATM   34  O11 UNL     1      16.890 -21.873  -1.899  1.00  0.00    -0.399 OA
ATOM     35  H11 UNL     1      17.804 -22.014  -1.683  1.00  0.00     0.209 HD
ENDBRANCH  33  34
ENDBRANCH  10  33
BRANCH  10  36
HETATM   36  C16 UNL     1      15.022 -19.194  -0.455  1.00  0.00     0.194 C 
HETATM   37  O12 UNL     1      14.515 -18.092  -0.479  1.00  0.00    -0.647 OA
HETATM   38  O13 UNL     1      14.493 -20.132   0.465  1.00  0.00    -0.647 OA
ENDBRANCH  10  36
BRANCH   8  39
HETATM   39  O7  UNL     1      18.921 -19.790  -2.819  1.00  0.00    -0.388 OA
ATOM     40  H7  UNL     1      19.830 -19.533  -2.917  1.00  0.00     0.210 HD
ENDBRANCH   8  39
BRANCH   9  41
HETATM   41  O8  UNL     1      18.275 -19.996  -0.485  1.00  0.00    -0.375 OA
ATOM     42  H8  UNL     1      17.707 -20.359   0.186  1.00  0.00     0.211 HD
ENDBRANCH   9  41
BRANCH   9  43
HETATM   43  C13 UNL     1      17.535 -17.845  -0.201  1.00  0.00     0.213 C 
HETATM   44  O9  UNL     1      17.557 -16.646  -0.569  1.00  0.00    -0.646 OA
HETATM   45  O10 UNL     1      17.600 -17.992   1.206  1.00  0.00    -0.646 OA
ENDBRANCH   9  43
TORSDOF 17
ENDMDL
MODEL 5
REMARK VINA RESULT: -5.740446562      1.277      1.383
REMARK  17 active torsions:
REMARK  status: ('A' for Active; 'I' for Inactive)
REMARK    1  A    between atoms: O1_2  and  C2_3 
REMARK    2  A    between atoms: C3_5  and  O3_6 
REMARK    3  A    between atoms: C3_5  and  C4_8 
REMARK    4  A    between atoms: C4_8  and  N1_9 
REMARK    5  A    between atoms: C8_15  and  O4_16 
REMARK    6  A    between atoms: C8_15  and  C9_18 
REMARK    7  A    between atoms: C9_18  and  O5_19 
REMARK    8  A    between atoms: C9_18  and  C10_21 
REMARK    9  A    between atoms: C10_21  and  O6_22 
REMARK   10  A    between atoms: C11_24  and  O7_25 
REMARK   11  A    between atoms: C12_27  and  O8_28 
REMARK   12  A    between atoms: C12_27  and  C13_30 
REMARK   13  A    between atoms: C14_33  and  C15_34 
REMARK   14  A    between atoms: C14_33  and  C16_37 
REMARK   15  A    between atoms: C15_34  and  O11_35 
REMARK   16  A    between atoms: C17_40  and  O14_41 
REMARK   17  A    between atoms: C18_43  and  O15_44 
ROOT
HETATM    1  N1  UNL     1      17.629 -21.782  -7.143  1.00  0.00    -0.337 N 
HETATM    2  C5  UNL     1      18.941 -21.908  -6.778  1.00  0.00     0.183 A 
HETATM    3  N2  UNL     1      19.238 -21.006  -5.896  1.00  0.00    -0.353 N 
ATOM      4  H2  UNL     1      20.146 -20.873  -5.453  1.00  0.00     0.166 HD
HETATM    5  C6  UNL     1      18.110 -20.265  -5.669  1.00  0.00     0.061 A 
HETATM    6  C7  UNL     1      17.109 -20.768  -6.463  1.00  0.00     0.077 A 
HETATM    7  C8  UNL     1      15.799 -20.082  -6.377  1.00  0.00     0.159 C 
HETATM    8  C11 UNL     1      15.973 -18.641  -6.055  1.00  0.00     0.208 C 
HETATM    9  C12 UNL     1      16.804 -18.297  -4.857  1.00  0.00     0.200 C 
HETATM   10  C14 UNL     1      18.015 -19.111  -4.702  1.00  0.00     0.157 C 
ENDROOT
BRANCH   1  11
HETATM   11  C4  UNL     1      17.012 -22.688  -8.084  1.00  0.00     0.201 C 
BRANCH  11  12
HETATM   12  C3  UNL     1      17.514 -22.676  -9.469  1.00  0.00     0.210 C 
HETATM   13  O2  UNL     1      18.280 -23.808  -9.788  1.00  0.00    -0.318 OA
HETATM   14  C2  UNL     1      18.716 -23.528 -11.072  1.00  0.00     0.294 C 
HETATM   15  C18 UNL     1      17.606 -22.791 -11.778  1.00  0.00     0.207 C 
HETATM   16  C17 UNL     1      16.615 -22.536 -10.611  1.00  0.00     0.215 C 
BRANCH  14  17
HETATM   17  O1  UNL     1      19.885 -22.799 -10.990  1.00  0.00    -0.363 OA
HETATM   18  C1  UNL     1      21.013 -23.509 -11.325  1.00  0.00     0.204 C 
ENDBRANCH  14  17
BRANCH  15  19
HETATM   19  O15 UNL     1      16.958 -23.541 -12.727  1.00  0.00    -0.388 OA
ATOM     20  H15 UNL     1      16.130 -23.171 -13.010  1.00  0.00     0.210 HD
ENDBRANCH  15  19
BRANCH  16  21
HETATM   21  O14 UNL     1      16.206 -21.188 -10.721  1.00  0.00    -0.387 OA
ATOM     22  H14 UNL     1      15.290 -21.117 -10.480  1.00  0.00     0.210 HD
ENDBRANCH  16  21
BRANCH  12  23
HETATM   23  O3  UNL     1      18.438 -21.590  -9.540  1.00  0.00    -0.362 OA
ATOM     24  H3  UNL     1      18.007 -20.948 -10.091  1.00  0.00     0.213 HD
ENDBRANCH  12  23
ENDBRANCH  11  12
ENDBRANCH   1  11
BRANCH   7  25
HETATM   25  O4  UNL     1      15.047 -20.750  -5.392  1.00  0.00    -0.378 OA
ATOM     26  H4  UNL     1      14.406 -20.131  -5.063  1.00  0.00     0.211 HD
ENDBRANCH   7  25
BRANCH   7  27
HETATM   27  C9  UNL     1      14.952 -20.142  -7.620  1.00  0.00     0.185 C 
BRANCH  27  28
HETATM   28  O5  UNL     1      15.535 -19.491  -8.726  1.00  0.00    -0.390 OA
ATOM     29  H5  UNL     1      14.913 -18.985  -9.236  1.00  0.00     0.210 HD
ENDBRANCH  27  28
BRANCH  27  30
HETATM   30  C10 UNL     1      13.692 -19.282  -7.367  1.00  0.00     0.199 C 
BRANCH  30  31
HETATM   31  O6  UNL     1      12.561 -20.023  -7.195  1.00  0.00    -0.398 OA
ATOM     32  H6  UNL     1      11.933 -19.617  -6.608  1.00  0.00     0.209 HD
ENDBRANCH  30  31
ENDBRANCH  27  30
ENDBRANCH   7  27
BRANCH  10  33
HETATM   33  C15 UNL     1      19.261 -18.223  -5.073  1.00  0.00     0.195 C 
BRANCH  33  34
HETATM   34  O11 UNL     1      19.393 -18.152  -6.455  1.00  0.00    -0.399 OA
ATOM     35  H11 UNL     1      20.308 -18.040  -6.685  1.00  0.00     0.209 HD
ENDBRANCH  33  34
ENDBRANCH  10  33
BRANCH  10  36
HETATM   36  C16 UNL     1      18.375 -19.568  -3.344  1.00  0.00     0.194 C 
HETATM   37  O12 UNL     1      19.093 -18.972  -2.567  1.00  0.00    -0.647 OA
HETATM   38  O13 UNL     1      17.836 -20.804  -2.912  1.00  0.00    -0.647 OA
ENDBRANCH  10  36
BRANCH   8  39
HETATM   39  O7  UNL     1      16.417 -17.972  -7.187  1.00  0.00    -0.388 OA
ATOM     40  H7  UNL     1      15.722 -17.960  -7.835  1.00  0.00     0.210 HD
ENDBRANCH   8  39
BRANCH   9  41
HETATM   41  O8  UNL     1      17.280 -16.966  -5.148  1.00  0.00    -0.375 OA
ATOM     42  H8  UNL     1      16.801 -16.420  -4.536  1.00  0.00     0.211 HD
ENDBRANCH   9  41
BRANCH   9  43
HETATM   43  C13 UNL     1      15.938 -18.102  -3.677  1.00  0.00     0.213 C 
HETATM   44  O9  UNL     1      14.815 -18.639  -3.527  1.00  0.00    -0.646 OA
HETATM   45  O10 UNL     1      16.305 -17.275  -2.587  1.00  0.00    -0.646 OA
ENDBRANCH   9  43
TORSDOF 17
ENDMDL
