MODEL 1
REMARK VINA RESULT: -8.169408355      0.000      0.000
REMARK  14 active torsions:
REMARK  status: ('A' for Active; 'I' for Inactive)
REMARK    1  A    between atoms: N1_1  and  C1_4 
REMARK    2  A    between atoms: N3_8  and  C3_9 
REMARK    3  A    between atoms: C3_9  and  C4_10 
REMARK    4  A    between atoms: C4_10  and  C5_11 
REMARK    5  A    between atoms: C5_11  and  C6_12 
REMARK    6  A    between atoms: C6_12  and  N4_13 
REMARK    7  A    between atoms: N4_13  and  C7_16 
REMARK    8  A    between atoms: C7_16  and  C8_17 
REMARK    9  A    between atoms: C8_17  and  C9_18 
REMARK   10  A    between atoms: C10_19  and  C11_20 
REMARK   11  A    between atoms: C11_20  and  N5_21 
REMARK   12  A    between atoms: N5_21  and  C12_23 
REMARK   13  A    between atoms: C12_23  and  C13_24 
REMARK   14  A    between atoms: C19_32  and  N6_33 
ROOT
HETATM    1  N4  UNL     1       1.827 -35.626  20.780  1.00  0.00    -0.075 N 
ATOM      2  H41 UNL     1       1.796 -36.400  20.116  1.00  0.00     0.277 HD
ATOM      3  H42 UNL     1       2.436 -36.069  21.469  1.00  0.00     0.277 HD
ENDROOT
BRANCH   1   4
HETATM    4  C6  UNL     1       0.522 -35.282  21.314  1.00  0.00     0.232 C 
BRANCH   4   5
HETATM    5  C5  UNL     1      -0.522 -36.340  21.155  1.00  0.00     0.029 C 
BRANCH   5   6
HETATM    6  C4  UNL     1       0.010 -37.492  20.362  1.00  0.00     0.022 C 
BRANCH   6   7
HETATM    7  C3  UNL     1      -0.605 -38.785  20.752  1.00  0.00     0.148 C 
BRANCH   7   8
HETATM    8  N3  UNL     1       0.293 -39.786  21.238  1.00  0.00    -0.179 N 
HETATM    9  C2  UNL     1       1.546 -39.821  20.757  1.00  0.00     0.218 A 
HETATM   10  N2  UNL     1       2.495 -40.709  21.183  1.00  0.00    -0.187 N 
HETATM   11  C1  UNL     1       2.133 -41.572  22.123  1.00  0.00     0.691 A 
ATOM     12  H2  UNL     1       3.439 -40.707  20.795  1.00  0.00     0.185 HD
HETATM   13  N7  UNL     1       0.892 -41.558  22.623  1.00  0.00    -0.023 N 
HETATM   14  C19 UNL     1      -0.042 -40.681  22.197  1.00  0.00     0.693 A 
ATOM     15  H7  UNL     1       0.643 -42.231  23.348  1.00  0.00     0.203 HD
BRANCH  11  16
HETATM   16  N1  UNL     1       3.000 -42.413  22.586  1.00  0.00    -0.234 N 
ATOM     17  H12 UNL     1       3.417 -42.254  23.503  1.00  0.00     0.174 HD
ATOM     18  H11 UNL     1       3.279 -43.213  22.018  1.00  0.00     0.174 HD
ENDBRANCH  11  16
BRANCH  14  19
HETATM   19  N6  UNL     1      -1.230 -40.730  22.698  1.00  0.00    -0.234 N 
ATOM     20  H62 UNL     1      -2.019 -40.391  22.148  1.00  0.00     0.174 HD
ATOM     21  H61 UNL     1      -1.404 -41.085  23.638  1.00  0.00     0.174 HD
ENDBRANCH  14  19
ENDBRANCH   7   8
ENDBRANCH   6   7
ENDBRANCH   5   6
ENDBRANCH   4   5
ENDBRANCH   1   4
BRANCH   1  22
HETATM   22  C7  UNL     1       2.405 -34.393  20.204  1.00  0.00     0.236 C 
BRANCH  22  23
HETATM   23  C8  UNL     1       3.145 -34.704  18.936  1.00  0.00     0.054 C 
BRANCH  23  24
HETATM   24  C9  UNL     1       2.361 -34.710  17.681  1.00  0.00    -0.024 C 
HETATM   25  C10 UNL     1       2.527 -33.832  16.573  1.00  0.00     0.013 C 
BRANCH  25  26
HETATM   26  C11 UNL     1       2.628 -32.392  16.441  1.00  0.00     0.083 C 
BRANCH  26  27
HETATM   27  N5  UNL     1       1.512 -31.617  16.078  1.00  0.00    -0.395 N 
ATOM     28  H5  UNL     1       1.606 -30.805  15.467  1.00  0.00     0.159 HD
BRANCH  27  29
HETATM   29  C12 UNL     1       0.223 -32.014  16.605  1.00  0.00     0.159 C 
BRANCH  29  30
HETATM   30  C13 UNL     1       0.049 -31.616  18.023  1.00  0.00    -0.017 A 
HETATM   31  C14 UNL     1       0.506 -30.387  18.457  1.00  0.00     0.034 A 
HETATM   32  C15 UNL     1       0.443 -30.005  19.778  1.00  0.00     0.034 A 
HETATM   33 CL1  UNL     1       1.056 -28.467  20.347  1.00  0.00    -0.084 Cl
HETATM   34  C16 UNL     1      -0.116 -30.936  20.663  1.00  0.00     0.025 A 
HETATM   35  C17 UNL     1      -0.568 -32.156  20.224  1.00  0.00     0.026 A 
HETATM   36  C18 UNL     1      -0.501 -32.527  18.905  1.00  0.00     0.042 A 
HETATM   37 CL2  UNL     1      -1.130 -34.058  18.333  1.00  0.00    -0.084 Cl
ENDBRANCH  29  30
ENDBRANCH  27  29
ENDBRANCH  26  27
ENDBRANCH  25  26
ENDBRANCH  23  24
ENDBRANCH  22  23
ENDBRANCH   1  22
TORSDOF 14
ENDMDL
MODEL 2
REMARK VINA RESULT: -8.097575606      3.114      5.321
REMARK  14 active torsions:
REMARK  status: ('A' for Active; 'I' for Inactive)
REMARK    1  A    between atoms: N1_1  and  C1_4 
REMARK    2  A    between atoms: N3_8  and  C3_9 
REMARK    3  A    between atoms: C3_9  and  C4_10 
REMARK    4  A    between atoms: C4_10  and  C5_11 
REMARK    5  A    between atoms: C5_11  and  C6_12 
REMARK    6  A    between atoms: C6_12  and  N4_13 
REMARK    7  A    between atoms: N4_13  and  C7_16 
REMARK    8  A    between atoms: C7_16  and  C8_17 
REMARK    9  A    between atoms: C8_17  and  C9_18 
REMARK   10  A    between atoms: C10_19  and  C11_20 
REMARK   11  A    between atoms: C11_20  and  N5_21 
REMARK   12  A    between atoms: N5_21  and  C12_23 
REMARK   13  A    between atoms: C12_23  and  C13_24 
REMARK   14  A    between atoms: C19_32  and  N6_33 
ROOT
HETATM    1  N4  UNL     1      -2.396 -35.825  14.846  1.00  0.00    -0.075 N 
ATOM      2  H41 UNL     1      -3.186 -36.320  14.433  1.00  0.00     0.277 HD
ATOM      3  H42 UNL     1      -1.837 -35.736  13.997  1.00  0.00     0.277 HD
ENDROOT
BRANCH   1   4
HETATM    4  C6  UNL     1      -1.730 -36.586  15.888  1.00  0.00     0.232 C 
BRANCH   4   5
HETATM    5  C5  UNL     1      -0.454 -35.989  16.385  1.00  0.00     0.029 C 
BRANCH   5   6
HETATM    6  C4  UNL     1       0.513 -37.061  16.780  1.00  0.00     0.022 C 
BRANCH   6   7
HETATM    7  C3  UNL     1       1.805 -36.515  17.263  1.00  0.00     0.148 C 
BRANCH   7   8
HETATM    8  N3  UNL     1       1.784 -35.906  18.556  1.00  0.00    -0.179 N 
HETATM    9  C2  UNL     1       1.060 -36.479  19.531  1.00  0.00     0.218 A 
HETATM   10  N2  UNL     1       1.004 -36.002  20.812  1.00  0.00    -0.187 N 
HETATM   11  C1  UNL     1       1.713 -34.914  21.080  1.00  0.00     0.691 A 
ATOM     12  H2  UNL     1       0.443 -36.464  21.528  1.00  0.00     0.185 HD
HETATM   13  N7  UNL     1       2.446 -34.323  20.129  1.00  0.00    -0.023 N 
HETATM   14  C19 UNL     1       2.496 -34.796  18.866  1.00  0.00     0.693 A 
ATOM     15  H7  UNL     1       2.984 -33.489  20.366  1.00  0.00     0.203 HD
BRANCH  11  16
HETATM   16  N1  UNL     1       1.723 -34.438  22.283  1.00  0.00    -0.234 N 
ATOM     17  H12 UNL     1       1.041 -33.728  22.550  1.00  0.00     0.174 HD
ATOM     18  H11 UNL     1       2.430 -34.758  22.946  1.00  0.00     0.174 HD
ENDBRANCH  11  16
BRANCH  14  19
HETATM   19  N6  UNL     1       3.200 -34.171  17.984  1.00  0.00    -0.234 N 
ATOM     20  H62 UNL     1       2.791 -33.963  17.073  1.00  0.00     0.174 HD
ATOM     21  H61 UNL     1       4.164 -33.891  18.165  1.00  0.00     0.174 HD
ENDBRANCH  14  19
ENDBRANCH   7   8
ENDBRANCH   6   7
ENDBRANCH   5   6
ENDBRANCH   4   5
ENDBRANCH   1   4
BRANCH   1  22
HETATM   22  C7  UNL     1      -2.773 -34.520  15.431  1.00  0.00     0.236 C 
BRANCH  22  23
HETATM   23  C8  UNL     1      -2.425 -33.404  14.489  1.00  0.00     0.054 C 
BRANCH  23  24
HETATM   24  C9  UNL     1      -2.045 -32.107  15.091  1.00  0.00    -0.024 C 
HETATM   25  C10 UNL     1      -0.805 -31.428  14.928  1.00  0.00     0.013 C 
BRANCH  25  26
HETATM   26  C11 UNL     1       0.582 -31.831  15.049  1.00  0.00     0.083 C 
BRANCH  26  27
HETATM   27  N5  UNL     1       1.167 -32.046  16.311  1.00  0.00    -0.395 N 
ATOM     28  H5  UNL     1       1.751 -32.863  16.492  1.00  0.00     0.159 HD
BRANCH  27  29
HETATM   29  C12 UNL     1       0.910 -31.063  17.343  1.00  0.00     0.159 C 
BRANCH  29  30
HETATM   30  C13 UNL     1       0.264 -31.660  18.537  1.00  0.00    -0.017 A 
HETATM   31  C14 UNL     1      -0.489 -32.812  18.413  1.00  0.00     0.034 A 
HETATM   32  C15 UNL     1      -1.176 -33.358  19.474  1.00  0.00     0.034 A 
HETATM   33 CL1  UNL     1      -2.166 -34.793  19.320  1.00  0.00    -0.084 Cl
HETATM   34  C16 UNL     1      -1.065 -32.679  20.694  1.00  0.00     0.025 A 
HETATM   35  C17 UNL     1      -0.315 -31.535  20.810  1.00  0.00     0.026 A 
HETATM   36  C18 UNL     1       0.365 -30.999  19.747  1.00  0.00     0.042 A 
HETATM   37 CL2  UNL     1       1.371 -29.574  19.904  1.00  0.00    -0.084 Cl
ENDBRANCH  29  30
ENDBRANCH  27  29
ENDBRANCH  26  27
ENDBRANCH  25  26
ENDBRANCH  23  24
ENDBRANCH  22  23
ENDBRANCH   1  22
TORSDOF 14
ENDMDL
MODEL 3
REMARK VINA RESULT: -7.907976461      1.931      2.538
REMARK  14 active torsions:
REMARK  status: ('A' for Active; 'I' for Inactive)
REMARK    1  A    between atoms: N1_1  and  C1_4 
REMARK    2  A    between atoms: N3_8  and  C3_9 
REMARK    3  A    between atoms: C3_9  and  C4_10 
REMARK    4  A    between atoms: C4_10  and  C5_11 
REMARK    5  A    between atoms: C5_11  and  C6_12 
REMARK    6  A    between atoms: C6_12  and  N4_13 
REMARK    7  A    between atoms: N4_13  and  C7_16 
REMARK    8  A    between atoms: C7_16  and  C8_17 
REMARK    9  A    between atoms: C8_17  and  C9_18 
REMARK   10  A    between atoms: C10_19  and  C11_20 
REMARK   11  A    between atoms: C11_20  and  N5_21 
REMARK   12  A    between atoms: N5_21  and  C12_23 
REMARK   13  A    between atoms: C12_23  and  C13_24 
REMARK   14  A    between atoms: C19_32  and  N6_33 
ROOT
HETATM    1  N4  UNL     1       1.185 -34.708  21.855  1.00  0.00    -0.075 N 
ATOM      2  H41 UNL     1       1.278 -35.367  22.628  1.00  0.00     0.277 HD
ATOM      3  H42 UNL     1       0.954 -33.885  22.412  1.00  0.00     0.277 HD
ENDROOT
BRANCH   1   4
HETATM    4  C6  UNL     1       0.137 -35.074  20.920  1.00  0.00     0.232 C 
BRANCH   4   5
HETATM    5  C5  UNL     1      -0.540 -36.374  21.209  1.00  0.00     0.029 C 
BRANCH   5   6
HETATM    6  C4  UNL     1       0.096 -37.485  20.434  1.00  0.00     0.022 C 
BRANCH   6   7
HETATM    7  C3  UNL     1      -0.519 -38.804  20.720  1.00  0.00     0.148 C 
BRANCH   7   8
HETATM    8  N3  UNL     1       0.362 -39.814  21.219  1.00  0.00    -0.179 N 
HETATM    9  C2  UNL     1       1.610 -39.884  20.727  1.00  0.00     0.218 A 
HETATM   10  N2  UNL     1       2.545 -40.782  21.162  1.00  0.00    -0.187 N 
HETATM   11  C1  UNL     1       2.174 -41.618  22.123  1.00  0.00     0.691 A 
ATOM     12  H2  UNL     1       3.485 -40.808  20.766  1.00  0.00     0.185 HD
HETATM   13  N7  UNL     1       0.938 -41.569  22.634  1.00  0.00    -0.023 N 
HETATM   14  C19 UNL     1       0.019 -40.682  22.199  1.00  0.00     0.693 A 
ATOM     15  H7  UNL     1       0.683 -42.222  23.375  1.00  0.00     0.203 HD
BRANCH  11  16
HETATM   16  N1  UNL     1       3.028 -42.468  22.596  1.00  0.00    -0.234 N 
ATOM     17  H12 UNL     1       3.730 -42.874  21.977  1.00  0.00     0.174 HD
ATOM     18  H11 UNL     1       2.975 -42.743  23.577  1.00  0.00     0.174 HD
ENDBRANCH  11  16
BRANCH  14  19
HETATM   19  N6  UNL     1      -1.166 -40.697  22.711  1.00  0.00    -0.234 N 
ATOM     20  H62 UNL     1      -1.568 -41.583  23.015  1.00  0.00     0.174 HD
ATOM     21  H61 UNL     1      -1.720 -39.846  22.807  1.00  0.00     0.174 HD
ENDBRANCH  14  19
ENDBRANCH   7   8
ENDBRANCH   6   7
ENDBRANCH   5   6
ENDBRANCH   4   5
ENDBRANCH   1   4
BRANCH   1  22
HETATM   22  C7  UNL     1       2.432 -34.550  21.077  1.00  0.00     0.236 C 
BRANCH  22  23
HETATM   23  C8  UNL     1       2.120 -34.189  19.654  1.00  0.00     0.054 C 
BRANCH  23  24
HETATM   24  C9  UNL     1       2.689 -35.054  18.597  1.00  0.00    -0.024 C 
HETATM   25  C10 UNL     1       2.040 -35.470  17.401  1.00  0.00     0.013 C 
BRANCH  25  26
HETATM   26  C11 UNL     1       0.747 -36.062  17.117  1.00  0.00     0.083 C 
BRANCH  26  27
HETATM   27  N5  UNL     1      -0.445 -35.407  17.476  1.00  0.00    -0.395 N 
ATOM     28  H5  UNL     1      -0.728 -35.319  18.453  1.00  0.00     0.159 HD
BRANCH  27  29
HETATM   29  C12 UNL     1      -1.257 -34.863  16.408  1.00  0.00     0.159 C 
BRANCH  29  30
HETATM   30  C13 UNL     1      -1.007 -33.416  16.195  1.00  0.00    -0.017 A 
HETATM   31  C14 UNL     1      -0.231 -32.709  17.093  1.00  0.00     0.034 A 
HETATM   32  C15 UNL     1      -0.039 -31.350  16.985  1.00  0.00     0.034 A 
HETATM   33 CL1  UNL     1       0.908 -30.436  18.140  1.00  0.00    -0.084 Cl
HETATM   34  C16 UNL     1      -0.674 -30.721  15.907  1.00  0.00     0.025 A 
HETATM   35  C17 UNL     1      -1.443 -31.431  15.019  1.00  0.00     0.026 A 
HETATM   36  C18 UNL     1      -1.629 -32.785  15.135  1.00  0.00     0.042 A 
HETATM   37 CL2  UNL     1      -2.561 -33.702  13.970  1.00  0.00    -0.084 Cl
ENDBRANCH  29  30
ENDBRANCH  27  29
ENDBRANCH  26  27
ENDBRANCH  25  26
ENDBRANCH  23  24
ENDBRANCH  22  23
ENDBRANCH   1  22
TORSDOF 14
ENDMDL
MODEL 4
REMARK VINA RESULT: -7.901596954      2.009      3.160
REMARK  14 active torsions:
REMARK  status: ('A' for Active; 'I' for Inactive)
REMARK    1  A    between atoms: N1_1  and  C1_4 
REMARK    2  A    between atoms: N3_8  and  C3_9 
REMARK    3  A    between atoms: C3_9  and  C4_10 
REMARK    4  A    between atoms: C4_10  and  C5_11 
REMARK    5  A    between atoms: C5_11  and  C6_12 
REMARK    6  A    between atoms: C6_12  and  N4_13 
REMARK    7  A    between atoms: N4_13  and  C7_16 
REMARK    8  A    between atoms: C7_16  and  C8_17 
REMARK    9  A    between atoms: C8_17  and  C9_18 
REMARK   10  A    between atoms: C10_19  and  C11_20 
REMARK   11  A    between atoms: C11_20  and  N5_21 
REMARK   12  A    between atoms: N5_21  and  C12_23 
REMARK   13  A    between atoms: C12_23  and  C13_24 
REMARK   14  A    between atoms: C19_32  and  N6_33 
ROOT
HETATM    1  N4  UNL     1      -1.875 -34.571  19.043  1.00  0.00    -0.075 N 
ATOM      2  H41 UNL     1      -1.147 -33.858  19.078  1.00  0.00     0.277 HD
ATOM      3  H42 UNL     1      -2.662 -33.969  19.288  1.00  0.00     0.277 HD
ENDROOT
BRANCH   1   4
HETATM    4  C6  UNL     1      -1.665 -35.646  19.995  1.00  0.00     0.232 C 
BRANCH   4   5
HETATM    5  C5  UNL     1      -0.774 -36.746  19.515  1.00  0.00     0.029 C 
BRANCH   5   6
HETATM    6  C4  UNL     1      -0.163 -37.475  20.671  1.00  0.00     0.022 C 
BRANCH   6   7
HETATM    7  C3  UNL     1      -0.699 -38.849  20.826  1.00  0.00     0.148 C 
BRANCH   7   8
HETATM    8  N3  UNL     1       0.228 -39.836  21.289  1.00  0.00    -0.179 N 
HETATM    9  C2  UNL     1       1.465 -39.855  20.769  1.00  0.00     0.218 A 
HETATM   10  N2  UNL     1       2.439 -40.728  21.168  1.00  0.00    -0.187 N 
HETATM   11  C1  UNL     1       2.119 -41.591  22.123  1.00  0.00     0.691 A 
ATOM     12  H2  UNL     1       3.370 -40.716  20.751  1.00  0.00     0.185 HD
HETATM   13  N7  UNL     1       0.894 -41.592  22.662  1.00  0.00    -0.023 N 
HETATM   14  C19 UNL     1      -0.065 -40.731  22.262  1.00  0.00     0.693 A 
ATOM     15  H7  UNL     1       0.678 -42.265  23.398  1.00  0.00     0.203 HD
BRANCH  11  16
HETATM   16  N1  UNL     1       3.012 -42.418  22.562  1.00  0.00    -0.234 N 
ATOM     17  H12 UNL     1       3.496 -42.220  23.438  1.00  0.00     0.174 HD
ATOM     18  H11 UNL     1       3.244 -43.248  22.015  1.00  0.00     0.174 HD
ENDBRANCH  11  16
BRANCH  14  19
HETATM   19  N6  UNL     1      -1.236 -40.794  22.800  1.00  0.00    -0.234 N 
ATOM     20  H62 UNL     1      -1.539 -40.049  23.427  1.00  0.00     0.174 HD
ATOM     21  H61 UNL     1      -1.865 -41.578  22.628  1.00  0.00     0.174 HD
ENDBRANCH  14  19
ENDBRANCH   7   8
ENDBRANCH   6   7
ENDBRANCH   5   6
ENDBRANCH   4   5
ENDBRANCH   1   4
BRANCH   1  22
HETATM   22  C7  UNL     1      -2.014 -35.189  17.707  1.00  0.00     0.236 C 
BRANCH  22  23
HETATM   23  C8  UNL     1      -1.252 -34.400  16.682  1.00  0.00     0.054 C 
BRANCH  23  24
HETATM   24  C9  UNL     1      -1.972 -33.300  16.004  1.00  0.00    -0.024 C 
HETATM   25  C10 UNL     1      -1.391 -32.136  15.425  1.00  0.00     0.013 C 
BRANCH  25  26
HETATM   26  C11 UNL     1      -0.437 -31.152  15.897  1.00  0.00     0.083 C 
BRANCH  26  27
HETATM   27  N5  UNL     1      -0.099 -31.064  17.260  1.00  0.00    -0.395 N 
ATOM     28  H5  UNL     1      -0.813 -30.932  17.976  1.00  0.00     0.159 HD
BRANCH  27  29
HETATM   29  C12 UNL     1       1.302 -31.171  17.608  1.00  0.00     0.159 C 
BRANCH  29  30
HETATM   30  C13 UNL     1       1.628 -32.477  18.232  1.00  0.00    -0.017 A 
HETATM   31  C14 UNL     1       1.254 -32.732  19.537  1.00  0.00     0.034 A 
HETATM   32  C15 UNL     1       1.605 -33.893  20.187  1.00  0.00     0.034 A 
HETATM   33 CL1  UNL     1       1.172 -34.211  21.854  1.00  0.00    -0.084 Cl
HETATM   34  C16 UNL     1       2.363 -34.809  19.447  1.00  0.00     0.025 A 
HETATM   35  C17 UNL     1       2.731 -34.548  18.150  1.00  0.00     0.026 A 
HETATM   36  C18 UNL     1       2.377 -33.388  17.511  1.00  0.00     0.042 A 
HETATM   37 CL2  UNL     1       2.795 -33.078  15.839  1.00  0.00    -0.084 Cl
ENDBRANCH  29  30
ENDBRANCH  27  29
ENDBRANCH  26  27
ENDBRANCH  25  26
ENDBRANCH  23  24
ENDBRANCH  22  23
ENDBRANCH   1  22
TORSDOF 14
ENDMDL
MODEL 5
REMARK VINA RESULT: -7.885174328      1.911      3.617
REMARK  14 active torsions:
REMARK  status: ('A' for Active; 'I' for Inactive)
REMARK    1  A    between atoms: N1_1  and  C1_4 
REMARK    2  A    between atoms: N3_8  and  C3_9 
REMARK    3  A    between atoms: C3_9  and  C4_10 
REMARK    4  A    between atoms: C4_10  and  C5_11 
REMARK    5  A    between atoms: C5_11  and  C6_12 
REMARK    6  A    between atoms: C6_12  and  N4_13 
REMARK    7  A    between atoms: N4_13  and  C7_16 
REMARK    8  A    between atoms: C7_16  and  C8_17 
REMARK    9  A    between atoms: C8_17  and  C9_18 
REMARK   10  A    between atoms: C10_19  and  C11_20 
REMARK   11  A    between atoms: C11_20  and  N5_21 
REMARK   12  A    between atoms: N5_21  and  C12_23 
REMARK   13  A    between atoms: C12_23  and  C13_24 
REMARK   14  A    between atoms: C19_32  and  N6_33 
ROOT
HETATM    1  N4  UNL     1      -0.271 -34.075  20.316  1.00  0.00    -0.075 N 
ATOM      2  H41 UNL     1      -1.286 -34.085  20.218  1.00  0.00     0.277 HD
ATOM      3  H42 UNL     1      -0.048 -33.877  19.340  1.00  0.00     0.277 HD
ENDROOT
BRANCH   1   4
HETATM    4  C6  UNL     1       0.268 -35.343  20.775  1.00  0.00     0.232 C 
BRANCH   4   5
HETATM    5  C5  UNL     1      -0.720 -36.462  20.833  1.00  0.00     0.029 C 
BRANCH   5   6
HETATM    6  C4  UNL     1      -0.161 -37.694  20.192  1.00  0.00     0.022 C 
BRANCH   6   7
HETATM    7  C3  UNL     1      -0.731 -38.941  20.758  1.00  0.00     0.148 C 
BRANCH   7   8
HETATM    8  N3  UNL     1       0.212 -39.898  21.245  1.00  0.00    -0.179 N 
HETATM    9  C2  UNL     1       1.452 -39.905  20.730  1.00  0.00     0.218 A 
HETATM   10  N2  UNL     1       2.442 -40.750  21.152  1.00  0.00    -0.187 N 
HETATM   11  C1  UNL     1       2.135 -41.598  22.124  1.00  0.00     0.691 A 
ATOM     12  H2  UNL     1       3.374 -40.728  20.737  1.00  0.00     0.185 HD
HETATM   13  N7  UNL     1       0.908 -41.611  22.658  1.00  0.00    -0.023 N 
HETATM   14  C19 UNL     1      -0.066 -40.778  22.236  1.00  0.00     0.693 A 
ATOM     15  H7  UNL     1       0.702 -42.272  23.408  1.00  0.00     0.203 HD
BRANCH  11  16
HETATM   16  N1  UNL     1       3.042 -42.397  22.585  1.00  0.00    -0.234 N 
ATOM     17  H12 UNL     1       2.972 -43.399  22.401  1.00  0.00     0.174 HD
ATOM     18  H11 UNL     1       3.804 -42.023  23.150  1.00  0.00     0.174 HD
ENDBRANCH  11  16
BRANCH  14  19
HETATM   19  N6  UNL     1      -1.238 -40.852  22.771  1.00  0.00    -0.234 N 
ATOM     20  H62 UNL     1      -1.990 -41.317  22.264  1.00  0.00     0.174 HD
ATOM     21  H61 UNL     1      -1.439 -40.444  23.684  1.00  0.00     0.174 HD
ENDBRANCH  14  19
ENDBRANCH   7   8
ENDBRANCH   6   7
ENDBRANCH   5   6
ENDBRANCH   4   5
ENDBRANCH   1   4
BRANCH   1  22
HETATM   22  C7  UNL     1       0.211 -33.031  21.244  1.00  0.00     0.236 C 
BRANCH  22  23
HETATM   23  C8  UNL     1      -0.509 -31.737  20.999  1.00  0.00     0.054 C 
BRANCH  23  24
HETATM   24  C9  UNL     1       0.312 -30.571  20.605  1.00  0.00    -0.024 C 
HETATM   25  C10 UNL     1       0.335 -29.943  19.328  1.00  0.00     0.013 C 
BRANCH  25  26
HETATM   26  C11 UNL     1       0.476 -30.435  17.972  1.00  0.00     0.083 C 
BRANCH  26  27
HETATM   27  N5  UNL     1       1.099 -31.669  17.709  1.00  0.00    -0.395 N 
ATOM     28  H5  UNL     1       1.647 -32.149  18.423  1.00  0.00     0.159 HD
BRANCH  27  29
HETATM   29  C12 UNL     1       0.933 -32.232  16.385  1.00  0.00     0.159 C 
BRANCH  29  30
HETATM   30  C13 UNL     1      -0.367 -32.931  16.233  1.00  0.00    -0.017 A 
HETATM   31  C14 UNL     1      -0.530 -34.206  16.740  1.00  0.00     0.034 A 
HETATM   32  C15 UNL     1      -1.687 -34.928  16.552  1.00  0.00     0.034 A 
HETATM   33 CL1  UNL     1      -1.890 -36.560  17.153  1.00  0.00    -0.084 Cl
HETATM   34  C16 UNL     1      -2.697 -34.294  15.818  1.00  0.00     0.025 A 
HETATM   35  C17 UNL     1      -2.527 -33.027  15.318  1.00  0.00     0.026 A 
HETATM   36  C18 UNL     1      -1.371 -32.315  15.510  1.00  0.00     0.042 A 
HETATM   37 CL2  UNL     1      -1.174 -30.677  14.924  1.00  0.00    -0.084 Cl
ENDBRANCH  29  30
ENDBRANCH  27  29
ENDBRANCH  26  27
ENDBRANCH  25  26
ENDBRANCH  23  24
ENDBRANCH  22  23
ENDBRANCH   1  22
TORSDOF 14
ENDMDL
