MODEL 1
REMARK VINA RESULT: -8.221026990      0.000      0.000
REMARK  15 active torsions:
REMARK  status: ('A' for Active; 'I' for Inactive)
REMARK    1  A    between atoms: N1_1  and  C1_5 
REMARK    2  A    between atoms: C1_5  and  N2_6 
REMARK    3  A    between atoms: C1_5  and  C2_10 
REMARK    4  A    between atoms: C3_11  and  N3_12 
REMARK    5  A    between atoms: N3_12  and  C4_14 
REMARK    6  A    between atoms: C4_14  and  C5_15 
REMARK    7  A    between atoms: C5_15  and  C6_16 
REMARK    8  A    between atoms: C6_16  and  C7_17 
REMARK    9  A    between atoms: C7_17  and  C8_18 
REMARK   10  A    between atoms: C8_18  and  C9_19 
REMARK   11  A    between atoms: C9_19  and  C10_20 
REMARK   12  A    between atoms: C10_20  and  C11_21 
REMARK   13  A    between atoms: C11_21  and  C12_22 
REMARK   14  A    between atoms: C12_22  and  N4_23 
REMARK   15  A    between atoms: N4_23  and  C13_25 
ROOT
HETATM    1  N3  UNL     1      -0.094 -38.544  21.594  1.00  0.00    -0.376 N 
ATOM      2  H3  UNL     1       0.414 -38.199  22.409  1.00  0.00     0.161 HD
ENDROOT
BRANCH   1   3
HETATM    3  C3  UNL     1      -0.527 -39.895  21.546  1.00  0.00     0.117 A 
HETATM    4  C2  UNL     1       0.340 -40.948  21.476  1.00  0.00     0.110 A 
HETATM    5  C19 UNL     1      -0.190 -42.226  21.447  1.00  0.00     0.260 A 
HETATM    6  N7  UNL     1      -1.520 -42.414  21.484  1.00  0.00    -0.319 N 
HETATM    7  O1  UNL     1       0.608 -43.191  21.384  1.00  0.00    -0.267 OA
HETATM    8  C18 UNL     1      -2.357 -41.357  21.552  1.00  0.00     0.184 A 
ATOM      9  H7  UNL     1      -1.900 -43.361  21.461  1.00  0.00     0.169 HD
HETATM   10  N6  UNL     1      -1.884 -40.104  21.583  1.00  0.00    -0.338 N 
ATOM     11  H6  UNL     1      -2.526 -39.313  21.634  1.00  0.00     0.168 HD
BRANCH   4  12
HETATM   12  C1  UNL     1       1.785 -40.782  21.423  1.00  0.00     0.420 C 
BRANCH  12  13
HETATM   13  N1  UNL     1       2.363 -41.312  20.190  1.00  0.00    -0.046 N 
ATOM     14  H13 UNL     1       3.349 -41.556  20.276  1.00  0.00     0.277 HD
ATOM     15  H12 UNL     1       2.024 -42.245  19.953  1.00  0.00     0.277 HD
ATOM     16  H11 UNL     1       2.179 -40.618  19.466  1.00  0.00     0.277 HD
ENDBRANCH  12  13
BRANCH  12  17
HETATM   17  N2  UNL     1       2.479 -41.439  22.513  1.00  0.00    -0.046 N 
ATOM     18  H23 UNL     1       2.334 -42.449  22.536  1.00  0.00     0.277 HD
ATOM     19  H22 UNL     1       3.492 -41.461  22.395  1.00  0.00     0.277 HD
ATOM     20  H21 UNL     1       2.181 -40.969  23.367  1.00  0.00     0.277 HD
ENDBRANCH  12  17
ENDBRANCH   4  12
ENDBRANCH   1   3
BRANCH   1  21
HETATM   21  C4  UNL     1      -0.373 -37.654  20.487  1.00  0.00     0.121 C 
BRANCH  21  22
HETATM   22  C5  UNL     1       0.656 -36.573  20.440  1.00  0.00     0.020 C 
BRANCH  22  23
HETATM   23  C6  UNL     1       0.202 -35.315  21.133  1.00  0.00     0.002 C 
BRANCH  23  24
HETATM   24  C7  UNL     1       1.370 -34.428  21.446  1.00  0.00     0.000 C 
BRANCH  24  25
HETATM   25  C8  UNL     1       1.148 -33.050  20.887  1.00  0.00     0.000 C 
BRANCH  25  26
HETATM   26  C9  UNL     1      -0.189 -32.465  21.241  1.00  0.00     0.000 C 
BRANCH  26  27
HETATM   27  C10 UNL     1      -0.187 -30.998  20.874  1.00  0.00     0.002 C 
BRANCH  27  28
HETATM   28  C11 UNL     1       0.902 -30.707  19.832  1.00  0.00     0.020 C 
BRANCH  28  29
HETATM   29  C12 UNL     1       0.264 -30.372  18.526  1.00  0.00     0.120 C 
BRANCH  29  30
HETATM   30  N4  UNL     1       0.404 -31.382  17.505  1.00  0.00    -0.388 N 
ATOM     31  H4  UNL     1       1.286 -31.407  16.993  1.00  0.00     0.159 HD
BRANCH  30  32
HETATM   32  C13 UNL     1      -0.570 -32.337  17.151  1.00  0.00     0.056 A 
HETATM   33  C14 UNL     1      -0.879 -33.461  17.887  1.00  0.00     0.048 A 
HETATM   34  C15 UNL     1      -1.855 -34.345  17.485  1.00  0.00     0.092 A 
HETATM   35  N5  UNL     1      -2.550 -34.153  16.361  1.00  0.00    -0.341 N 
HETATM   36  C16 UNL     1      -2.285 -33.078  15.618  1.00  0.00     0.212 A 
ATOM     37  H5  UNL     1      -3.271 -34.816  16.076  1.00  0.00     0.167 HD
HETATM   38  F1  UNL     1      -2.991 -32.888  14.480  1.00  0.00    -0.184 F 
HETATM   39  C17 UNL     1      -1.301 -32.164  15.998  1.00  0.00     0.116 A 
HETATM   40 CL1  UNL     1      -1.029 -30.800  14.970  1.00  0.00    -0.077 Cl
ENDBRANCH  30  32
ENDBRANCH  29  30
ENDBRANCH  28  29
ENDBRANCH  27  28
ENDBRANCH  26  27
ENDBRANCH  25  26
ENDBRANCH  24  25
ENDBRANCH  23  24
ENDBRANCH  22  23
ENDBRANCH  21  22
ENDBRANCH   1  21
TORSDOF 15
ENDMDL
MODEL 2
REMARK VINA RESULT: -8.092653239      1.713      1.868
REMARK  15 active torsions:
REMARK  status: ('A' for Active; 'I' for Inactive)
REMARK    1  A    between atoms: N1_1  and  C1_5 
REMARK    2  A    between atoms: C1_5  and  N2_6 
REMARK    3  A    between atoms: C1_5  and  C2_10 
REMARK    4  A    between atoms: C3_11  and  N3_12 
REMARK    5  A    between atoms: N3_12  and  C4_14 
REMARK    6  A    between atoms: C4_14  and  C5_15 
REMARK    7  A    between atoms: C5_15  and  C6_16 
REMARK    8  A    between atoms: C6_16  and  C7_17 
REMARK    9  A    between atoms: C7_17  and  C8_18 
REMARK   10  A    between atoms: C8_18  and  C9_19 
REMARK   11  A    between atoms: C9_19  and  C10_20 
REMARK   12  A    between atoms: C10_20  and  C11_21 
REMARK   13  A    between atoms: C11_21  and  C12_22 
REMARK   14  A    between atoms: C12_22  and  N4_23 
REMARK   15  A    between atoms: N4_23  and  C13_25 
ROOT
HETATM    1  N3  UNL     1      -0.144 -38.606  21.584  1.00  0.00    -0.376 N 
ATOM      2  H3  UNL     1       0.322 -38.237  22.413  1.00  0.00     0.161 HD
ENDROOT
BRANCH   1   3
HETATM    3  C3  UNL     1      -0.558 -39.964  21.548  1.00  0.00     0.117 A 
HETATM    4  C2  UNL     1       0.324 -41.005  21.474  1.00  0.00     0.110 A 
HETATM    5  C19 UNL     1      -0.189 -42.290  21.457  1.00  0.00     0.260 A 
HETATM    6  N7  UNL     1      -1.515 -42.497  21.512  1.00  0.00    -0.319 N 
HETATM    7  O1  UNL     1       0.623 -43.243  21.391  1.00  0.00    -0.267 OA
HETATM    8  C18 UNL     1      -2.366 -41.452  21.585  1.00  0.00     0.184 A 
ATOM      9  H7  UNL     1      -1.882 -43.449  21.499  1.00  0.00     0.169 HD
HETATM   10  N6  UNL     1      -1.911 -40.192  21.603  1.00  0.00    -0.338 N 
ATOM     11  H6  UNL     1      -2.564 -39.410  21.658  1.00  0.00     0.168 HD
BRANCH   4  12
HETATM   12  C1  UNL     1       1.765 -40.818  21.402  1.00  0.00     0.420 C 
BRANCH  12  13
HETATM   13  N1  UNL     1       2.334 -41.338  20.160  1.00  0.00    -0.046 N 
ATOM     14  H13 UNL     1       2.098 -40.779  19.341  1.00  0.00     0.277 HD
ATOM     15  H12 UNL     1       3.346 -41.226  20.101  1.00  0.00     0.277 HD
ATOM     16  H11 UNL     1       2.028 -42.308  20.090  1.00  0.00     0.277 HD
ENDBRANCH  12  13
BRANCH  12  17
HETATM   17  N2  UNL     1       2.482 -41.468  22.482  1.00  0.00    -0.046 N 
ATOM     18  H23 UNL     1       1.940 -42.195  22.949  1.00  0.00     0.277 HD
ATOM     19  H22 UNL     1       3.243 -42.067  22.160  1.00  0.00     0.277 HD
ATOM     20  H21 UNL     1       2.789 -40.726  23.110  1.00  0.00     0.277 HD
ENDBRANCH  12  17
ENDBRANCH   4  12
ENDBRANCH   1   3
BRANCH   1  21
HETATM   21  C4  UNL     1      -0.382 -37.746  20.445  1.00  0.00     0.121 C 
BRANCH  21  22
HETATM   22  C5  UNL     1       0.620 -36.639  20.432  1.00  0.00     0.020 C 
BRANCH  22  23
HETATM   23  C6  UNL     1       0.015 -35.309  20.799  1.00  0.00     0.002 C 
BRANCH  23  24
HETATM   24  C7  UNL     1       0.995 -34.471  21.564  1.00  0.00     0.000 C 
BRANCH  24  25
HETATM   25  C8  UNL     1       0.989 -33.057  21.052  1.00  0.00     0.000 C 
BRANCH  25  26
HETATM   26  C9  UNL     1      -0.385 -32.468  20.927  1.00  0.00     0.000 C 
BRANCH  26  27
HETATM   27  C10 UNL     1      -0.262 -30.962  20.864  1.00  0.00     0.002 C 
BRANCH  27  28
HETATM   28  C11 UNL     1       0.991 -30.559  20.074  1.00  0.00     0.020 C 
BRANCH  28  29
HETATM   29  C12 UNL     1       0.625 -30.326  18.647  1.00  0.00     0.120 C 
BRANCH  29  30
HETATM   30  N4  UNL     1       1.124 -31.316  17.723  1.00  0.00    -0.388 N 
ATOM     31  H4  UNL     1       2.027 -31.130  17.285  1.00  0.00     0.159 HD
BRANCH  30  32
HETATM   32  C13 UNL     1       0.476 -32.517  17.370  1.00  0.00     0.056 A 
HETATM   33  C14 UNL     1      -0.834 -32.614  16.953  1.00  0.00     0.048 A 
HETATM   34  C15 UNL     1      -1.399 -33.823  16.611  1.00  0.00     0.092 A 
HETATM   35  N5  UNL     1      -0.700 -34.960  16.669  1.00  0.00    -0.341 N 
HETATM   36  C16 UNL     1       0.571 -34.912  17.068  1.00  0.00     0.212 A 
ATOM     37  H5  UNL     1      -1.131 -35.848  16.412  1.00  0.00     0.167 HD
HETATM   38  F1  UNL     1       1.275 -36.067  17.125  1.00  0.00    -0.184 F 
HETATM   39  C17 UNL     1       1.171 -33.703  17.421  1.00  0.00     0.116 A 
HETATM   40 CL1  UNL     1       2.825 -33.742  17.926  1.00  0.00    -0.077 Cl
ENDBRANCH  30  32
ENDBRANCH  29  30
ENDBRANCH  28  29
ENDBRANCH  27  28
ENDBRANCH  26  27
ENDBRANCH  25  26
ENDBRANCH  24  25
ENDBRANCH  23  24
ENDBRANCH  22  23
ENDBRANCH  21  22
ENDBRANCH   1  21
TORSDOF 15
ENDMDL
MODEL 3
REMARK VINA RESULT: -8.047410739      3.277      5.324
REMARK  15 active torsions:
REMARK  status: ('A' for Active; 'I' for Inactive)
REMARK    1  A    between atoms: N1_1  and  C1_5 
REMARK    2  A    between atoms: C1_5  and  N2_6 
REMARK    3  A    between atoms: C1_5  and  C2_10 
REMARK    4  A    between atoms: C3_11  and  N3_12 
REMARK    5  A    between atoms: N3_12  and  C4_14 
REMARK    6  A    between atoms: C4_14  and  C5_15 
REMARK    7  A    between atoms: C5_15  and  C6_16 
REMARK    8  A    between atoms: C6_16  and  C7_17 
REMARK    9  A    between atoms: C7_17  and  C8_18 
REMARK   10  A    between atoms: C8_18  and  C9_19 
REMARK   11  A    between atoms: C9_19  and  C10_20 
REMARK   12  A    between atoms: C10_20  and  C11_21 
REMARK   13  A    between atoms: C11_21  and  C12_22 
REMARK   14  A    between atoms: C12_22  and  N4_23 
REMARK   15  A    between atoms: N4_23  and  C13_25 
ROOT
HETATM    1  N3  UNL     1      -0.847 -35.394  17.374  1.00  0.00    -0.376 N 
ATOM      2  H3  UNL     1      -0.209 -34.669  17.045  1.00  0.00     0.161 HD
ENDROOT
BRANCH   1   3
HETATM    3  C3  UNL     1      -0.564 -36.100  18.573  1.00  0.00     0.117 A 
HETATM    4  C2  UNL     1       0.426 -37.037  18.663  1.00  0.00     0.110 A 
HETATM    5  C19 UNL     1       0.624 -37.657  19.884  1.00  0.00     0.260 A 
HETATM    6  N7  UNL     1      -0.139 -37.339  20.944  1.00  0.00    -0.319 N 
HETATM    7  O1  UNL     1       1.534 -38.516  19.965  1.00  0.00    -0.267 OA
HETATM    8  C18 UNL     1      -1.111 -36.409  20.829  1.00  0.00     0.184 A 
ATOM      9  H7  UNL     1       0.016 -37.803  21.839  1.00  0.00     0.169 HD
HETATM   10  N6  UNL     1      -1.336 -35.786  19.664  1.00  0.00    -0.338 N 
ATOM     11  H6  UNL     1      -2.074 -35.086  19.589  1.00  0.00     0.168 HD
BRANCH   4  12
HETATM   12  C1  UNL     1       1.264 -37.415  17.535  1.00  0.00     0.420 C 
BRANCH  12  13
HETATM   13  N1  UNL     1       1.124 -38.826  17.183  1.00  0.00    -0.046 N 
ATOM     14  H13 UNL     1       1.283 -39.457  17.968  1.00  0.00     0.277 HD
ATOM     15  H12 UNL     1       0.160 -39.102  16.993  1.00  0.00     0.277 HD
ATOM     16  H11 UNL     1       1.755 -38.989  16.398  1.00  0.00     0.277 HD
ENDBRANCH  12  13
BRANCH  12  17
HETATM   17  N2  UNL     1       2.678 -37.193  17.771  1.00  0.00    -0.046 N 
ATOM     18  H23 UNL     1       2.873 -36.331  18.283  1.00  0.00     0.277 HD
ATOM     19  H22 UNL     1       3.080 -37.836  18.452  1.00  0.00     0.277 HD
ATOM     20  H21 UNL     1       3.131 -37.232  16.859  1.00  0.00     0.277 HD
ENDBRANCH  12  17
ENDBRANCH   4  12
ENDBRANCH   1   3
BRANCH   1  21
HETATM   21  C4  UNL     1      -2.043 -35.701  16.618  1.00  0.00     0.121 C 
BRANCH  21  22
HETATM   22  C5  UNL     1      -2.732 -34.435  16.231  1.00  0.00     0.020 C 
BRANCH  22  23
HETATM   23  C6  UNL     1      -1.841 -33.228  16.364  1.00  0.00     0.002 C 
BRANCH  23  24
HETATM   24  C7  UNL     1      -2.053 -32.280  15.222  1.00  0.00     0.000 C 
BRANCH  24  25
HETATM   25  C8  UNL     1      -0.986 -31.220  15.214  1.00  0.00     0.000 C 
BRANCH  25  26
HETATM   26  C9  UNL     1       0.300 -31.666  14.582  1.00  0.00     0.000 C 
BRANCH  26  27
HETATM   27  C10 UNL     1       1.381 -31.676  15.640  1.00  0.00     0.002 C 
BRANCH  27  28
HETATM   28  C11 UNL     1       2.223 -32.955  15.534  1.00  0.00     0.020 C 
BRANCH  28  29
HETATM   29  C12 UNL     1       2.085 -33.746  16.791  1.00  0.00     0.120 C 
BRANCH  29  30
HETATM   30  N4  UNL     1       2.428 -33.033  17.998  1.00  0.00    -0.388 N 
ATOM     31  H4  UNL     1       3.076 -32.251  17.907  1.00  0.00     0.159 HD
BRANCH  30  32
HETATM   32  C13 UNL     1       1.947 -33.322  19.291  1.00  0.00     0.056 A 
HETATM   33  C14 UNL     1       2.473 -34.276  20.135  1.00  0.00     0.048 A 
HETATM   34  C15 UNL     1       1.959 -34.494  21.394  1.00  0.00     0.092 A 
HETATM   35  N5  UNL     1       0.924 -33.788  21.856  1.00  0.00    -0.341 N 
HETATM   36  C16 UNL     1       0.383 -32.854  21.073  1.00  0.00     0.212 A 
ATOM     37  H5  UNL     1       0.554 -33.960  22.790  1.00  0.00     0.167 HD
HETATM   38  F1  UNL     1      -0.666 -32.142  21.545  1.00  0.00    -0.184 F 
HETATM   39  C17 UNL     1       0.881 -32.610  19.792  1.00  0.00     0.116 A 
HETATM   40 CL1  UNL     1       0.114 -31.378  18.851  1.00  0.00    -0.077 Cl
ENDBRANCH  30  32
ENDBRANCH  29  30
ENDBRANCH  28  29
ENDBRANCH  27  28
ENDBRANCH  26  27
ENDBRANCH  25  26
ENDBRANCH  24  25
ENDBRANCH  23  24
ENDBRANCH  22  23
ENDBRANCH  21  22
ENDBRANCH   1  21
TORSDOF 15
ENDMDL
MODEL 4
REMARK VINA RESULT: -8.004860618      3.389      5.339
REMARK  15 active torsions:
REMARK  status: ('A' for Active; 'I' for Inactive)
REMARK    1  A    between atoms: N1_1  and  C1_5 
REMARK    2  A    between atoms: C1_5  and  N2_6 
REMARK    3  A    between atoms: C1_5  and  C2_10 
REMARK    4  A    between atoms: C3_11  and  N3_12 
REMARK    5  A    between atoms: N3_12  and  C4_14 
REMARK    6  A    between atoms: C4_14  and  C5_15 
REMARK    7  A    between atoms: C5_15  and  C6_16 
REMARK    8  A    between atoms: C6_16  and  C7_17 
REMARK    9  A    between atoms: C7_17  and  C8_18 
REMARK   10  A    between atoms: C8_18  and  C9_19 
REMARK   11  A    between atoms: C9_19  and  C10_20 
REMARK   12  A    between atoms: C10_20  and  C11_21 
REMARK   13  A    between atoms: C11_21  and  C12_22 
REMARK   14  A    between atoms: C12_22  and  N4_23 
REMARK   15  A    between atoms: N4_23  and  C13_25 
ROOT
HETATM    1  N3  UNL     1      -0.519 -35.689  17.364  1.00  0.00    -0.376 N 
ATOM      2  H3  UNL     1       0.162 -35.040  16.970  1.00  0.00     0.161 HD
ENDROOT
BRANCH   1   3
HETATM    3  C3  UNL     1      -0.181 -36.473  18.498  1.00  0.00     0.117 A 
HETATM    4  C2  UNL     1       0.677 -37.534  18.434  1.00  0.00     0.110 A 
HETATM    5  C19 UNL     1       0.947 -38.223  19.604  1.00  0.00     0.260 A 
HETATM    6  N7  UNL     1       0.376 -37.851  20.762  1.00  0.00    -0.319 N 
HETATM    7  O1  UNL     1       1.736 -39.195  19.543  1.00  0.00    -0.267 OA
HETATM    8  C18 UNL     1      -0.469 -36.798  20.799  1.00  0.00     0.184 A 
ATOM      9  H7  UNL     1       0.582 -38.366  21.618  1.00  0.00     0.169 HD
HETATM   10  N6  UNL     1      -0.756 -36.106  19.689  1.00  0.00    -0.338 N 
ATOM     11  H6  UNL     1      -1.397 -35.313  19.729  1.00  0.00     0.168 HD
BRANCH   4  12
HETATM   12  C1  UNL     1       1.305 -37.972  17.196  1.00  0.00     0.420 C 
BRANCH  12  13
HETATM   13  N1  UNL     1       0.928 -39.336  16.832  1.00  0.00    -0.046 N 
ATOM     14  H13 UNL     1       1.438 -40.050  17.351  1.00  0.00     0.277 HD
ATOM     15  H12 UNL     1      -0.007 -39.596  17.146  1.00  0.00     0.277 HD
ATOM     16  H11 UNL     1       1.050 -39.406  15.822  1.00  0.00     0.277 HD
ENDBRANCH  12  13
BRANCH  12  17
HETATM   17  N2  UNL     1       2.754 -37.950  17.249  1.00  0.00    -0.046 N 
ATOM     18  H23 UNL     1       3.174 -38.880  17.236  1.00  0.00     0.277 HD
ATOM     19  H22 UNL     1       3.185 -37.606  16.392  1.00  0.00     0.277 HD
ATOM     20  H21 UNL     1       3.002 -37.406  18.074  1.00  0.00     0.277 HD
ENDBRANCH  12  17
ENDBRANCH   4  12
ENDBRANCH   1   3
BRANCH   1  21
HETATM   21  C4  UNL     1      -1.832 -35.810  16.765  1.00  0.00     0.121 C 
BRANCH  21  22
HETATM   22  C5  UNL     1      -2.552 -34.506  16.865  1.00  0.00     0.020 C 
BRANCH  22  23
HETATM   23  C6  UNL     1      -3.242 -34.127  15.581  1.00  0.00     0.002 C 
BRANCH  23  24
HETATM   24  C7  UNL     1      -2.520 -33.007  14.896  1.00  0.00     0.000 C 
BRANCH  24  25
HETATM   25  C8  UNL     1      -1.615 -32.296  15.864  1.00  0.00     0.000 C 
BRANCH  25  26
HETATM   26  C9  UNL     1      -0.891 -31.126  15.263  1.00  0.00     0.000 C 
BRANCH  26  27
HETATM   27  C10 UNL     1       0.418 -31.613  14.684  1.00  0.00     0.002 C 
BRANCH  27  28
HETATM   28  C11 UNL     1       1.103 -32.589  15.652  1.00  0.00     0.020 C 
BRANCH  28  29
HETATM   29  C12 UNL     1       1.868 -31.818  16.675  1.00  0.00     0.120 C 
BRANCH  29  30
HETATM   30  N4  UNL     1       2.119 -32.527  17.907  1.00  0.00    -0.388 N 
ATOM     31  H4  UNL     1       2.918 -33.161  17.924  1.00  0.00     0.159 HD
BRANCH  30  32
HETATM   32  C13 UNL     1       1.357 -32.423  19.088  1.00  0.00     0.056 A 
HETATM   33  C14 UNL     1       0.430 -31.436  19.346  1.00  0.00     0.048 A 
HETATM   34  C15 UNL     1      -0.289 -31.405  20.520  1.00  0.00     0.092 A 
HETATM   35  N5  UNL     1      -0.120 -32.333  21.465  1.00  0.00    -0.341 N 
HETATM   36  C16 UNL     1       0.766 -33.307  21.258  1.00  0.00     0.212 A 
ATOM     37  H5  UNL     1      -0.660 -32.298  22.330  1.00  0.00     0.167 HD
HETATM   38  F1  UNL     1       0.934 -34.244  22.219  1.00  0.00    -0.184 F 
HETATM   39  C17 UNL     1       1.511 -33.365  20.079  1.00  0.00     0.116 A 
HETATM   40 CL1  UNL     1       2.637 -34.666  19.901  1.00  0.00    -0.077 Cl
ENDBRANCH  30  32
ENDBRANCH  29  30
ENDBRANCH  28  29
ENDBRANCH  27  28
ENDBRANCH  26  27
ENDBRANCH  25  26
ENDBRANCH  24  25
ENDBRANCH  23  24
ENDBRANCH  22  23
ENDBRANCH  21  22
ENDBRANCH   1  21
TORSDOF 15
ENDMDL
MODEL 5
REMARK VINA RESULT: -7.950077835      3.462      5.527
REMARK  15 active torsions:
REMARK  status: ('A' for Active; 'I' for Inactive)
REMARK    1  A    between atoms: N1_1  and  C1_5 
REMARK    2  A    between atoms: C1_5  and  N2_6 
REMARK    3  A    between atoms: C1_5  and  C2_10 
REMARK    4  A    between atoms: C3_11  and  N3_12 
REMARK    5  A    between atoms: N3_12  and  C4_14 
REMARK    6  A    between atoms: C4_14  and  C5_15 
REMARK    7  A    between atoms: C5_15  and  C6_16 
REMARK    8  A    between atoms: C6_16  and  C7_17 
REMARK    9  A    between atoms: C7_17  and  C8_18 
REMARK   10  A    between atoms: C8_18  and  C9_19 
REMARK   11  A    between atoms: C9_19  and  C10_20 
REMARK   12  A    between atoms: C10_20  and  C11_21 
REMARK   13  A    between atoms: C11_21  and  C12_22 
REMARK   14  A    between atoms: C12_22  and  N4_23 
REMARK   15  A    between atoms: N4_23  and  C13_25 
ROOT
HETATM    1  N3  UNL     1      -1.789 -36.347  17.777  1.00  0.00    -0.376 N 
ATOM      2  H3  UNL     1      -2.447 -36.277  18.553  1.00  0.00     0.161 HD
ENDROOT
BRANCH   1   3
HETATM    3  C3  UNL     1      -0.547 -37.010  17.957  1.00  0.00     0.117 A 
HETATM    4  C2  UNL     1      -0.148 -37.523  19.159  1.00  0.00     0.110 A 
HETATM    5  C19 UNL     1       1.078 -38.161  19.219  1.00  0.00     0.260 A 
HETATM    6  N7  UNL     1       1.847 -38.267  18.122  1.00  0.00    -0.319 N 
HETATM    7  O1  UNL     1       1.440 -38.632  20.323  1.00  0.00    -0.267 OA
HETATM    8  C18 UNL     1       1.431 -37.752  16.945  1.00  0.00     0.184 A 
ATOM      9  H7  UNL     1       2.750 -38.740  18.178  1.00  0.00     0.169 HD
HETATM   10  N6  UNL     1       0.251 -37.126  16.845  1.00  0.00    -0.338 N 
ATOM     11  H6  UNL     1      -0.052 -36.740  15.951  1.00  0.00     0.168 HD
BRANCH   4  12
HETATM   12  C1  UNL     1      -0.949 -37.417  20.369  1.00  0.00     0.420 C 
BRANCH  12  13
HETATM   13  N1  UNL     1      -0.257 -36.697  21.435  1.00  0.00    -0.046 N 
ATOM     14  H13 UNL     1       0.175 -37.311  22.125  1.00  0.00     0.277 HD
ATOM     15  H12 UNL     1       0.599 -36.237  21.124  1.00  0.00     0.277 HD
ATOM     16  H11 UNL     1      -0.940 -36.054  21.836  1.00  0.00     0.277 HD
ENDBRANCH  12  13
BRANCH  12  17
HETATM   17  N2  UNL     1      -1.323 -38.704  20.924  1.00  0.00    -0.046 N 
ATOM     18  H23 UNL     1      -0.643 -39.072  21.590  1.00  0.00     0.277 HD
ATOM     19  H22 UNL     1      -2.113 -38.654  21.566  1.00  0.00     0.277 HD
ATOM     20  H21 UNL     1      -1.486 -39.322  20.129  1.00  0.00     0.277 HD
ENDBRANCH  12  17
ENDBRANCH   4  12
ENDBRANCH   1   3
BRANCH   1  21
HETATM   21  C4  UNL     1      -2.123 -35.771  16.492  1.00  0.00     0.121 C 
BRANCH  21  22
HETATM   22  C5  UNL     1      -2.793 -34.452  16.691  1.00  0.00     0.020 C 
BRANCH  22  23
HETATM   23  C6  UNL     1      -3.321 -33.872  15.405  1.00  0.00     0.002 C 
BRANCH  23  24
HETATM   24  C7  UNL     1      -2.205 -33.315  14.573  1.00  0.00     0.000 C 
BRANCH  24  25
HETATM   25  C8  UNL     1      -1.933 -31.885  14.948  1.00  0.00     0.000 C 
BRANCH  25  26
HETATM   26  C9  UNL     1      -0.471 -31.545  15.006  1.00  0.00     0.000 C 
BRANCH  26  27
HETATM   27  C10 UNL     1      -0.130 -31.117  16.415  1.00  0.00     0.002 C 
BRANCH  27  28
HETATM   28  C11 UNL     1       1.302 -31.542  16.772  1.00  0.00     0.020 C 
BRANCH  28  29
HETATM   29  C12 UNL     1       1.466 -33.003  16.516  1.00  0.00     0.120 C 
BRANCH  29  30
HETATM   30  N4  UNL     1       0.826 -33.864  17.482  1.00  0.00    -0.388 N 
ATOM     31  H4  UNL     1       0.309 -34.665  17.119  1.00  0.00     0.159 HD
BRANCH  30  32
HETATM   32  C13 UNL     1       0.850 -33.695  18.881  1.00  0.00     0.056 A 
HETATM   33  C14 UNL     1      -0.178 -33.169  19.631  1.00  0.00     0.048 A 
HETATM   34  C15 UNL     1      -0.089 -33.046  21.000  1.00  0.00     0.092 A 
HETATM   35  N5  UNL     1       1.003 -33.434  21.665  1.00  0.00    -0.341 N 
HETATM   36  C16 UNL     1       2.023 -33.949  20.978  1.00  0.00     0.212 A 
ATOM     37  H5  UNL     1       1.055 -33.338  22.679  1.00  0.00     0.167 HD
HETATM   38  F1  UNL     1       3.127 -34.340  21.656  1.00  0.00    -0.184 F 
HETATM   39  C17 UNL     1       1.963 -34.085  19.591  1.00  0.00     0.116 A 
HETATM   40 CL1  UNL     1       3.336 -34.765  18.788  1.00  0.00    -0.077 Cl
ENDBRANCH  30  32
ENDBRANCH  29  30
ENDBRANCH  28  29
ENDBRANCH  27  28
ENDBRANCH  26  27
ENDBRANCH  25  26
ENDBRANCH  24  25
ENDBRANCH  23  24
ENDBRANCH  22  23
ENDBRANCH  21  22
ENDBRANCH   1  21
TORSDOF 15
ENDMDL
