MODEL 1
REMARK VINA RESULT: -7.784333172      0.000      0.000
REMARK  16 active torsions:
REMARK  status: ('A' for Active; 'I' for Inactive)
REMARK    1  A    between atoms: O1_1  and  N1_3 
REMARK    2  A    between atoms: N1_3  and  N2_5 
REMARK    3  A    between atoms: N2_5  and  C1_6 
REMARK    4  A    between atoms: N2_5  and  C3_9 
REMARK    5  A    between atoms: C1_6  and  C2_7 
REMARK    6  A    between atoms: C3_9  and  C4_10 
REMARK    7  A    between atoms: C4_10  and  C5_11 
REMARK    8  A    between atoms: C5_11  and  N3_12 
REMARK    9  A    between atoms: N3_12  and  C6_14 
REMARK   10  A    between atoms: C6_14  and  O2_15 
REMARK   11  A    between atoms: C6_14  and  C7_17 
REMARK   12  A    between atoms: C8_20  and  O3_21 
REMARK   13  A    between atoms: C10_24  and  N5_25 
REMARK   14  A    between atoms: N5_25  and  N6_27 
REMARK   15  A    between atoms: N6_27  and  C11_29 
REMARK   16  A    between atoms: C11_29  and  C12_30 
ROOT
HETATM    1  C7  UNL     1       1.783 -35.930  19.495  1.00  0.00     0.088 A 
HETATM    2  N4  UNL     1       1.151 -35.937  20.694  1.00  0.00    -0.335 N 
ATOM      3  H4  UNL     1       0.490 -36.654  20.994  1.00  0.00     0.168 HD
HETATM    4  C8  UNL     1       1.506 -34.889  21.428  1.00  0.00     0.142 A 
HETATM    5  C9  UNL     1       2.410 -34.131  20.712  1.00  0.00     0.088 A 
HETATM    6  C10 UNL     1       2.583 -34.773  19.510  1.00  0.00     0.079 A 
ENDROOT
BRANCH   1   7
HETATM    7  C6  UNL     1       1.673 -36.928  18.420  1.00  0.00     0.270 C 
BRANCH   7   8
HETATM    8  N3  UNL     1       1.306 -38.235  18.707  1.00  0.00    -0.372 N 
ATOM      9  H3  UNL     1       0.493 -38.351  19.312  1.00  0.00     0.161 HD
BRANCH   8  10
HETATM   10  C5  UNL     1       1.906 -39.388  18.276  1.00  0.00     0.060 C 
BRANCH  10  11
HETATM   11  C4  UNL     1       1.554 -40.678  18.944  1.00  0.00     0.065 C 
BRANCH  11  12
HETATM   12  C3  UNL     1       2.545 -40.921  20.059  1.00  0.00     0.149 C 
BRANCH  12  13
HETATM   13  N2  UNL     1       2.027 -41.623  21.184  1.00  0.00    -0.307 N 
BRANCH  13  14
HETATM   14  N1  UNL     1       2.800 -41.719  22.341  1.00  0.00    -0.212 N 
ATOM     15  H1  UNL     1       2.927 -40.880  22.907  1.00  0.00     0.215 HD
BRANCH  14  16
HETATM   16  O1  UNL     1       3.338 -42.764  22.717  1.00  0.00    -0.275 OA
ATOM     17  H1  UNL     1       3.248 -43.114  23.595  1.00  0.00     0.246 HD
ENDBRANCH  14  16
ENDBRANCH  13  14
BRANCH  13  18
HETATM   18  C1  UNL     1       0.709 -42.254  21.180  1.00  0.00     0.159 C 
BRANCH  18  19
HETATM   19  C2  UNL     1      -0.186 -41.618  22.209  1.00  0.00     0.136 C 
HETATM   20 CL1  UNL     1      -1.046 -40.255  21.458  1.00  0.00    -0.129 Cl
ENDBRANCH  18  19
ENDBRANCH  13  18
ENDBRANCH  12  13
ENDBRANCH  11  12
ENDBRANCH  10  11
ENDBRANCH   8  10
ENDBRANCH   7   8
BRANCH   7  21
HETATM   21  O2  UNL     1       2.969 -37.038  17.828  1.00  0.00    -0.371 OA
ATOM     22  H2  UNL     1       3.332 -37.837  18.192  1.00  0.00     0.212 HD
ENDBRANCH   7  21
ENDBRANCH   1   7
BRANCH   6  23
HETATM   23  N5  UNL     1       3.351 -34.333  18.388  1.00  0.00    -0.299 N 
ATOM     24  H5  UNL     1       4.361 -34.404  18.511  1.00  0.00     0.187 HD
BRANCH  23  25
HETATM   25  N6  UNL     1       2.961 -33.838  17.189  1.00  0.00    -0.311 N 
ATOM     26  H6  UNL     1       3.189 -34.317  16.318  1.00  0.00     0.186 HD
BRANCH  25  27
HETATM   27  C11 UNL     1       2.234 -32.643  17.194  1.00  0.00     0.118 C 
BRANCH  27  28
HETATM   28  C12 UNL     1       0.861 -32.809  16.580  1.00  0.00    -0.019 A 
HETATM   29  C13 UNL     1       0.128 -33.939  16.837  1.00  0.00     0.014 A 
HETATM   30  C14 UNL     1      -1.144 -34.107  16.296  1.00  0.00     0.024 A 
HETATM   31  C15 UNL     1      -1.700 -33.133  15.483  1.00  0.00     0.034 A 
HETATM   32 CL2  UNL     1      -3.303 -33.304  14.784  1.00  0.00    -0.084 Cl
HETATM   33  C16 UNL     1      -0.970 -32.010  15.228  1.00  0.00     0.024 A 
HETATM   34  C17 UNL     1       0.289 -31.865  15.774  1.00  0.00     0.014 A 
ENDBRANCH  27  28
ENDBRANCH  25  27
ENDBRANCH  23  25
ENDBRANCH   6  23
BRANCH   4  35
HETATM   35  O3  UNL     1       1.082 -34.536  22.721  1.00  0.00    -0.346 OA
ATOM     36  H3  UNL     1       1.608 -34.334  23.485  1.00  0.00     0.219 HD
ENDBRANCH   4  35
TORSDOF 16
ENDMDL
MODEL 2
REMARK VINA RESULT: -7.630221631      3.279      3.843
REMARK  16 active torsions:
REMARK  status: ('A' for Active; 'I' for Inactive)
REMARK    1  A    between atoms: O1_1  and  N1_3 
REMARK    2  A    between atoms: N1_3  and  N2_5 
REMARK    3  A    between atoms: N2_5  and  C1_6 
REMARK    4  A    between atoms: N2_5  and  C3_9 
REMARK    5  A    between atoms: C1_6  and  C2_7 
REMARK    6  A    between atoms: C3_9  and  C4_10 
REMARK    7  A    between atoms: C4_10  and  C5_11 
REMARK    8  A    between atoms: C5_11  and  N3_12 
REMARK    9  A    between atoms: N3_12  and  C6_14 
REMARK   10  A    between atoms: C6_14  and  O2_15 
REMARK   11  A    between atoms: C6_14  and  C7_17 
REMARK   12  A    between atoms: C8_20  and  O3_21 
REMARK   13  A    between atoms: C10_24  and  N5_25 
REMARK   14  A    between atoms: N5_25  and  N6_27 
REMARK   15  A    between atoms: N6_27  and  C11_29 
REMARK   16  A    between atoms: C11_29  and  C12_30 
ROOT
HETATM    1  C7  UNL     1       1.767 -35.757  19.319  1.00  0.00     0.088 A 
HETATM    2  N4  UNL     1       1.158 -35.825  20.528  1.00  0.00    -0.335 N 
ATOM      3  H4  UNL     1       0.465 -36.528  20.786  1.00  0.00     0.168 HD
HETATM    4  C8  UNL     1       1.582 -34.856  21.333  1.00  0.00     0.142 A 
HETATM    5  C9  UNL     1       2.512 -34.093  20.657  1.00  0.00     0.088 A 
HETATM    6  C10 UNL     1       2.629 -34.647  19.406  1.00  0.00     0.079 A 
ENDROOT
BRANCH   1   7
HETATM    7  C6  UNL     1       1.586 -36.661  18.173  1.00  0.00     0.270 C 
BRANCH   7   8
HETATM    8  N3  UNL     1       0.723 -37.744  18.261  1.00  0.00    -0.372 N 
ATOM      9  H3  UNL     1       0.834 -38.341  19.080  1.00  0.00     0.161 HD
BRANCH   8  10
HETATM   10  C5  UNL     1      -0.260 -38.106  17.379  1.00  0.00     0.060 C 
BRANCH  10  11
HETATM   11  C4  UNL     1       0.098 -38.302  15.941  1.00  0.00     0.065 C 
BRANCH  11  12
HETATM   12  C3  UNL     1       0.479 -39.749  15.738  1.00  0.00     0.149 C 
BRANCH  12  13
HETATM   13  N2  UNL     1       1.843 -39.972  15.398  1.00  0.00    -0.307 N 
BRANCH  13  14
HETATM   14  N1  UNL     1       2.836 -39.663  16.328  1.00  0.00    -0.212 N 
ATOM     15  H1  UNL     1       3.658 -39.155  16.004  1.00  0.00     0.215 HD
BRANCH  14  16
HETATM   16  O1  UNL     1       2.771 -39.972  17.522  1.00  0.00    -0.275 OA
ATOM     17  H1  UNL     1       2.870 -40.862  17.839  1.00  0.00     0.246 HD
ENDBRANCH  14  16
ENDBRANCH  13  14
BRANCH  13  18
HETATM   18  C1  UNL     1       2.253 -40.516  14.105  1.00  0.00     0.159 C 
BRANCH  18  19
HETATM   19  C2  UNL     1       1.105 -40.495  13.133  1.00  0.00     0.136 C 
HETATM   20 CL1  UNL     1       1.104 -38.936  12.279  1.00  0.00    -0.129 Cl
ENDBRANCH  18  19
ENDBRANCH  13  18
ENDBRANCH  12  13
ENDBRANCH  11  12
ENDBRANCH  10  11
ENDBRANCH   8  10
ENDBRANCH   7   8
BRANCH   7  21
HETATM   21  O2  UNL     1       2.863 -37.238  17.898  1.00  0.00    -0.371 OA
ATOM     22  H2  UNL     1       3.432 -36.495  17.732  1.00  0.00     0.212 HD
ENDBRANCH   7  21
ENDBRANCH   1   7
BRANCH   6  23
HETATM   23  N5  UNL     1       3.398 -34.161  18.304  1.00  0.00    -0.299 N 
ATOM     24  H5  UNL     1       4.401 -34.331  18.380  1.00  0.00     0.187 HD
BRANCH  23  25
HETATM   25  N6  UNL     1       3.019 -33.514  17.177  1.00  0.00    -0.311 N 
ATOM     26  H6  UNL     1       3.329 -33.825  16.257  1.00  0.00     0.186 HD
BRANCH  25  27
HETATM   27  C11 UNL     1       2.184 -32.401  17.327  1.00  0.00     0.118 C 
BRANCH  27  28
HETATM   28  C12 UNL     1       0.823 -32.621  16.705  1.00  0.00    -0.019 A 
HETATM   29  C13 UNL     1       0.529 -32.070  15.484  1.00  0.00     0.014 A 
HETATM   30  C14 UNL     1      -0.711 -32.273  14.885  1.00  0.00     0.024 A 
HETATM   31  C15 UNL     1      -1.681 -33.039  15.510  1.00  0.00     0.034 A 
HETATM   32 CL2  UNL     1      -3.256 -33.322  14.787  1.00  0.00    -0.084 Cl
HETATM   33  C16 UNL     1      -1.389 -33.586  16.725  1.00  0.00     0.024 A 
HETATM   34  C17 UNL     1      -0.153 -33.372  17.300  1.00  0.00     0.014 A 
ENDBRANCH  27  28
ENDBRANCH  25  27
ENDBRANCH  23  25
ENDBRANCH   6  23
BRANCH   4  35
HETATM   35  O3  UNL     1       1.200 -34.584  22.658  1.00  0.00    -0.346 OA
ATOM     36  H3  UNL     1       0.639 -33.890  22.984  1.00  0.00     0.219 HD
ENDBRANCH   4  35
TORSDOF 16
ENDMDL
MODEL 3
REMARK VINA RESULT: -7.578709120      2.804      3.938
REMARK  16 active torsions:
REMARK  status: ('A' for Active; 'I' for Inactive)
REMARK    1  A    between atoms: O1_1  and  N1_3 
REMARK    2  A    between atoms: N1_3  and  N2_5 
REMARK    3  A    between atoms: N2_5  and  C1_6 
REMARK    4  A    between atoms: N2_5  and  C3_9 
REMARK    5  A    between atoms: C1_6  and  C2_7 
REMARK    6  A    between atoms: C3_9  and  C4_10 
REMARK    7  A    between atoms: C4_10  and  C5_11 
REMARK    8  A    between atoms: C5_11  and  N3_12 
REMARK    9  A    between atoms: N3_12  and  C6_14 
REMARK   10  A    between atoms: C6_14  and  O2_15 
REMARK   11  A    between atoms: C6_14  and  C7_17 
REMARK   12  A    between atoms: C8_20  and  O3_21 
REMARK   13  A    between atoms: C10_24  and  N5_25 
REMARK   14  A    between atoms: N5_25  and  N6_27 
REMARK   15  A    between atoms: N6_27  and  C11_29 
REMARK   16  A    between atoms: C11_29  and  C12_30 
ROOT
HETATM    1  C7  UNL     1      -0.780 -37.151  19.999  1.00  0.00     0.088 A 
HETATM    2  N4  UNL     1      -1.622 -36.949  18.956  1.00  0.00    -0.335 N 
ATOM      3  H4  UNL     1      -1.923 -37.678  18.309  1.00  0.00     0.168 HD
HETATM    4  C8  UNL     1      -2.005 -35.679  18.887  1.00  0.00     0.142 A 
HETATM    5  C9  UNL     1      -1.405 -34.979  19.915  1.00  0.00     0.088 A 
HETATM    6  C10 UNL     1      -0.642 -35.888  20.606  1.00  0.00     0.079 A 
ENDROOT
BRANCH   1   7
HETATM    7  C6  UNL     1      -0.163 -38.417  20.419  1.00  0.00     0.270 C 
BRANCH   7   8
HETATM    8  N3  UNL     1      -0.683 -39.134  21.487  1.00  0.00    -0.372 N 
ATOM      9  H3  UNL     1      -0.382 -38.839  22.415  1.00  0.00     0.161 HD
BRANCH   8  10
HETATM   10  C5  UNL     1      -1.553 -40.191  21.443  1.00  0.00     0.060 C 
BRANCH  10  11
HETATM   11  C4  UNL     1      -1.006 -41.579  21.522  1.00  0.00     0.065 C 
BRANCH  11  12
HETATM   12  C3  UNL     1       0.230 -41.555  22.390  1.00  0.00     0.149 C 
BRANCH  12  13
HETATM   13  N2  UNL     1       1.463 -41.665  21.688  1.00  0.00    -0.307 N 
BRANCH  13  14
HETATM   14  N1  UNL     1       2.658 -41.663  22.407  1.00  0.00    -0.212 N 
ATOM     15  H1  UNL     1       3.035 -40.766  22.713  1.00  0.00     0.215 HD
BRANCH  14  16
HETATM   16  O1  UNL     1       3.284 -42.688  22.692  1.00  0.00    -0.275 OA
ATOM     17  H1  UNL     1       3.151 -43.176  23.496  1.00  0.00     0.246 HD
ENDBRANCH  14  16
ENDBRANCH  13  14
BRANCH  13  18
HETATM   18  C1  UNL     1       1.533 -41.780  20.232  1.00  0.00     0.159 C 
BRANCH  18  19
HETATM   19  C2  UNL     1       2.642 -40.922  19.686  1.00  0.00     0.136 C 
HETATM   20 CL1  UNL     1       2.101 -40.189  18.159  1.00  0.00    -0.129 Cl
ENDBRANCH  18  19
ENDBRANCH  13  18
ENDBRANCH  12  13
ENDBRANCH  11  12
ENDBRANCH  10  11
ENDBRANCH   8  10
ENDBRANCH   7   8
BRANCH   7  21
HETATM   21  O2  UNL     1       1.178 -38.113  20.807  1.00  0.00    -0.371 OA
ATOM     22  H2  UNL     1       1.144 -38.042  21.754  1.00  0.00     0.212 HD
ENDBRANCH   7  21
ENDBRANCH   1   7
BRANCH   6  23
HETATM   23  N5  UNL     1       0.242 -35.634  21.699  1.00  0.00    -0.299 N 
ATOM     24  H5  UNL     1       0.231 -36.346  22.429  1.00  0.00     0.187 HD
BRANCH  23  25
HETATM   25  N6  UNL     1       1.093 -34.605  21.928  1.00  0.00    -0.311 N 
ATOM     26  H6  UNL     1       0.855 -33.854  22.576  1.00  0.00     0.186 HD
BRANCH  25  27
HETATM   27  C11 UNL     1       2.311 -34.613  21.239  1.00  0.00     0.118 C 
BRANCH  27  28
HETATM   28  C12 UNL     1       2.221 -33.891  19.913  1.00  0.00    -0.019 A 
HETATM   29  C13 UNL     1       1.535 -32.707  19.822  1.00  0.00     0.014 A 
HETATM   30  C14 UNL     1       1.453 -32.016  18.616  1.00  0.00     0.024 A 
HETATM   31  C15 UNL     1       2.063 -32.511  17.476  1.00  0.00     0.034 A 
HETATM   32 CL2  UNL     1       1.986 -31.669  15.936  1.00  0.00    -0.084 Cl
HETATM   33  C16 UNL     1       2.743 -33.689  17.566  1.00  0.00     0.024 A 
HETATM   34  C17 UNL     1       2.812 -34.357  18.772  1.00  0.00     0.014 A 
ENDBRANCH  27  28
ENDBRANCH  25  27
ENDBRANCH  23  25
ENDBRANCH   6  23
BRANCH   4  35
HETATM   35  O3  UNL     1      -2.867 -35.069  17.960  1.00  0.00    -0.346 OA
ATOM     36  H3  UNL     1      -2.780 -35.011  17.017  1.00  0.00     0.219 HD
ENDBRANCH   4  35
TORSDOF 16
ENDMDL
MODEL 4
REMARK VINA RESULT: -7.454584628      2.466      3.084
REMARK  16 active torsions:
REMARK  status: ('A' for Active; 'I' for Inactive)
REMARK    1  A    between atoms: O1_1  and  N1_3 
REMARK    2  A    between atoms: N1_3  and  N2_5 
REMARK    3  A    between atoms: N2_5  and  C1_6 
REMARK    4  A    between atoms: N2_5  and  C3_9 
REMARK    5  A    between atoms: C1_6  and  C2_7 
REMARK    6  A    between atoms: C3_9  and  C4_10 
REMARK    7  A    between atoms: C4_10  and  C5_11 
REMARK    8  A    between atoms: C5_11  and  N3_12 
REMARK    9  A    between atoms: N3_12  and  C6_14 
REMARK   10  A    between atoms: C6_14  and  O2_15 
REMARK   11  A    between atoms: C6_14  and  C7_17 
REMARK   12  A    between atoms: C8_20  and  O3_21 
REMARK   13  A    between atoms: C10_24  and  N5_25 
REMARK   14  A    between atoms: N5_25  and  N6_27 
REMARK   15  A    between atoms: N6_27  and  C11_29 
REMARK   16  A    between atoms: C11_29  and  C12_30 
ROOT
HETATM    1  C7  UNL     1      -0.500 -36.217  20.767  1.00  0.00     0.088 A 
HETATM    2  N4  UNL     1       0.543 -35.824  21.538  1.00  0.00    -0.335 N 
ATOM      3  H4  UNL     1       1.081 -36.446  22.141  1.00  0.00     0.168 HD
HETATM    4  C8  UNL     1       0.773 -34.522  21.405  1.00  0.00     0.142 A 
HETATM    5  C9  UNL     1      -0.143 -33.998  20.515  1.00  0.00     0.088 A 
HETATM    6  C10 UNL     1      -0.937 -35.046  20.118  1.00  0.00     0.079 A 
ENDROOT
BRANCH   1   7
HETATM    7  C6  UNL     1      -1.043 -37.576  20.622  1.00  0.00     0.270 C 
BRANCH   7   8
HETATM    8  N3  UNL     1      -0.756 -38.332  19.494  1.00  0.00    -0.372 N 
ATOM      9  H3  UNL     1      -1.344 -38.161  18.678  1.00  0.00     0.161 HD
BRANCH   8  10
HETATM   10  C5  UNL     1       0.220 -39.279  19.347  1.00  0.00     0.060 C 
BRANCH  10  11
HETATM   11  C4  UNL     1       1.326 -39.339  20.351  1.00  0.00     0.065 C 
BRANCH  11  12
HETATM   12  C3  UNL     1       1.893 -40.739  20.352  1.00  0.00     0.149 C 
BRANCH  12  13
HETATM   13  N2  UNL     1       1.553 -41.528  21.486  1.00  0.00    -0.307 N 
BRANCH  13  14
HETATM   14  N1  UNL     1       2.481 -41.675  22.517  1.00  0.00    -0.212 N 
ATOM     15  H1  UNL     1       2.540 -40.941  23.222  1.00  0.00     0.215 HD
BRANCH  14  16
HETATM   16  O1  UNL     1       3.234 -42.647  22.621  1.00  0.00    -0.275 OA
ATOM     17  H1  UNL     1       3.022 -43.423  23.127  1.00  0.00     0.246 HD
ENDBRANCH  14  16
ENDBRANCH  13  14
BRANCH  13  18
HETATM   18  C1  UNL     1       0.260 -42.198  21.620  1.00  0.00     0.159 C 
BRANCH  18  19
HETATM   19  C2  UNL     1      -0.572 -41.536  22.685  1.00  0.00     0.136 C 
HETATM   20 CL1  UNL     1      -1.998 -40.797  21.924  1.00  0.00    -0.129 Cl
ENDBRANCH  18  19
ENDBRANCH  13  18
ENDBRANCH  12  13
ENDBRANCH  11  12
ENDBRANCH  10  11
ENDBRANCH   8  10
ENDBRANCH   7   8
BRANCH   7  21
HETATM   21  O2  UNL     1      -2.466 -37.452  20.622  1.00  0.00    -0.371 OA
ATOM     22  H2  UNL     1      -2.642 -36.689  21.159  1.00  0.00     0.212 HD
ENDBRANCH   7  21
ENDBRANCH   1   7
BRANCH   6  23
HETATM   23  N5  UNL     1      -2.089 -34.998  19.274  1.00  0.00    -0.299 N 
ATOM     24  H5  UNL     1      -2.909 -34.568  19.701  1.00  0.00     0.187 HD
BRANCH  23  25
HETATM   25  N6  UNL     1      -2.273 -35.428  18.004  1.00  0.00    -0.311 N 
ATOM     26  H6  UNL     1      -2.295 -36.422  17.778  1.00  0.00     0.186 HD
BRANCH  25  27
HETATM   27  C11 UNL     1      -2.431 -34.453  17.013  1.00  0.00     0.118 C 
BRANCH  27  28
HETATM   28  C12 UNL     1      -1.152 -33.689  16.755  1.00  0.00    -0.019 A 
HETATM   29  C13 UNL     1      -1.197 -32.342  16.500  1.00  0.00     0.014 A 
HETATM   30  C14 UNL     1      -0.031 -31.615  16.276  1.00  0.00     0.024 A 
HETATM   31  C15 UNL     1       1.206 -32.237  16.304  1.00  0.00     0.034 A 
HETATM   32 CL2  UNL     1       2.701 -31.356  16.030  1.00  0.00    -0.084 Cl
HETATM   33  C16 UNL     1       1.251 -33.576  16.556  1.00  0.00     0.024 A 
HETATM   34  C17 UNL     1       0.082 -34.277  16.776  1.00  0.00     0.014 A 
ENDBRANCH  27  28
ENDBRANCH  25  27
ENDBRANCH  23  25
ENDBRANCH   6  23
BRANCH   4  35
HETATM   35  O3  UNL     1       1.757 -33.734  22.027  1.00  0.00    -0.346 OA
ATOM     36  H3  UNL     1       1.836 -32.788  22.048  1.00  0.00     0.219 HD
ENDBRANCH   4  35
TORSDOF 16
ENDMDL
MODEL 5
REMARK VINA RESULT: -7.430614475      1.728      2.026
REMARK  16 active torsions:
REMARK  status: ('A' for Active; 'I' for Inactive)
REMARK    1  A    between atoms: O1_1  and  N1_3 
REMARK    2  A    between atoms: N1_3  and  N2_5 
REMARK    3  A    between atoms: N2_5  and  C1_6 
REMARK    4  A    between atoms: N2_5  and  C3_9 
REMARK    5  A    between atoms: C1_6  and  C2_7 
REMARK    6  A    between atoms: C3_9  and  C4_10 
REMARK    7  A    between atoms: C4_10  and  C5_11 
REMARK    8  A    between atoms: C5_11  and  N3_12 
REMARK    9  A    between atoms: N3_12  and  C6_14 
REMARK   10  A    between atoms: C6_14  and  O2_15 
REMARK   11  A    between atoms: C6_14  and  C7_17 
REMARK   12  A    between atoms: C8_20  and  O3_21 
REMARK   13  A    between atoms: C10_24  and  N5_25 
REMARK   14  A    between atoms: N5_25  and  N6_27 
REMARK   15  A    between atoms: N6_27  and  C11_29 
REMARK   16  A    between atoms: C11_29  and  C12_30 
ROOT
HETATM    1  C7  UNL     1       1.785 -35.769  19.320  1.00  0.00     0.088 A 
HETATM    2  N4  UNL     1       1.180 -35.821  20.532  1.00  0.00    -0.335 N 
ATOM      3  H4  UNL     1       0.495 -36.525  20.805  1.00  0.00     0.168 HD
HETATM    4  C8  UNL     1       1.597 -34.833  21.318  1.00  0.00     0.142 A 
HETATM    5  C9  UNL     1       2.517 -34.073  20.625  1.00  0.00     0.088 A 
HETATM    6  C10 UNL     1       2.636 -34.649  19.384  1.00  0.00     0.079 A 
ENDROOT
BRANCH   1   7
HETATM    7  C6  UNL     1       1.609 -36.696  18.192  1.00  0.00     0.270 C 
BRANCH   7   8
HETATM    8  N3  UNL     1       0.787 -37.807  18.315  1.00  0.00    -0.372 N 
ATOM      9  H3  UNL     1      -0.111 -37.652  18.773  1.00  0.00     0.161 HD
BRANCH   8  10
HETATM   10  C5  UNL     1       1.037 -39.085  17.894  1.00  0.00     0.060 C 
BRANCH  10  11
HETATM   11  C4  UNL     1       1.273 -40.148  18.918  1.00  0.00     0.065 C 
BRANCH  11  12
HETATM   12  C3  UNL     1      -0.029 -40.415  19.636  1.00  0.00     0.149 C 
BRANCH  12  13
HETATM   13  N2  UNL     1       0.012 -40.238  21.048  1.00  0.00    -0.307 N 
BRANCH  13  14
HETATM   14  N1  UNL     1      -0.001 -38.946  21.573  1.00  0.00    -0.212 N 
ATOM     15  H1  UNL     1       0.540 -38.763  22.418  1.00  0.00     0.215 HD
BRANCH  14  16
HETATM   16  O1  UNL     1      -0.633 -38.012  21.070  1.00  0.00    -0.275 OA
ATOM     17  H1  UNL     1      -1.402 -38.133  20.526  1.00  0.00     0.246 HD
ENDBRANCH  14  16
ENDBRANCH  13  14
BRANCH  13  18
HETATM   18  C1  UNL     1       0.069 -41.362  21.981  1.00  0.00     0.159 C 
BRANCH  18  19
HETATM   19  C2  UNL     1       1.083 -42.377  21.526  1.00  0.00     0.136 C 
HETATM   20 CL1  UNL     1       2.705 -41.817  21.990  1.00  0.00    -0.129 Cl
ENDBRANCH  18  19
ENDBRANCH  13  18
ENDBRANCH  12  13
ENDBRANCH  11  12
ENDBRANCH  10  11
ENDBRANCH   8  10
ENDBRANCH   7   8
BRANCH   7  21
HETATM   21  O2  UNL     1       2.899 -37.233  17.895  1.00  0.00    -0.371 OA
ATOM     22  H2  UNL     1       3.483 -36.810  18.514  1.00  0.00     0.212 HD
ENDBRANCH   7  21
ENDBRANCH   1   7
BRANCH   6  23
HETATM   23  N5  UNL     1       3.398 -34.177  18.271  1.00  0.00    -0.299 N 
ATOM     24  H5  UNL     1       4.396 -34.376  18.325  1.00  0.00     0.187 HD
BRANCH  23  25
HETATM   25  N6  UNL     1       3.015 -33.508  17.157  1.00  0.00    -0.311 N 
ATOM     26  H6  UNL     1       3.327 -33.799  16.231  1.00  0.00     0.186 HD
BRANCH  25  27
HETATM   27  C11 UNL     1       2.174 -32.403  17.329  1.00  0.00     0.118 C 
BRANCH  27  28
HETATM   28  C12 UNL     1       0.812 -32.621  16.708  1.00  0.00    -0.019 A 
HETATM   29  C13 UNL     1       0.518 -32.067  15.488  1.00  0.00     0.014 A 
HETATM   30  C14 UNL     1      -0.723 -32.268  14.890  1.00  0.00     0.024 A 
HETATM   31  C15 UNL     1      -1.693 -33.033  15.516  1.00  0.00     0.034 A 
HETATM   32 CL2  UNL     1      -3.270 -33.314  14.794  1.00  0.00    -0.084 Cl
HETATM   33  C16 UNL     1      -1.401 -33.583  16.729  1.00  0.00     0.024 A 
HETATM   34  C17 UNL     1      -0.163 -33.371  17.303  1.00  0.00     0.014 A 
ENDBRANCH  27  28
ENDBRANCH  25  27
ENDBRANCH  23  25
ENDBRANCH   6  23
BRANCH   4  35
HETATM   35  O3  UNL     1       1.216 -34.540  22.639  1.00  0.00    -0.346 OA
ATOM     36  H3  UNL     1       0.392 -34.191  22.956  1.00  0.00     0.219 HD
ENDBRANCH   4  35
TORSDOF 16
ENDMDL
