MODEL 1
REMARK VINA RESULT: -7.198027034      0.000      0.000
REMARK  13 active torsions:
REMARK  status: ('A' for Active; 'I' for Inactive)
REMARK    1  A    between atoms: N1_1  and  C1_4 
REMARK    2  A    between atoms: C2_9  and  S1_10 
REMARK    3  A    between atoms: S1_10  and  C3_11 
REMARK    4  A    between atoms: C3_11  and  C4_12 
REMARK    5  A    between atoms: C4_12  and  N4_13 
REMARK    6  A    between atoms: N4_13  and  C5_15 
REMARK    7  A    between atoms: C5_15  and  C6_16 
REMARK    8  A    between atoms: C6_16  and  C7_17 
REMARK    9  A    between atoms: C7_17  and  C8_18 
REMARK   10  A    between atoms: C8_18  and  C9_19 
REMARK   11  A    between atoms: C9_19  and  N5_20 
REMARK   12  A    between atoms: N5_20  and  C10_22 
REMARK   13  A    between atoms: C10_22  and  C11_23 
ROOT
HETATM    1  N4  UNL     1       1.422 -35.629  20.987  1.00  0.00    -0.401 N 
ATOM      2  H4  UNL     1       2.181 -36.148  21.429  1.00  0.00     0.158 HD
ENDROOT
BRANCH   1   3
HETATM    3  C4  UNL     1       0.946 -36.021  19.717  1.00  0.00     0.129 C 
BRANCH   3   4
HETATM    4  C3  UNL     1       0.967 -37.540  19.599  1.00  0.00     0.102 C 
BRANCH   4   5
HETATM    5  S1  UNL     1      -0.312 -38.298  20.638  1.00  0.00    -0.090 SA
BRANCH   5   6
HETATM    6  C2  UNL     1       0.341 -39.767  21.443  1.00  0.00     0.174 A 
HETATM    7  N3  UNL     1      -0.326 -40.688  22.122  1.00  0.00    -0.265 N 
HETATM    8  N2  UNL     1       0.534 -41.622  22.584  1.00  0.00    -0.130 N 
ATOM      9  H3  UNL     1      -1.335 -40.691  22.274  1.00  0.00     0.189 HD
HETATM   10  C1  UNL     1       1.786 -41.271  22.180  1.00  0.00     0.692 A 
ATOM     11  H2  UNL     1       0.290 -42.443  23.137  1.00  0.00     0.205 HD
HETATM   12  N6  UNL     1       1.648 -40.135  21.484  1.00  0.00    -0.168 N 
ATOM     13  H6  UNL     1       2.414 -39.621  21.049  1.00  0.00     0.186 HD
BRANCH  10  14
HETATM   14  N1  UNL     1       2.845 -41.952  22.465  1.00  0.00    -0.233 N 
ATOM     15  H12 UNL     1       3.548 -41.803  23.188  1.00  0.00     0.174 HD
ATOM     16  H11 UNL     1       3.124 -42.796  21.965  1.00  0.00     0.174 HD
ENDBRANCH  10  14
ENDBRANCH   5   6
ENDBRANCH   4   5
ENDBRANCH   3   4
ENDBRANCH   1   3
BRANCH   1  17
HETATM   17  C5  UNL     1       0.850 -34.522  21.648  1.00  0.00     0.055 C 
BRANCH  17  18
HETATM   18  C6  UNL     1       0.918 -33.184  20.979  1.00  0.00     0.044 C 
BRANCH  18  19
HETATM   19  C7  UNL     1      -0.474 -32.638  20.804  1.00  0.00     0.010 C 
BRANCH  19  20
HETATM   20  C8  UNL     1      -0.543 -31.188  21.135  1.00  0.00     0.044 C 
BRANCH  20  21
HETATM   21  C9  UNL     1       0.470 -30.382  20.362  1.00  0.00     0.056 C 
BRANCH  21  22
HETATM   22  N5  UNL     1       0.226 -30.110  19.013  1.00  0.00    -0.398 N 
ATOM     23  H5  UNL     1      -0.574 -29.537  18.743  1.00  0.00     0.158 HD
BRANCH  22  24
HETATM   24  C10 UNL     1       1.081 -30.627  18.035  1.00  0.00     0.159 C 
BRANCH  24  25
HETATM   25  C11 UNL     1       0.471 -31.783  17.236  1.00  0.00    -0.010 A 
HETATM   26  C12 UNL     1      -0.728 -31.703  16.612  1.00  0.00     0.042 A 
HETATM   27  C13 UNL     1      -1.208 -32.864  16.053  1.00  0.00     0.076 A 
HETATM   28 CL1  UNL     1      -2.755 -33.071  15.192  1.00  0.00    -0.076 Cl
HETATM   29  S2  UNL     1      -0.000 -34.008  16.403  1.00  0.00    -0.065 SA
HETATM   30  C14 UNL     1       1.086 -33.003  17.248  1.00  0.00     0.084 A 
HETATM   31 CL2  UNL     1       2.661 -33.415  17.972  1.00  0.00    -0.076 Cl
ENDBRANCH  24  25
ENDBRANCH  22  24
ENDBRANCH  21  22
ENDBRANCH  20  21
ENDBRANCH  19  20
ENDBRANCH  18  19
ENDBRANCH  17  18
ENDBRANCH   1  17
TORSDOF 13
ENDMDL
MODEL 2
REMARK VINA RESULT: -7.057075990      1.329      1.587
REMARK  13 active torsions:
REMARK  status: ('A' for Active; 'I' for Inactive)
REMARK    1  A    between atoms: N1_1  and  C1_4 
REMARK    2  A    between atoms: C2_9  and  S1_10 
REMARK    3  A    between atoms: S1_10  and  C3_11 
REMARK    4  A    between atoms: C3_11  and  C4_12 
REMARK    5  A    between atoms: C4_12  and  N4_13 
REMARK    6  A    between atoms: N4_13  and  C5_15 
REMARK    7  A    between atoms: C5_15  and  C6_16 
REMARK    8  A    between atoms: C6_16  and  C7_17 
REMARK    9  A    between atoms: C7_17  and  C8_18 
REMARK   10  A    between atoms: C8_18  and  C9_19 
REMARK   11  A    between atoms: C9_19  and  N5_20 
REMARK   12  A    between atoms: N5_20  and  C10_22 
REMARK   13  A    between atoms: C10_22  and  C11_23 
ROOT
HETATM    1  N4  UNL     1       0.616 -35.263  21.587  1.00  0.00    -0.401 N 
ATOM      2  H4  UNL     1       1.084 -35.563  22.443  1.00  0.00     0.158 HD
ENDROOT
BRANCH   1   3
HETATM    3  C4  UNL     1      -0.135 -36.191  20.833  1.00  0.00     0.129 C 
BRANCH   3   4
HETATM    4  C3  UNL     1       0.796 -37.182  20.148  1.00  0.00     0.102 C 
BRANCH   4   5
HETATM    5  S1  UNL     1      -0.124 -38.590  19.470  1.00  0.00    -0.090 SA
BRANCH   5   6
HETATM    6  C2  UNL     1      -0.742 -39.623  20.806  1.00  0.00     0.174 A 
HETATM    7  N3  UNL     1      -1.958 -39.635  21.330  1.00  0.00    -0.265 N 
HETATM    8  N2  UNL     1      -2.011 -40.544  22.328  1.00  0.00    -0.130 N 
ATOM      9  H3  UNL     1      -2.736 -39.049  21.026  1.00  0.00     0.189 HD
HETATM   10  C1  UNL     1      -0.782 -41.119  22.434  1.00  0.00     0.692 A 
ATOM     11  H2  UNL     1      -2.827 -40.760  22.901  1.00  0.00     0.205 HD
HETATM   12  N6  UNL     1      -0.019 -40.544  21.496  1.00  0.00    -0.168 N 
ATOM     13  H6  UNL     1       0.962 -40.764  21.325  1.00  0.00     0.186 HD
BRANCH  10  14
HETATM   14  N1  UNL     1      -0.492 -42.027  23.304  1.00  0.00    -0.233 N 
ATOM     15  H12 UNL     1      -0.891 -42.955  23.446  1.00  0.00     0.174 HD
ATOM     16  H11 UNL     1       0.239 -41.921  24.008  1.00  0.00     0.174 HD
ENDBRANCH  10  14
ENDBRANCH   5   6
ENDBRANCH   4   5
ENDBRANCH   3   4
ENDBRANCH   1   3
BRANCH   1  17
HETATM   17  C5  UNL     1       0.722 -33.923  21.162  1.00  0.00     0.055 C 
BRANCH  17  18
HETATM   18  C6  UNL     1      -0.506 -33.245  20.638  1.00  0.00     0.044 C 
BRANCH  18  19
HETATM   19  C7  UNL     1      -0.362 -31.755  20.791  1.00  0.00     0.010 C 
BRANCH  19  20
HETATM   20  C8  UNL     1       0.963 -31.278  20.307  1.00  0.00     0.044 C 
BRANCH  20  21
HETATM   21  C9  UNL     1       0.831 -30.172  19.290  1.00  0.00     0.056 C 
BRANCH  21  22
HETATM   22  N5  UNL     1       0.281 -30.470  18.041  1.00  0.00    -0.398 N 
ATOM     23  H5  UNL     1      -0.596 -30.038  17.751  1.00  0.00     0.158 HD
BRANCH  22  24
HETATM   24  C10 UNL     1       0.938 -31.364  17.188  1.00  0.00     0.159 C 
BRANCH  24  25
HETATM   25  C11 UNL     1       0.170 -32.668  16.958  1.00  0.00    -0.010 A 
HETATM   26  C12 UNL     1      -1.123 -32.709  16.558  1.00  0.00     0.042 A 
HETATM   27  C13 UNL     1      -1.718 -33.947  16.529  1.00  0.00     0.076 A 
HETATM   28 CL1  UNL     1      -3.402 -34.310  16.068  1.00  0.00    -0.076 Cl
HETATM   29  S2  UNL     1      -0.487 -34.998  17.048  1.00  0.00    -0.065 SA
HETATM   30  C14 UNL     1       0.755 -33.857  17.293  1.00  0.00     0.084 A 
HETATM   31 CL2  UNL     1       2.429 -34.124  17.839  1.00  0.00    -0.076 Cl
ENDBRANCH  24  25
ENDBRANCH  22  24
ENDBRANCH  21  22
ENDBRANCH  20  21
ENDBRANCH  19  20
ENDBRANCH  18  19
ENDBRANCH  17  18
ENDBRANCH   1  17
TORSDOF 13
ENDMDL
MODEL 3
REMARK VINA RESULT: -7.053339807      1.508      1.534
REMARK  13 active torsions:
REMARK  status: ('A' for Active; 'I' for Inactive)
REMARK    1  A    between atoms: N1_1  and  C1_4 
REMARK    2  A    between atoms: C2_9  and  S1_10 
REMARK    3  A    between atoms: S1_10  and  C3_11 
REMARK    4  A    between atoms: C3_11  and  C4_12 
REMARK    5  A    between atoms: C4_12  and  N4_13 
REMARK    6  A    between atoms: N4_13  and  C5_15 
REMARK    7  A    between atoms: C5_15  and  C6_16 
REMARK    8  A    between atoms: C6_16  and  C7_17 
REMARK    9  A    between atoms: C7_17  and  C8_18 
REMARK   10  A    between atoms: C8_18  and  C9_19 
REMARK   11  A    between atoms: C9_19  and  N5_20 
REMARK   12  A    between atoms: N5_20  and  C10_22 
REMARK   13  A    between atoms: C10_22  and  C11_23 
ROOT
HETATM    1  N4  UNL     1       0.205 -35.663  21.554  1.00  0.00    -0.401 N 
ATOM      2  H4  UNL     1       0.180 -35.656  22.574  1.00  0.00     0.158 HD
ENDROOT
BRANCH   1   3
HETATM    3  C4  UNL     1      -0.689 -36.486  20.834  1.00  0.00     0.129 C 
BRANCH   3   4
HETATM    4  C3  UNL     1      -0.133 -37.901  20.738  1.00  0.00     0.102 C 
BRANCH   4   5
HETATM    5  S1  UNL     1      -1.459 -39.114  20.488  1.00  0.00    -0.090 SA
BRANCH   5   6
HETATM    6  C2  UNL     1      -1.128 -40.594  21.452  1.00  0.00     0.174 A 
HETATM    7  N3  UNL     1      -1.142 -40.729  22.770  1.00  0.00    -0.265 N 
HETATM    8  N2  UNL     1      -0.822 -41.999  23.099  1.00  0.00    -0.130 N 
ATOM      9  H3  UNL     1      -1.361 -39.986  23.434  1.00  0.00     0.189 HD
HETATM   10  C1  UNL     1      -0.597 -42.684  21.945  1.00  0.00     0.692 A 
ATOM     11  H2  UNL     1      -0.759 -42.377  24.044  1.00  0.00     0.205 HD
HETATM   12  N6  UNL     1      -0.788 -41.810  20.949  1.00  0.00    -0.168 N 
ATOM     13  H6  UNL     1      -0.693 -42.025  19.956  1.00  0.00     0.186 HD
BRANCH  10  14
HETATM   14  N1  UNL     1      -0.258 -43.929  21.908  1.00  0.00    -0.233 N 
ATOM     15  H12 UNL     1       0.442 -44.437  22.448  1.00  0.00     0.174 HD
ATOM     16  H11 UNL     1      -0.692 -44.614  21.289  1.00  0.00     0.174 HD
ENDBRANCH  10  14
ENDBRANCH   5   6
ENDBRANCH   4   5
ENDBRANCH   3   4
ENDBRANCH   1   3
BRANCH   1  17
HETATM   17  C5  UNL     1       1.131 -34.851  20.869  1.00  0.00     0.055 C 
BRANCH  17  18
HETATM   18  C6  UNL     1       1.109 -33.376  21.127  1.00  0.00     0.044 C 
BRANCH  18  19
HETATM   19  C7  UNL     1      -0.285 -32.849  20.911  1.00  0.00     0.010 C 
BRANCH  19  20
HETATM   20  C8  UNL     1      -0.324 -31.362  20.956  1.00  0.00     0.044 C 
BRANCH  20  21
HETATM   21  C9  UNL     1       0.690 -30.738  20.031  1.00  0.00     0.056 C 
BRANCH  21  22
HETATM   22  N5  UNL     1       0.280 -30.335  18.757  1.00  0.00    -0.398 N 
ATOM     23  H5  UNL     1      -0.433 -29.613  18.654  1.00  0.00     0.158 HD
BRANCH  22  24
HETATM   24  C10 UNL     1       0.850 -30.926  17.624  1.00  0.00     0.159 C 
BRANCH  24  25
HETATM   25  C11 UNL     1       0.256 -32.296  17.284  1.00  0.00    -0.010 A 
HETATM   26  C12 UNL     1      -1.050 -32.486  16.982  1.00  0.00     0.042 A 
HETATM   27  C13 UNL     1      -1.463 -33.789  16.836  1.00  0.00     0.076 A 
HETATM   28 CL1  UNL     1      -3.115 -34.347  16.462  1.00  0.00    -0.076 Cl
HETATM   29  S2  UNL     1      -0.052 -34.693  17.115  1.00  0.00    -0.065 SA
HETATM   30  C14 UNL     1       1.034 -33.413  17.412  1.00  0.00     0.084 A 
HETATM   31 CL2  UNL     1       2.773 -33.483  17.788  1.00  0.00    -0.076 Cl
ENDBRANCH  24  25
ENDBRANCH  22  24
ENDBRANCH  21  22
ENDBRANCH  20  21
ENDBRANCH  19  20
ENDBRANCH  18  19
ENDBRANCH  17  18
ENDBRANCH   1  17
TORSDOF 13
ENDMDL
MODEL 4
REMARK VINA RESULT: -6.914768575      2.442      3.178
REMARK  13 active torsions:
REMARK  status: ('A' for Active; 'I' for Inactive)
REMARK    1  A    between atoms: N1_1  and  C1_4 
REMARK    2  A    between atoms: C2_9  and  S1_10 
REMARK    3  A    between atoms: S1_10  and  C3_11 
REMARK    4  A    between atoms: C3_11  and  C4_12 
REMARK    5  A    between atoms: C4_12  and  N4_13 
REMARK    6  A    between atoms: N4_13  and  C5_15 
REMARK    7  A    between atoms: C5_15  and  C6_16 
REMARK    8  A    between atoms: C6_16  and  C7_17 
REMARK    9  A    between atoms: C7_17  and  C8_18 
REMARK   10  A    between atoms: C8_18  and  C9_19 
REMARK   11  A    between atoms: C9_19  and  N5_20 
REMARK   12  A    between atoms: N5_20  and  C10_22 
REMARK   13  A    between atoms: C10_22  and  C11_23 
ROOT
HETATM    1  N4  UNL     1       1.550 -36.083  20.514  1.00  0.00    -0.401 N 
ATOM      2  H4  UNL     1       1.707 -36.243  21.508  1.00  0.00     0.158 HD
ENDROOT
BRANCH   1   3
HETATM    3  C4  UNL     1       0.681 -36.932  19.793  1.00  0.00     0.129 C 
BRANCH   3   4
HETATM    4  C3  UNL     1       0.730 -38.341  20.371  1.00  0.00     0.102 C 
BRANCH   4   5
HETATM    5  S1  UNL     1      -0.934 -39.038  20.548  1.00  0.00    -0.090 SA
BRANCH   5   6
HETATM    6  C2  UNL     1      -0.860 -40.583  21.464  1.00  0.00     0.174 A 
HETATM    7  N3  UNL     1      -0.984 -40.762  22.771  1.00  0.00    -0.265 N 
HETATM    8  N2  UNL     1      -0.848 -42.074  23.063  1.00  0.00    -0.130 N 
ATOM      9  H3  UNL     1      -1.155 -40.022  23.452  1.00  0.00     0.189 HD
HETATM   10  C1  UNL     1      -0.630 -42.740  21.896  1.00  0.00     0.692 A 
ATOM     11  H2  UNL     1      -0.900 -42.491  23.992  1.00  0.00     0.205 HD
HETATM   12  N6  UNL     1      -0.640 -41.813  20.930  1.00  0.00    -0.168 N 
ATOM     13  H6  UNL     1      -0.503 -42.003  19.937  1.00  0.00     0.186 HD
BRANCH  10  14
HETATM   14  N1  UNL     1      -0.448 -44.016  21.826  1.00  0.00    -0.233 N 
ATOM     15  H12 UNL     1      -0.002 -44.655  22.484  1.00  0.00     0.174 HD
ATOM     16  H11 UNL     1      -0.762 -44.588  21.042  1.00  0.00     0.174 HD
ENDBRANCH  10  14
ENDBRANCH   5   6
ENDBRANCH   4   5
ENDBRANCH   3   4
ENDBRANCH   1   3
BRANCH   1  17
HETATM   17  C5  UNL     1       2.199 -35.015  19.863  1.00  0.00     0.055 C 
BRANCH  17  18
HETATM   18  C6  UNL     1       2.295 -35.047  18.368  1.00  0.00     0.044 C 
BRANCH  18  19
HETATM   19  C7  UNL     1       2.984 -33.800  17.882  1.00  0.00     0.010 C 
BRANCH  19  20
HETATM   20  C8  UNL     1       2.600 -33.469  16.482  1.00  0.00     0.044 C 
BRANCH  20  21
HETATM   21  C9  UNL     1       2.277 -32.006  16.313  1.00  0.00     0.056 C 
BRANCH  21  22
HETATM   22  N5  UNL     1       0.939 -31.623  16.189  1.00  0.00    -0.398 N 
ATOM     23  H5  UNL     1       0.416 -31.855  15.344  1.00  0.00     0.158 HD
BRANCH  22  24
HETATM   24  C10 UNL     1       0.319 -30.919  17.226  1.00  0.00     0.159 C 
BRANCH  24  25
HETATM   25  C11 UNL     1      -0.047 -31.794  18.428  1.00  0.00    -0.010 A 
HETATM   26  C12 UNL     1      -0.810 -32.909  18.330  1.00  0.00     0.042 A 
HETATM   27  C13 UNL     1      -1.170 -33.512  19.512  1.00  0.00     0.076 A 
HETATM   28 CL1  UNL     1      -2.180 -34.970  19.700  1.00  0.00    -0.076 Cl
HETATM   29  S2  UNL     1      -0.450 -32.532  20.700  1.00  0.00    -0.065 SA
HETATM   30  C14 UNL     1       0.291 -31.380  19.686  1.00  0.00     0.084 A 
HETATM   31 CL2  UNL     1       1.285 -29.971  20.131  1.00  0.00    -0.076 Cl
ENDBRANCH  24  25
ENDBRANCH  22  24
ENDBRANCH  21  22
ENDBRANCH  20  21
ENDBRANCH  19  20
ENDBRANCH  18  19
ENDBRANCH  17  18
ENDBRANCH   1  17
TORSDOF 13
ENDMDL
MODEL 5
REMARK VINA RESULT: -6.832652657      2.510      3.765
REMARK  13 active torsions:
REMARK  status: ('A' for Active; 'I' for Inactive)
REMARK    1  A    between atoms: N1_1  and  C1_4 
REMARK    2  A    between atoms: C2_9  and  S1_10 
REMARK    3  A    between atoms: S1_10  and  C3_11 
REMARK    4  A    between atoms: C3_11  and  C4_12 
REMARK    5  A    between atoms: C4_12  and  N4_13 
REMARK    6  A    between atoms: N4_13  and  C5_15 
REMARK    7  A    between atoms: C5_15  and  C6_16 
REMARK    8  A    between atoms: C6_16  and  C7_17 
REMARK    9  A    between atoms: C7_17  and  C8_18 
REMARK   10  A    between atoms: C8_18  and  C9_19 
REMARK   11  A    between atoms: C9_19  and  N5_20 
REMARK   12  A    between atoms: N5_20  and  C10_22 
REMARK   13  A    between atoms: C10_22  and  C11_23 
ROOT
HETATM    1  N4  UNL     1      -1.023 -35.100  17.830  1.00  0.00    -0.401 N 
ATOM      2  H4  UNL     1      -1.569 -34.628  18.550  1.00  0.00     0.158 HD
ENDROOT
BRANCH   1   3
HETATM    3  C4  UNL     1      -0.348 -36.303  18.133  1.00  0.00     0.129 C 
BRANCH   3   4
HETATM    4  C3  UNL     1      -0.575 -36.674  19.594  1.00  0.00     0.102 C 
BRANCH   4   5
HETATM    5  S1  UNL     1       0.563 -37.983  20.124  1.00  0.00    -0.090 SA
BRANCH   5   6
HETATM    6  C2  UNL     1      -0.325 -39.221  21.077  1.00  0.00     0.174 A 
HETATM    7  N3  UNL     1      -1.634 -39.331  21.251  1.00  0.00    -0.265 N 
HETATM    8  N2  UNL     1      -1.897 -40.388  22.052  1.00  0.00    -0.130 N 
ATOM      9  H3  UNL     1      -2.335 -38.713  20.844  1.00  0.00     0.189 HD
HETATM   10  C1  UNL     1      -0.709 -40.958  22.392  1.00  0.00     0.692 A 
ATOM     11  H2  UNL     1      -2.821 -40.701  22.348  1.00  0.00     0.205 HD
HETATM   12  N6  UNL     1       0.240 -40.232  21.788  1.00  0.00    -0.168 N 
ATOM     13  H6  UNL     1       1.242 -40.411  21.853  1.00  0.00     0.186 HD
BRANCH  10  14
HETATM   14  N1  UNL     1      -0.607 -41.989  23.162  1.00  0.00    -0.233 N 
ATOM     15  H12 UNL     1      -1.248 -42.349  23.870  1.00  0.00     0.174 HD
ATOM     16  H11 UNL     1       0.189 -42.627  23.148  1.00  0.00     0.174 HD
ENDBRANCH  10  14
ENDBRANCH   5   6
ENDBRANCH   4   5
ENDBRANCH   3   4
ENDBRANCH   1   3
BRANCH   1  17
HETATM   17  C5  UNL     1      -0.945 -34.550  16.534  1.00  0.00     0.055 C 
BRANCH  17  18
HETATM   18  C6  UNL     1      -1.948 -33.508  16.144  1.00  0.00     0.044 C 
BRANCH  18  19
HETATM   19  C7  UNL     1      -1.271 -32.166  16.062  1.00  0.00     0.010 C 
BRANCH  19  20
HETATM   20  C8  UNL     1      -0.511 -32.009  14.791  1.00  0.00     0.044 C 
BRANCH  20  21
HETATM   21  C9  UNL     1       0.976 -31.922  15.026  1.00  0.00     0.056 C 
BRANCH  21  22
HETATM   22  N5  UNL     1       1.436 -31.521  16.283  1.00  0.00    -0.398 N 
ATOM     23  H5  UNL     1       1.206 -30.593  16.640  1.00  0.00     0.158 HD
BRANCH  22  24
HETATM   24  C10 UNL     1       2.213 -32.395  17.050  1.00  0.00     0.159 C 
BRANCH  24  25
HETATM   25  C11 UNL     1       1.642 -32.661  18.445  1.00  0.00    -0.010 A 
HETATM   26  C12 UNL     1       0.749 -31.842  19.051  1.00  0.00     0.042 A 
HETATM   27  C13 UNL     1       0.434 -32.137  20.356  1.00  0.00     0.076 A 
HETATM   28 CL1  UNL     1      -0.684 -31.234  21.412  1.00  0.00    -0.076 Cl
HETATM   29  S2  UNL     1       1.367 -33.516  20.695  1.00  0.00    -0.065 SA
HETATM   30  C14 UNL     1       2.138 -33.697  19.186  1.00  0.00     0.084 A 
HETATM   31 CL2  UNL     1       3.307 -34.937  18.666  1.00  0.00    -0.076 Cl
ENDBRANCH  24  25
ENDBRANCH  22  24
ENDBRANCH  21  22
ENDBRANCH  20  21
ENDBRANCH  19  20
ENDBRANCH  18  19
ENDBRANCH  17  18
ENDBRANCH   1  17
TORSDOF 13
ENDMDL
