MODEL 1
REMARK VINA RESULT: -9.235388957      0.000      0.000
REMARK  12 active torsions:
REMARK  status: ('A' for Active; 'I' for Inactive)
REMARK    1  A    between atoms: C2_3  and  C3_5 
REMARK    2  A    between atoms: C7_9  and  C8_10 
REMARK    3  A    between atoms: C8_10  and  C9_11 
REMARK       I    between atoms: C9_11  and  N2_13 
REMARK    4  A    between atoms: C13_17  and  C14_18 
REMARK       I    between atoms: C14_18  and  N3_20 
REMARK    5  A    between atoms: N3_20  and  C15_22 
REMARK    6  A    between atoms: C15_22  and  C16_23 
REMARK    7  A    between atoms: C15_22  and  C23_30 
REMARK    8  A    between atoms: C16_23  and  C17_24 
REMARK       I    between atoms: C23_30  and  N4_32 
REMARK    9  A    between atoms: N4_32  and  C24_34 
REMARK   10  A    between atoms: C24_34  and  C25_35 
REMARK   11  A    between atoms: C24_34  and  C29_39 
REMARK   12  A    between atoms: C25_35  and  C26_36 
ROOT
HETATM    1  C1  UNL     1      22.971  12.355  11.842  1.00  0.00     0.232 C 
HETATM    2  N1  UNL     1      23.475  11.911  10.649  1.00  0.00    -0.395 NA
HETATM    3  C2  UNL     1      23.978  11.469   9.456  1.00  0.00     0.294 C 
HETATM    4  O1  UNL     1      23.613  11.913   8.314  1.00  0.00    -0.257 OA
ENDROOT
BRANCH   3   5
HETATM    5  C3  UNL     1      25.026  10.407   9.347  1.00  0.00     0.097 C 
HETATM    6  C4  UNL     1      26.203  10.830   8.501  1.00  0.00     0.015 C 
HETATM    7  C5  UNL     1      27.198  11.399   9.483  1.00  0.00     0.001 C 
HETATM    8  C6  UNL     1      26.756  11.011  10.870  1.00  0.00     0.006 C 
HETATM    9  C7  UNL     1      25.613  10.024  10.681  1.00  0.00     0.008 C 
BRANCH   9  10
HETATM   10  C8  UNL     1      26.306   8.657  10.542  1.00  0.00     0.108 C 
BRANCH  10  11
HETATM   11  C9  UNL     1      26.330   7.946  11.843  1.00  0.00     0.220 C 
HETATM   12  O2  UNL     1      25.300   7.298  12.172  1.00  0.00    -0.273 OA
HETATM   13  N2  UNL     1      27.500   8.031  12.647  1.00  0.00    -0.339 N 
HETATM   14  C10 UNL     1      27.632   7.411  13.932  1.00  0.00     0.127 C 
HETATM   15  C13 UNL     1      28.674   8.777  12.324  1.00  0.00     0.179 C 
HETATM   16  C11 UNL     1      28.644   8.290  14.668  1.00  0.00     0.022 C 
HETATM   17  C12 UNL     1      28.977   9.415  13.700  1.00  0.00     0.037 C 
BRANCH  15  18
HETATM   18  C14 UNL     1      29.826   8.091  11.790  1.00  0.00     0.241 C 
HETATM   19  O3  UNL     1      30.842   8.831  11.475  1.00  0.00    -0.271 OA
HETATM   20  N3  UNL     1      30.037   6.720  11.555  1.00  0.00    -0.346 N 
ATOM     21  H3  UNL     1      29.273   6.092  11.803  1.00  0.00     0.163 HD
BRANCH  20  22
HETATM   22  C15 UNL     1      31.212   6.112  11.003  1.00  0.00     0.177 C 
BRANCH  22  23
HETATM   23  C16 UNL     1      31.846   5.014  11.776  1.00  0.00     0.039 C 
BRANCH  23  24
HETATM   24  C17 UNL     1      32.439   5.285  13.100  1.00  0.00    -0.012 C 
HETATM   25  C18 UNL     1      31.755   4.458  14.191  1.00  0.00     0.005 C 
HETATM   26  C19 UNL     1      30.779   5.282  15.002  1.00  0.00     0.000 C 
HETATM   27  C20 UNL     1      31.466   6.474  15.637  1.00  0.00     0.000 C 
HETATM   28  C21 UNL     1      32.825   6.702  15.057  1.00  0.00     0.000 C 
HETATM   29  C22 UNL     1      32.672   6.691  13.514  1.00  0.00     0.005 C 
ENDBRANCH  23  24
ENDBRANCH  22  23
BRANCH  22  30
HETATM   30  C23 UNL     1      30.873   5.656   9.612  1.00  0.00     0.241 C 
HETATM   31  O4  UNL     1      30.535   4.482   9.432  1.00  0.00    -0.271 OA
HETATM   32  N4  UNL     1      30.946   6.568   8.560  1.00  0.00    -0.346 N 
ATOM     33  H4  UNL     1      31.226   7.519   8.802  1.00  0.00     0.163 HD
BRANCH  32  34
HETATM   34  C24 UNL     1      30.668   6.313   7.164  1.00  0.00     0.174 C 
BRANCH  34  35
HETATM   35  C25 UNL     1      31.753   6.828   6.268  1.00  0.00     0.038 C 
BRANCH  35  36
HETATM   36  C26 UNL     1      33.130   6.379   6.691  1.00  0.00    -0.020 C 
HETATM   37  C27 UNL     1      33.339   4.900   6.437  1.00  0.00     0.009 C 
HETATM   38  C28 UNL     1      34.211   7.128   5.943  1.00  0.00     0.009 C 
ENDBRANCH  35  36
ENDBRANCH  34  35
BRANCH  34  39
HETATM   39  C29 UNL     1      29.405   7.003   6.810  1.00  0.00     0.254 C 
HETATM   40  N5  UNL     1      28.853   6.875   5.505  1.00  0.00    -0.060 NA
HETATM   41  O5  UNL     1      28.793   7.717   7.652  1.00  0.00    -0.275 OA
ENDBRANCH  34  39
ENDBRANCH  32  34
ENDBRANCH  22  30
ENDBRANCH  20  22
ENDBRANCH  15  18
ENDBRANCH  10  11
ENDBRANCH   9  10
ENDBRANCH   3   5
TORSDOF 11
ENDMDL
MODEL 2
REMARK VINA RESULT: -9.157875207      1.550      2.308
REMARK  12 active torsions:
REMARK  status: ('A' for Active; 'I' for Inactive)
REMARK    1  A    between atoms: C2_3  and  C3_5 
REMARK    2  A    between atoms: C7_9  and  C8_10 
REMARK    3  A    between atoms: C8_10  and  C9_11 
REMARK       I    between atoms: C9_11  and  N2_13 
REMARK    4  A    between atoms: C13_17  and  C14_18 
REMARK       I    between atoms: C14_18  and  N3_20 
REMARK    5  A    between atoms: N3_20  and  C15_22 
REMARK    6  A    between atoms: C15_22  and  C16_23 
REMARK    7  A    between atoms: C15_22  and  C23_30 
REMARK    8  A    between atoms: C16_23  and  C17_24 
REMARK       I    between atoms: C23_30  and  N4_32 
REMARK    9  A    between atoms: N4_32  and  C24_34 
REMARK   10  A    between atoms: C24_34  and  C25_35 
REMARK   11  A    between atoms: C24_34  and  C29_39 
REMARK   12  A    between atoms: C25_35  and  C26_36 
ROOT
HETATM    1  C1  UNL     1      22.814  12.104  12.004  1.00  0.00     0.232 C 
HETATM    2  N1  UNL     1      23.375  11.769  10.801  1.00  0.00    -0.395 NA
HETATM    3  C2  UNL     1      23.935  11.436   9.597  1.00  0.00     0.294 C 
HETATM    4  O1  UNL     1      23.575  11.932   8.476  1.00  0.00    -0.257 OA
ENDROOT
BRANCH   3   5
HETATM    5  C3  UNL     1      25.046  10.444   9.453  1.00  0.00     0.097 C 
HETATM    6  C4  UNL     1      26.202  10.974   8.638  1.00  0.00     0.015 C 
HETATM    7  C5  UNL     1      27.153  11.557   9.656  1.00  0.00     0.001 C 
HETATM    8  C6  UNL     1      26.724  11.081  11.019  1.00  0.00     0.006 C 
HETATM    9  C7  UNL     1      25.644  10.037  10.774  1.00  0.00     0.008 C 
BRANCH   9  10
HETATM   10  C8  UNL     1      26.419   8.722  10.582  1.00  0.00     0.108 C 
BRANCH  10  11
HETATM   11  C9  UNL     1      26.470   7.951  11.848  1.00  0.00     0.220 C 
HETATM   12  O2  UNL     1      25.416   7.366  12.217  1.00  0.00    -0.273 OA
HETATM   13  N2  UNL     1      27.690   7.915  12.578  1.00  0.00    -0.339 N 
HETATM   14  C10 UNL     1      27.854   7.229  13.825  1.00  0.00     0.127 C 
HETATM   15  C13 UNL     1      28.895   8.587  12.210  1.00  0.00     0.179 C 
HETATM   16  C11 UNL     1      28.972   7.997  14.529  1.00  0.00     0.022 C 
HETATM   17  C12 UNL     1      29.329   9.137  13.588  1.00  0.00     0.037 C 
BRANCH  15  18
HETATM   18  C14 UNL     1      29.957   7.844  11.575  1.00  0.00     0.241 C 
HETATM   19  O3  UNL     1      31.164   8.129  11.950  1.00  0.00    -0.271 OA
HETATM   20  N3  UNL     1      29.898   6.834  10.597  1.00  0.00    -0.346 N 
ATOM     21  H3  UNL     1      28.968   6.560  10.280  1.00  0.00     0.163 HD
BRANCH  20  22
HETATM   22  C15 UNL     1      31.006   6.149   9.999  1.00  0.00     0.177 C 
BRANCH  22  23
HETATM   23  C16 UNL     1      31.097   4.681  10.200  1.00  0.00     0.039 C 
BRANCH  23  24
HETATM   24  C17 UNL     1      31.469   4.134  11.520  1.00  0.00    -0.012 C 
HETATM   25  C18 UNL     1      30.244   3.576  12.250  1.00  0.00     0.005 C 
HETATM   26  C19 UNL     1      29.744   4.517  13.325  1.00  0.00     0.000 C 
HETATM   27  C20 UNL     1      30.832   4.821  14.335  1.00  0.00     0.000 C 
HETATM   28  C21 UNL     1      32.176   4.378  13.849  1.00  0.00     0.000 C 
HETATM   29  C22 UNL     1      32.348   4.931  12.411  1.00  0.00     0.005 C 
ENDBRANCH  23  24
ENDBRANCH  22  23
BRANCH  22  30
HETATM   30  C23 UNL     1      31.007   6.487   8.535  1.00  0.00     0.241 C 
HETATM   31  O4  UNL     1      30.250   7.372   8.124  1.00  0.00    -0.271 OA
HETATM   32  N4  UNL     1      31.861   5.796   7.677  1.00  0.00    -0.346 N 
ATOM     33  H4  UNL     1      32.457   5.086   8.104  1.00  0.00     0.163 HD
BRANCH  32  34
HETATM   34  C24 UNL     1      31.994   5.975   6.248  1.00  0.00     0.174 C 
BRANCH  34  35
HETATM   35  C25 UNL     1      30.779   5.509   5.504  1.00  0.00     0.038 C 
BRANCH  35  36
HETATM   36  C26 UNL     1      30.200   6.570   4.600  1.00  0.00    -0.020 C 
HETATM   37  C27 UNL     1      30.461   6.264   3.139  1.00  0.00     0.009 C 
HETATM   38  C28 UNL     1      28.703   6.693   4.779  1.00  0.00     0.009 C 
ENDBRANCH  35  36
ENDBRANCH  34  35
BRANCH  34  39
HETATM   39  C29 UNL     1      33.155   5.177   5.788  1.00  0.00     0.254 C 
HETATM   40  N5  UNL     1      33.642   5.312   4.457  1.00  0.00    -0.060 NA
HETATM   41  O5  UNL     1      33.736   4.364   6.559  1.00  0.00    -0.275 OA
ENDBRANCH  34  39
ENDBRANCH  32  34
ENDBRANCH  22  30
ENDBRANCH  20  22
ENDBRANCH  15  18
ENDBRANCH  10  11
ENDBRANCH   9  10
ENDBRANCH   3   5
TORSDOF 11
ENDMDL
MODEL 3
REMARK VINA RESULT: -9.041181821      1.389      1.691
REMARK  12 active torsions:
REMARK  status: ('A' for Active; 'I' for Inactive)
REMARK    1  A    between atoms: C2_3  and  C3_5 
REMARK    2  A    between atoms: C7_9  and  C8_10 
REMARK    3  A    between atoms: C8_10  and  C9_11 
REMARK       I    between atoms: C9_11  and  N2_13 
REMARK    4  A    between atoms: C13_17  and  C14_18 
REMARK       I    between atoms: C14_18  and  N3_20 
REMARK    5  A    between atoms: N3_20  and  C15_22 
REMARK    6  A    between atoms: C15_22  and  C16_23 
REMARK    7  A    between atoms: C15_22  and  C23_30 
REMARK    8  A    between atoms: C16_23  and  C17_24 
REMARK       I    between atoms: C23_30  and  N4_32 
REMARK    9  A    between atoms: N4_32  and  C24_34 
REMARK   10  A    between atoms: C24_34  and  C25_35 
REMARK   11  A    between atoms: C24_34  and  C29_39 
REMARK   12  A    between atoms: C25_35  and  C26_36 
ROOT
HETATM    1  C1  UNL     1      22.826  12.266  11.942  1.00  0.00     0.232 C 
HETATM    2  N1  UNL     1      23.369  11.877  10.747  1.00  0.00    -0.395 NA
HETATM    3  C2  UNL     1      23.911  11.490   9.552  1.00  0.00     0.294 C 
HETATM    4  O1  UNL     1      23.517  11.915   8.413  1.00  0.00    -0.257 OA
ENDROOT
BRANCH   3   5
HETATM    5  C3  UNL     1      25.042  10.516   9.438  1.00  0.00     0.097 C 
HETATM    6  C4  UNL     1      26.262  11.111   8.777  1.00  0.00     0.015 C 
HETATM    7  C5  UNL     1      27.109  11.619   9.920  1.00  0.00     0.001 C 
HETATM    8  C6  UNL     1      26.560  11.039  11.197  1.00  0.00     0.006 C 
HETATM    9  C7  UNL     1      25.519  10.013  10.774  1.00  0.00     0.008 C 
BRANCH   9  10
HETATM   10  C8  UNL     1      26.323   8.719  10.557  1.00  0.00     0.108 C 
BRANCH  10  11
HETATM   11  C9  UNL     1      26.456   7.963  11.826  1.00  0.00     0.220 C 
HETATM   12  O2  UNL     1      25.445   7.334  12.239  1.00  0.00    -0.273 OA
HETATM   13  N2  UNL     1      27.703   7.987  12.509  1.00  0.00    -0.339 N 
HETATM   14  C10 UNL     1      27.945   7.321  13.754  1.00  0.00     0.127 C 
HETATM   15  C13 UNL     1      28.862   8.710  12.091  1.00  0.00     0.179 C 
HETATM   16  C11 UNL     1      29.054   8.145  14.409  1.00  0.00     0.022 C 
HETATM   17  C12 UNL     1      29.323   9.291  13.447  1.00  0.00     0.037 C 
BRANCH  15  18
HETATM   18  C14 UNL     1      29.932   8.009  11.421  1.00  0.00     0.241 C 
HETATM   19  O3  UNL     1      31.137   8.382  11.715  1.00  0.00    -0.271 OA
HETATM   20  N3  UNL     1      29.882   6.961  10.483  1.00  0.00    -0.346 N 
ATOM     21  H3  UNL     1      28.955   6.618  10.231  1.00  0.00     0.163 HD
BRANCH  20  22
HETATM   22  C15 UNL     1      30.996   6.322   9.846  1.00  0.00     0.177 C 
BRANCH  22  23
HETATM   23  C16 UNL     1      31.136   4.853  10.014  1.00  0.00     0.039 C 
BRANCH  23  24
HETATM   24  C17 UNL     1      31.519   4.289  11.321  1.00  0.00    -0.012 C 
HETATM   25  C18 UNL     1      30.326   3.611  12.001  1.00  0.00     0.005 C 
HETATM   26  C19 UNL     1      29.729   4.470  13.095  1.00  0.00     0.000 C 
HETATM   27  C20 UNL     1      30.768   4.819  14.142  1.00  0.00     0.000 C 
HETATM   28  C21 UNL     1      32.152   4.499  13.675  1.00  0.00     0.000 C 
HETATM   29  C22 UNL     1      32.313   5.117  12.262  1.00  0.00     0.005 C 
ENDBRANCH  23  24
ENDBRANCH  22  23
BRANCH  22  30
HETATM   30  C23 UNL     1      30.954   6.691   8.390  1.00  0.00     0.241 C 
HETATM   31  O4  UNL     1      31.949   7.212   7.875  1.00  0.00    -0.271 OA
HETATM   32  N4  UNL     1      29.797   6.437   7.657  1.00  0.00    -0.346 N 
ATOM     33  H4  UNL     1      29.027   5.998   8.161  1.00  0.00     0.163 HD
BRANCH  32  34
HETATM   34  C24 UNL     1      29.569   6.729   6.259  1.00  0.00     0.174 C 
BRANCH  34  35
HETATM   35  C25 UNL     1      30.844   7.010   5.524  1.00  0.00     0.038 C 
BRANCH  35  36
HETATM   36  C26 UNL     1      31.124   6.012   4.427  1.00  0.00    -0.020 C 
HETATM   37  C27 UNL     1      30.295   4.755   4.588  1.00  0.00     0.009 C 
HETATM   38  C28 UNL     1      30.817   6.589   3.062  1.00  0.00     0.009 C 
ENDBRANCH  35  36
ENDBRANCH  34  35
BRANCH  34  39
HETATM   39  C29 UNL     1      28.707   7.931   6.171  1.00  0.00     0.254 C 
HETATM   40  N5  UNL     1      28.437   8.536   4.912  1.00  0.00    -0.060 NA
HETATM   41  O5  UNL     1      28.196   8.445   7.205  1.00  0.00    -0.275 OA
ENDBRANCH  34  39
ENDBRANCH  32  34
ENDBRANCH  22  30
ENDBRANCH  20  22
ENDBRANCH  15  18
ENDBRANCH  10  11
ENDBRANCH   9  10
ENDBRANCH   3   5
TORSDOF 11
ENDMDL
MODEL 4
REMARK VINA RESULT: -8.961000349      2.638      7.841
REMARK  12 active torsions:
REMARK  status: ('A' for Active; 'I' for Inactive)
REMARK    1  A    between atoms: C2_3  and  C3_5 
REMARK    2  A    between atoms: C7_9  and  C8_10 
REMARK    3  A    between atoms: C8_10  and  C9_11 
REMARK       I    between atoms: C9_11  and  N2_13 
REMARK    4  A    between atoms: C13_17  and  C14_18 
REMARK       I    between atoms: C14_18  and  N3_20 
REMARK    5  A    between atoms: N3_20  and  C15_22 
REMARK    6  A    between atoms: C15_22  and  C16_23 
REMARK    7  A    between atoms: C15_22  and  C23_30 
REMARK    8  A    between atoms: C16_23  and  C17_24 
REMARK       I    between atoms: C23_30  and  N4_32 
REMARK    9  A    between atoms: N4_32  and  C24_34 
REMARK   10  A    between atoms: C24_34  and  C25_35 
REMARK   11  A    between atoms: C24_34  and  C29_39 
REMARK   12  A    between atoms: C25_35  and  C26_36 
ROOT
HETATM    1  C1  UNL     1      31.804  10.957   4.445  1.00  0.00     0.232 C 
HETATM    2  N1  UNL     1      30.674  10.246   4.139  1.00  0.00    -0.395 NA
HETATM    3  C2  UNL     1      29.544   9.538   3.834  1.00  0.00     0.294 C 
HETATM    4  O1  UNL     1      28.401  10.068   3.614  1.00  0.00    -0.257 OA
ENDROOT
BRANCH   3   5
HETATM    5  C3  UNL     1      29.513   8.047   3.717  1.00  0.00     0.097 C 
HETATM    6  C4  UNL     1      28.763   7.570   2.496  1.00  0.00     0.015 C 
HETATM    7  C5  UNL     1      29.823   7.409   1.433  1.00  0.00     0.001 C 
HETATM    8  C6  UNL     1      31.169   7.464   2.106  1.00  0.00     0.006 C 
HETATM    9  C7  UNL     1      30.886   7.440   3.602  1.00  0.00     0.008 C 
BRANCH   9  10
HETATM   10  C8  UNL     1      30.797   5.943   3.950  1.00  0.00     0.108 C 
BRANCH  10  11
HETATM   11  C9  UNL     1      31.902   5.547   4.855  1.00  0.00     0.220 C 
HETATM   12  O2  UNL     1      33.060   5.467   4.362  1.00  0.00    -0.273 OA
HETATM   13  N2  UNL     1      31.604   5.274   6.219  1.00  0.00    -0.339 N 
HETATM   14  C10 UNL     1      32.580   4.856   7.181  1.00  0.00     0.127 C 
HETATM   15  C13 UNL     1      30.305   5.323   6.808  1.00  0.00     0.179 C 
HETATM   16  C11 UNL     1      31.777   4.050   8.202  1.00  0.00     0.022 C 
HETATM   17  C12 UNL     1      30.350   4.043   7.674  1.00  0.00     0.037 C 
BRANCH  15  18
HETATM   18  C14 UNL     1      29.921   6.478   7.586  1.00  0.00     0.241 C 
HETATM   19  O3  UNL     1      30.038   7.629   7.003  1.00  0.00    -0.271 OA
HETATM   20  N3  UNL     1      29.426   6.563   8.900  1.00  0.00    -0.346 N 
ATOM     21  H3  UNL     1      29.299   5.681   9.397  1.00  0.00     0.163 HD
BRANCH  20  22
HETATM   22  C15 UNL     1      29.080   7.756   9.614  1.00  0.00     0.177 C 
BRANCH  22  23
HETATM   23  C16 UNL     1      27.655   7.945   9.989  1.00  0.00     0.039 C 
BRANCH  23  24
HETATM   24  C17 UNL     1      27.068   9.298  10.018  1.00  0.00    -0.012 C 
HETATM   25  C18 UNL     1      25.923   9.381  11.031  1.00  0.00     0.005 C 
HETATM   26  C19 UNL     1      24.566   9.337  10.362  1.00  0.00     0.000 C 
HETATM   27  C20 UNL     1      24.420  10.456   9.350  1.00  0.00     0.000 C 
HETATM   28  C21 UNL     1      25.734  11.106   9.052  1.00  0.00     0.000 C 
HETATM   29  C22 UNL     1      26.744   9.973   8.737  1.00  0.00     0.005 C 
ENDBRANCH  23  24
ENDBRANCH  22  23
BRANCH  22  30
HETATM   30  C23 UNL     1      29.964   7.828  10.827  1.00  0.00     0.241 C 
HETATM   31  O4  UNL     1      31.098   8.304  10.713  1.00  0.00    -0.271 OA
HETATM   32  N4  UNL     1      29.485   7.357  12.048  1.00  0.00    -0.346 N 
ATOM     33  H4  UNL     1      28.534   6.988  12.050  1.00  0.00     0.163 HD
BRANCH  32  34
HETATM   34  C24 UNL     1      30.189   7.336  13.311  1.00  0.00     0.174 C 
BRANCH  34  35
HETATM   35  C25 UNL     1      30.554   5.944  13.731  1.00  0.00     0.038 C 
BRANCH  35  36
HETATM   36  C26 UNL     1      32.043   5.739  13.857  1.00  0.00    -0.020 C 
HETATM   37  C27 UNL     1      32.551   4.702  12.875  1.00  0.00     0.009 C 
HETATM   38  C28 UNL     1      32.803   7.022  13.599  1.00  0.00     0.009 C 
ENDBRANCH  35  36
ENDBRANCH  34  35
BRANCH  34  39
HETATM   39  C29 UNL     1      29.301   7.916  14.346  1.00  0.00     0.254 C 
HETATM   40  N5  UNL     1      27.921   8.134  14.074  1.00  0.00    -0.060 NA
HETATM   41  O5  UNL     1      29.744   8.230  15.485  1.00  0.00    -0.275 OA
ENDBRANCH  34  39
ENDBRANCH  32  34
ENDBRANCH  22  30
ENDBRANCH  20  22
ENDBRANCH  15  18
ENDBRANCH  10  11
ENDBRANCH   9  10
ENDBRANCH   3   5
TORSDOF 11
ENDMDL
MODEL 5
REMARK VINA RESULT: -8.914712653      1.781      2.321
REMARK  12 active torsions:
REMARK  status: ('A' for Active; 'I' for Inactive)
REMARK    1  A    between atoms: C2_3  and  C3_5 
REMARK    2  A    between atoms: C7_9  and  C8_10 
REMARK    3  A    between atoms: C8_10  and  C9_11 
REMARK       I    between atoms: C9_11  and  N2_13 
REMARK    4  A    between atoms: C13_17  and  C14_18 
REMARK       I    between atoms: C14_18  and  N3_20 
REMARK    5  A    between atoms: N3_20  and  C15_22 
REMARK    6  A    between atoms: C15_22  and  C16_23 
REMARK    7  A    between atoms: C15_22  and  C23_30 
REMARK    8  A    between atoms: C16_23  and  C17_24 
REMARK       I    between atoms: C23_30  and  N4_32 
REMARK    9  A    between atoms: N4_32  and  C24_34 
REMARK   10  A    between atoms: C24_34  and  C25_35 
REMARK   11  A    between atoms: C24_34  and  C29_39 
REMARK   12  A    between atoms: C25_35  and  C26_36 
ROOT
HETATM    1  C1  UNL     1      22.495  11.511  12.607  1.00  0.00     0.232 C 
HETATM    2  N1  UNL     1      23.187  11.409  11.429  1.00  0.00    -0.395 NA
HETATM    3  C2  UNL     1      23.876  11.308  10.252  1.00  0.00     0.294 C 
HETATM    4  O1  UNL     1      23.369  11.532   9.101  1.00  0.00    -0.257 OA
ENDROOT
BRANCH   3   5
HETATM    5  C3  UNL     1      25.320  10.921  10.174  1.00  0.00     0.097 C 
HETATM    6  C4  UNL     1      25.952  11.280   8.850  1.00  0.00     0.015 C 
HETATM    7  C5  UNL     1      26.559  12.644   9.072  1.00  0.00     0.001 C 
HETATM    8  C6  UNL     1      26.571  12.913  10.554  1.00  0.00     0.006 C 
HETATM    9  C7  UNL     1      26.166  11.603  11.217  1.00  0.00     0.008 C 
BRANCH   9  10
HETATM   10  C8  UNL     1      27.486  10.827  11.368  1.00  0.00     0.108 C 
BRANCH  10  11
HETATM   11  C9  UNL     1      27.521  10.095  12.657  1.00  0.00     0.220 C 
HETATM   12  O2  UNL     1      26.418   9.817  13.200  1.00  0.00    -0.273 OA
HETATM   13  N2  UNL     1      28.784   9.750  13.213  1.00  0.00    -0.339 N 
HETATM   14  C10 UNL     1      28.946   9.069  14.463  1.00  0.00     0.127 C 
HETATM   15  C13 UNL     1      30.054  10.072  12.646  1.00  0.00     0.179 C 
HETATM   16  C11 UNL     1      30.317   9.526  14.962  1.00  0.00     0.022 C 
HETATM   17  C12 UNL     1      30.815  10.514  13.918  1.00  0.00     0.037 C 
BRANCH  15  18
HETATM   18  C14 UNL     1      30.781   9.062  11.915  1.00  0.00     0.241 C 
HETATM   19  O3  UNL     1      32.053   9.262  11.766  1.00  0.00    -0.271 OA
HETATM   20  N3  UNL     1      30.330   7.866  11.326  1.00  0.00    -0.346 N 
ATOM     21  H3  UNL     1      29.338   7.653  11.431  1.00  0.00     0.163 HD
BRANCH  20  22
HETATM   22  C15 UNL     1      31.116   6.915  10.597  1.00  0.00     0.177 C 
BRANCH  22  23
HETATM   23  C16 UNL     1      30.978   5.483  10.965  1.00  0.00     0.039 C 
BRANCH  23  24
HETATM   24  C17 UNL     1      31.401   5.015  12.298  1.00  0.00    -0.012 C 
HETATM   25  C18 UNL     1      30.203   4.525  13.117  1.00  0.00     0.005 C 
HETATM   26  C19 UNL     1      29.765   5.541  14.150  1.00  0.00     0.000 C 
HETATM   27  C20 UNL     1      30.903   5.889  15.089  1.00  0.00     0.000 C 
HETATM   28  C21 UNL     1      32.216   5.393  14.574  1.00  0.00     0.000 C 
HETATM   29  C22 UNL     1      32.331   5.851  13.097  1.00  0.00     0.005 C 
ENDBRANCH  23  24
ENDBRANCH  22  23
BRANCH  22  30
HETATM   30  C23 UNL     1      30.831   7.121   9.136  1.00  0.00     0.241 C 
HETATM   31  O4  UNL     1      29.730   7.569   8.799  1.00  0.00    -0.271 OA
HETATM   32  N4  UNL     1      31.812   6.802   8.200  1.00  0.00    -0.346 N 
ATOM     33  H4  UNL     1      32.693   6.445   8.569  1.00  0.00     0.163 HD
BRANCH  32  34
HETATM   34  C24 UNL     1      31.716   6.923   6.762  1.00  0.00     0.174 C 
BRANCH  34  35
HETATM   35  C25 UNL     1      31.430   5.608   6.102  1.00  0.00     0.038 C 
BRANCH  35  36
HETATM   36  C26 UNL     1      30.333   5.694   5.069  1.00  0.00    -0.020 C 
HETATM   37  C27 UNL     1      29.365   6.819   5.372  1.00  0.00     0.009 C 
HETATM   38  C28 UNL     1      30.894   5.936   3.684  1.00  0.00     0.009 C 
ENDBRANCH  35  36
ENDBRANCH  34  35
BRANCH  34  39
HETATM   39  C29 UNL     1      33.014   7.426   6.252  1.00  0.00     0.254 C 
HETATM   40  N5  UNL     1      33.131   8.758   5.765  1.00  0.00    -0.060 NA
HETATM   41  O5  UNL     1      34.040   6.691   6.238  1.00  0.00    -0.275 OA
ENDBRANCH  34  39
ENDBRANCH  32  34
ENDBRANCH  22  30
ENDBRANCH  20  22
ENDBRANCH  15  18
ENDBRANCH  10  11
ENDBRANCH   9  10
ENDBRANCH   3   5
TORSDOF 11
ENDMDL
