MODEL 1
REMARK VINA RESULT: -9.104474337      0.000      0.000
REMARK  16 active torsions:
REMARK  status: ('A' for Active; 'I' for Inactive)
REMARK    1  A    between atoms: C2_2  and  C3_3 
REMARK    2  A    between atoms: C2_2  and  C8_9 
REMARK    3  A    between atoms: C3_3  and  C4_4 
REMARK    4  A    between atoms: C4_4  and  N1_5 
REMARK       I    between atoms: C8_9  and  N2_11 
REMARK    5  A    between atoms: N2_11  and  C9_13 
REMARK    6  A    between atoms: C9_13  and  C10_14 
REMARK       I    between atoms: C10_14  and  N3_16 
REMARK    7  A    between atoms: N3_16  and  C11_18 
REMARK    8  A    between atoms: C11_18  and  C12_19 
REMARK    9  A    between atoms: C12_19  and  C13_20 
REMARK   10  A    between atoms: C13_20  and  C14_21 
REMARK   11  A    between atoms: C14_21  and  C15_22 
REMARK   12  A    between atoms: C15_22  and  N4_23 
REMARK   13  A    between atoms: C16_27  and  O3_28 
REMARK   14  A    between atoms: C16_27  and  N5_30 
REMARK   15  A    between atoms: C24_38  and  C25_39 
REMARK   16  A    between atoms: C25_39  and  N6_40 
REMARK       I    between atoms: N6_40  and  C26_42 
ROOT
HETATM    1  C9  UNL     1      31.402   4.579   6.962  1.00  0.00     0.155 C 
HETATM    2  C16 UNL     1      30.686   4.597   8.215  1.00  0.00     0.175 C 
ENDROOT
BRANCH   1   3
HETATM    3  N2  UNL     1      30.514   4.943   5.860  1.00  0.00    -0.315 N 
HETATM    4  C8  UNL     1      30.137   6.269   5.635  1.00  0.00     0.251 C 
HETATM    5  O1  UNL     1      30.517   7.259   6.315  1.00  0.00    -0.268 OA
ATOM      6  H2  UNL     1      30.161   4.212   5.241  1.00  0.00     0.169 HD
BRANCH   4   7
HETATM    7  C2  UNL     1      29.225   6.599   4.526  1.00  0.00     0.002 C 
HETATM    8  C1  UNL     1      28.004   6.150   4.499  1.00  0.00     0.024 C 
BRANCH   7   9
HETATM    9  C3  UNL     1      29.708   7.446   3.413  1.00  0.00     0.071 C 
BRANCH   9  10
HETATM   10  C4  UNL     1      30.975   6.988   2.777  1.00  0.00     0.240 C 
BRANCH  10  11
HETATM   11  N1  UNL     1      31.974   8.059   2.889  1.00  0.00    -0.078 N 
HETATM   12  C5  UNL     1      31.378   9.253   3.450  1.00  0.00     0.271 C 
HETATM   13  C6  UNL     1      33.039   7.599   3.727  1.00  0.00     0.271 C 
HETATM   14  C7  UNL     1      32.469   8.323   1.550  1.00  0.00     0.271 C 
ENDBRANCH  10  11
ENDBRANCH   9  10
ENDBRANCH   7   9
ENDBRANCH   4   7
ENDBRANCH   1   3
BRANCH   1  15
HETATM   15  C10 UNL     1      32.741   5.053   6.897  1.00  0.00     0.272 C 
HETATM   16  O2  UNL     1      32.988   6.224   7.353  1.00  0.00    -0.266 OA
HETATM   17  N3  UNL     1      33.841   4.335   6.355  1.00  0.00    -0.356 N 
ATOM     18  H3  UNL     1      33.665   3.398   5.990  1.00  0.00     0.162 HD
BRANCH  17  19
HETATM   19  C11 UNL     1      35.169   4.836   6.288  1.00  0.00     0.123 C 
BRANCH  19  20
HETATM   20  C12 UNL     1      35.854   4.570   4.975  1.00  0.00     0.020 C 
BRANCH  20  21
HETATM   21  C13 UNL     1      36.920   3.508   5.176  1.00  0.00     0.003 C 
BRANCH  21  22
HETATM   22  C14 UNL     1      36.317   2.168   5.483  1.00  0.00     0.027 C 
BRANCH  22  23
HETATM   23  C15 UNL     1      37.155   1.401   6.494  1.00  0.00     0.229 C 
BRANCH  23  24
HETATM   24  N4  UNL     1      38.533   1.476   6.016  1.00  0.00    -0.079 N 
ATOM     25  H43 UNL     1      38.744   0.805   5.278  1.00  0.00     0.274 HD
ATOM     26  H42 UNL     1      38.732   2.319   5.477  1.00  0.00     0.274 HD
ATOM     27  H41 UNL     1      39.124   1.372   6.841  1.00  0.00     0.274 HD
ENDBRANCH  23  24
ENDBRANCH  22  23
ENDBRANCH  21  22
ENDBRANCH  20  21
ENDBRANCH  19  20
ENDBRANCH  17  19
ENDBRANCH   1  15
BRANCH   2  28
HETATM   28  O3  UNL     1      29.561   3.843   8.215  1.00  0.00    -0.344 OA
ATOM     29  H3  UNL     1      28.811   4.272   8.611  1.00  0.00     0.219 HD
ENDBRANCH   2  28
BRANCH   2  30
HETATM   30  N5  UNL     1      30.929   5.242   9.417  1.00  0.00    -0.340 N 
HETATM   31  C17 UNL     1      30.742   6.606   9.705  1.00  0.00     0.067 C 
HETATM   32  C18 UNL     1      30.253   6.920  11.120  1.00  0.00     0.054 C 
HETATM   33  C19 UNL     1      30.733   5.987  12.166  1.00  0.00    -0.030 C 
HETATM   34  C20 UNL     1      30.630   4.568  11.700  1.00  0.00     0.030 C 
HETATM   35  C22 UNL     1      32.086   6.439  12.683  1.00  0.00     0.015 C 
HETATM   36  C30 UNL     1      30.202   6.291  13.545  1.00  0.00    -0.001 C 
HETATM   37  C21 UNL     1      31.490   4.403  10.497  1.00  0.00     0.131 C 
HETATM   38  C23 UNL     1      31.289   7.351  13.618  1.00  0.00    -0.003 C 
HETATM   39  C24 UNL     1      31.778   7.345  15.045  1.00  0.00     0.008 C 
HETATM   40  C28 UNL     1      31.602   5.908  15.504  1.00  0.00     0.007 C 
HETATM   41  C29 UNL     1      30.517   5.329  14.626  1.00  0.00     0.006 C 
BRANCH  39  42
HETATM   42  C25 UNL     1      30.819   8.171  15.873  1.00  0.00     0.127 C 
BRANCH  42  43
HETATM   43  N6  UNL     1      31.429   8.832  16.983  1.00  0.00    -0.361 N 
HETATM   44  C26 UNL     1      30.710   9.760  17.768  1.00  0.00     0.213 C 
HETATM   45  C27 UNL     1      31.372  10.450  18.934  1.00  0.00     0.117 C 
HETATM   46  O4  UNL     1      29.513  10.077  17.569  1.00  0.00    -0.274 OA
ATOM     47  H6  UNL     1      32.403   8.631  17.212  1.00  0.00     0.162 HD
ENDBRANCH  42  43
ENDBRANCH  39  42
ENDBRANCH   2  30
TORSDOF 16
ENDMDL
MODEL 2
REMARK VINA RESULT: -9.011215086      1.494      1.931
REMARK  16 active torsions:
REMARK  status: ('A' for Active; 'I' for Inactive)
REMARK    1  A    between atoms: C2_2  and  C3_3 
REMARK    2  A    between atoms: C2_2  and  C8_9 
REMARK    3  A    between atoms: C3_3  and  C4_4 
REMARK    4  A    between atoms: C4_4  and  N1_5 
REMARK       I    between atoms: C8_9  and  N2_11 
REMARK    5  A    between atoms: N2_11  and  C9_13 
REMARK    6  A    between atoms: C9_13  and  C10_14 
REMARK       I    between atoms: C10_14  and  N3_16 
REMARK    7  A    between atoms: N3_16  and  C11_18 
REMARK    8  A    between atoms: C11_18  and  C12_19 
REMARK    9  A    between atoms: C12_19  and  C13_20 
REMARK   10  A    between atoms: C13_20  and  C14_21 
REMARK   11  A    between atoms: C14_21  and  C15_22 
REMARK   12  A    between atoms: C15_22  and  N4_23 
REMARK   13  A    between atoms: C16_27  and  O3_28 
REMARK   14  A    between atoms: C16_27  and  N5_30 
REMARK   15  A    between atoms: C24_38  and  C25_39 
REMARK   16  A    between atoms: C25_39  and  N6_40 
REMARK       I    between atoms: N6_40  and  C26_42 
ROOT
HETATM    1  C9  UNL     1      31.224   5.822   6.431  1.00  0.00     0.155 C 
HETATM    2  C16 UNL     1      30.483   5.859   7.670  1.00  0.00     0.175 C 
ENDROOT
BRANCH   1   3
HETATM    3  N2  UNL     1      30.679   6.787   5.479  1.00  0.00    -0.315 N 
HETATM    4  C8  UNL     1      31.105   6.819   4.150  1.00  0.00     0.251 C 
HETATM    5  O1  UNL     1      31.956   6.044   3.639  1.00  0.00    -0.268 OA
ATOM      6  H2  UNL     1      29.972   7.452   5.793  1.00  0.00     0.169 HD
BRANCH   4   7
HETATM    7  C2  UNL     1      30.549   7.818   3.220  1.00  0.00     0.002 C 
HETATM    8  C1  UNL     1      29.407   7.625   2.626  1.00  0.00     0.024 C 
BRANCH   7   9
HETATM    9  C3  UNL     1      31.306   9.059   2.945  1.00  0.00     0.071 C 
BRANCH   9  10
HETATM   10  C4  UNL     1      31.242  10.088   4.021  1.00  0.00     0.240 C 
BRANCH  10  11
HETATM   11  N1  UNL     1      32.592  10.618   4.250  1.00  0.00    -0.078 N 
HETATM   12  C5  UNL     1      33.369   9.700   5.055  1.00  0.00     0.271 C 
HETATM   13  C6  UNL     1      33.221  10.814   2.979  1.00  0.00     0.271 C 
HETATM   14  C7  UNL     1      32.442  11.889   4.935  1.00  0.00     0.271 C 
ENDBRANCH  10  11
ENDBRANCH   9  10
ENDBRANCH   7   9
ENDBRANCH   4   7
ENDBRANCH   1   3
BRANCH   1  15
HETATM   15  C10 UNL     1      32.636   5.656   6.448  1.00  0.00     0.272 C 
HETATM   16  O2  UNL     1      33.353   6.637   6.853  1.00  0.00    -0.266 OA
HETATM   17  N3  UNL     1      33.330   4.485   6.040  1.00  0.00    -0.356 N 
ATOM     18  H3  UNL     1      32.777   3.691   5.718  1.00  0.00     0.162 HD
BRANCH  17  19
HETATM   19  C11 UNL     1      34.745   4.349   6.052  1.00  0.00     0.123 C 
BRANCH  19  20
HETATM   20  C12 UNL     1      35.297   3.627   4.852  1.00  0.00     0.020 C 
BRANCH  20  21
HETATM   21  C13 UNL     1      36.091   2.420   5.319  1.00  0.00     0.003 C 
BRANCH  21  22
HETATM   22  C14 UNL     1      36.521   2.560   6.751  1.00  0.00     0.027 C 
BRANCH  22  23
HETATM   23  C15 UNL     1      37.315   1.348   7.211  1.00  0.00     0.229 C 
BRANCH  23  24
HETATM   24  N4  UNL     1      37.858   0.736   6.001  1.00  0.00    -0.079 N 
ATOM     25  H43 UNL     1      38.390  -0.115   6.180  1.00  0.00     0.274 HD
ATOM     26  H42 UNL     1      37.146   0.315   5.404  1.00  0.00     0.274 HD
ATOM     27  H41 UNL     1      38.399   1.464   5.536  1.00  0.00     0.274 HD
ENDBRANCH  23  24
ENDBRANCH  22  23
ENDBRANCH  21  22
ENDBRANCH  20  21
ENDBRANCH  19  20
ENDBRANCH  17  19
ENDBRANCH   1  15
BRANCH   2  28
HETATM   28  O3  UNL     1      29.147   5.703   7.515  1.00  0.00    -0.344 OA
ATOM     29  H3  UNL     1      28.771   5.031   8.073  1.00  0.00     0.219 HD
ENDBRANCH   2  28
BRANCH   2  30
HETATM   30  N5  UNL     1      30.879   6.029   8.987  1.00  0.00    -0.340 N 
HETATM   31  C17 UNL     1      31.124   7.243   9.654  1.00  0.00     0.067 C 
HETATM   32  C18 UNL     1      30.714   7.280  11.127  1.00  0.00     0.054 C 
HETATM   33  C19 UNL     1      30.841   5.989  11.841  1.00  0.00    -0.030 C 
HETATM   34  C20 UNL     1      30.310   4.865  11.006  1.00  0.00     0.030 C 
HETATM   35  C22 UNL     1      32.250   5.829  12.380  1.00  0.00     0.015 C 
HETATM   36  C30 UNL     1      30.390   6.039  13.280  1.00  0.00    -0.001 C 
HETATM   37  C21 UNL     1      31.111   4.787   9.755  1.00  0.00     0.131 C 
HETATM   38  C23 UNL     1      31.754   6.642  13.578  1.00  0.00    -0.003 C 
HETATM   39  C24 UNL     1      32.170   6.079  14.916  1.00  0.00     0.008 C 
HETATM   40  C28 UNL     1      31.533   4.702  14.967  1.00  0.00     0.007 C 
HETATM   41  C29 UNL     1      30.350   4.763  14.030  1.00  0.00     0.006 C 
BRANCH  39  42
HETATM   42  C25 UNL     1      31.495   6.894  15.997  1.00  0.00     0.127 C 
BRANCH  42  43
HETATM   43  N6  UNL     1      31.704   8.303  15.879  1.00  0.00    -0.361 N 
HETATM   44  C26 UNL     1      30.628   9.185  15.643  1.00  0.00     0.213 C 
HETATM   45  C27 UNL     1      30.867  10.669  15.520  1.00  0.00     0.117 C 
HETATM   46  O4  UNL     1      29.432   8.826  15.521  1.00  0.00    -0.274 OA
ATOM     47  H6  UNL     1      32.649   8.677  15.966  1.00  0.00     0.162 HD
ENDBRANCH  42  43
ENDBRANCH  39  42
ENDBRANCH   2  30
TORSDOF 16
ENDMDL
MODEL 3
REMARK VINA RESULT: -8.985303251      1.016      1.197
REMARK  16 active torsions:
REMARK  status: ('A' for Active; 'I' for Inactive)
REMARK    1  A    between atoms: C2_2  and  C3_3 
REMARK    2  A    between atoms: C2_2  and  C8_9 
REMARK    3  A    between atoms: C3_3  and  C4_4 
REMARK    4  A    between atoms: C4_4  and  N1_5 
REMARK       I    between atoms: C8_9  and  N2_11 
REMARK    5  A    between atoms: N2_11  and  C9_13 
REMARK    6  A    between atoms: C9_13  and  C10_14 
REMARK       I    between atoms: C10_14  and  N3_16 
REMARK    7  A    between atoms: N3_16  and  C11_18 
REMARK    8  A    between atoms: C11_18  and  C12_19 
REMARK    9  A    between atoms: C12_19  and  C13_20 
REMARK   10  A    between atoms: C13_20  and  C14_21 
REMARK   11  A    between atoms: C14_21  and  C15_22 
REMARK   12  A    between atoms: C15_22  and  N4_23 
REMARK   13  A    between atoms: C16_27  and  O3_28 
REMARK   14  A    between atoms: C16_27  and  N5_30 
REMARK   15  A    between atoms: C24_38  and  C25_39 
REMARK   16  A    between atoms: C25_39  and  N6_40 
REMARK       I    between atoms: N6_40  and  C26_42 
ROOT
HETATM    1  C9  UNL     1      31.342   4.784   6.805  1.00  0.00     0.155 C 
HETATM    2  C16 UNL     1      30.687   4.708   8.089  1.00  0.00     0.175 C 
ENDROOT
BRANCH   1   3
HETATM    3  N2  UNL     1      30.432   5.324   5.797  1.00  0.00    -0.315 N 
HETATM    4  C8  UNL     1      29.898   6.609   5.912  1.00  0.00     0.251 C 
HETATM    5  O1  UNL     1      30.142   7.419   6.845  1.00  0.00    -0.268 OA
ATOM      6  H2  UNL     1      30.180   4.749   4.992  1.00  0.00     0.169 HD
BRANCH   4   7
HETATM    7  C2  UNL     1      28.968   7.116   4.887  1.00  0.00     0.002 C 
HETATM    8  C1  UNL     1      27.691   7.208   5.121  1.00  0.00     0.024 C 
BRANCH   7   9
HETATM    9  C3  UNL     1      29.491   7.518   3.563  1.00  0.00     0.071 C 
BRANCH   9  10
HETATM   10  C4  UNL     1      30.486   8.626   3.589  1.00  0.00     0.240 C 
BRANCH  10  11
HETATM   11  N1  UNL     1      31.634   8.251   2.754  1.00  0.00    -0.078 N 
HETATM   12  C5  UNL     1      31.192   7.554   1.565  1.00  0.00     0.271 C 
HETATM   13  C6  UNL     1      32.341   9.442   2.394  1.00  0.00     0.271 C 
HETATM   14  C7  UNL     1      32.483   7.390   3.558  1.00  0.00     0.271 C 
ENDBRANCH  10  11
ENDBRANCH   9  10
ENDBRANCH   7   9
ENDBRANCH   4   7
ENDBRANCH   1   3
BRANCH   1  15
HETATM   15  C10 UNL     1      32.706   5.175   6.721  1.00  0.00     0.272 C 
HETATM   16  O2  UNL     1      33.001   6.394   6.982  1.00  0.00    -0.266 OA
HETATM   17  N3  UNL     1      33.784   4.323   6.358  1.00  0.00    -0.356 N 
ATOM     18  H3  UNL     1      33.570   3.347   6.150  1.00  0.00     0.162 HD
BRANCH  17  19
HETATM   19  C11 UNL     1      35.139   4.742   6.266  1.00  0.00     0.123 C 
BRANCH  19  20
HETATM   20  C12 UNL     1      35.766   4.483   4.922  1.00  0.00     0.020 C 
BRANCH  20  21
HETATM   21  C13 UNL     1      36.838   3.418   5.070  1.00  0.00     0.003 C 
BRANCH  21  22
HETATM   22  C14 UNL     1      36.259   2.106   5.513  1.00  0.00     0.027 C 
BRANCH  22  23
HETATM   23  C15 UNL     1      37.131   1.444   6.568  1.00  0.00     0.229 C 
BRANCH  23  24
HETATM   24  N4  UNL     1      38.493   1.469   6.042  1.00  0.00    -0.079 N 
ATOM     25  H43 UNL     1      38.542   1.322   5.034  1.00  0.00     0.274 HD
ATOM     26  H42 UNL     1      38.916   2.398   6.052  1.00  0.00     0.274 HD
ATOM     27  H41 UNL     1      39.017   0.779   6.579  1.00  0.00     0.274 HD
ENDBRANCH  23  24
ENDBRANCH  22  23
ENDBRANCH  21  22
ENDBRANCH  20  21
ENDBRANCH  19  20
ENDBRANCH  17  19
ENDBRANCH   1  15
BRANCH   2  28
HETATM   28  O3  UNL     1      29.513   4.033   8.068  1.00  0.00    -0.344 OA
ATOM     29  H3  UNL     1      28.794   4.498   8.480  1.00  0.00     0.219 HD
ENDBRANCH   2  28
BRANCH   2  30
HETATM   30  N5  UNL     1      31.028   5.199   9.339  1.00  0.00    -0.340 N 
HETATM   31  C17 UNL     1      31.036   6.543   9.755  1.00  0.00     0.067 C 
HETATM   32  C18 UNL     1      30.608   6.788  11.203  1.00  0.00     0.054 C 
HETATM   33  C19 UNL     1      30.965   5.705  12.148  1.00  0.00    -0.030 C 
HETATM   34  C20 UNL     1      30.663   4.363  11.557  1.00  0.00     0.030 C 
HETATM   35  C22 UNL     1      32.373   5.916  12.673  1.00  0.00     0.015 C 
HETATM   36  C30 UNL     1      30.495   5.948  13.561  1.00  0.00    -0.001 C 
HETATM   37  C21 UNL     1      31.479   4.194  10.325  1.00  0.00     0.131 C 
HETATM   38  C23 UNL     1      31.719   6.838  13.705  1.00  0.00    -0.003 C 
HETATM   39  C24 UNL     1      32.217   6.632  15.115  1.00  0.00     0.008 C 
HETATM   40  C28 UNL     1      31.848   5.196  15.445  1.00  0.00     0.007 C 
HETATM   41  C29 UNL     1      30.685   4.855  14.543  1.00  0.00     0.006 C 
BRANCH  39  42
HETATM   42  C25 UNL     1      31.389   7.500  16.036  1.00  0.00     0.127 C 
BRANCH  42  43
HETATM   43  N6  UNL     1      31.652   8.899  15.906  1.00  0.00    -0.361 N 
HETATM   44  C26 UNL     1      30.698   9.774  15.341  1.00  0.00     0.213 C 
HETATM   45  C27 UNL     1      30.992  11.247  15.211  1.00  0.00     0.117 C 
HETATM   46  O4  UNL     1      29.573   9.414  14.917  1.00  0.00    -0.274 OA
ATOM     47  H6  UNL     1      32.545   9.273  16.228  1.00  0.00     0.162 HD
ENDBRANCH  42  43
ENDBRANCH  39  42
ENDBRANCH   2  30
TORSDOF 16
ENDMDL
MODEL 4
REMARK VINA RESULT: -8.781338865      1.234      2.150
REMARK  16 active torsions:
REMARK  status: ('A' for Active; 'I' for Inactive)
REMARK    1  A    between atoms: C2_2  and  C3_3 
REMARK    2  A    between atoms: C2_2  and  C8_9 
REMARK    3  A    between atoms: C3_3  and  C4_4 
REMARK    4  A    between atoms: C4_4  and  N1_5 
REMARK       I    between atoms: C8_9  and  N2_11 
REMARK    5  A    between atoms: N2_11  and  C9_13 
REMARK    6  A    between atoms: C9_13  and  C10_14 
REMARK       I    between atoms: C10_14  and  N3_16 
REMARK    7  A    between atoms: N3_16  and  C11_18 
REMARK    8  A    between atoms: C11_18  and  C12_19 
REMARK    9  A    between atoms: C12_19  and  C13_20 
REMARK   10  A    between atoms: C13_20  and  C14_21 
REMARK   11  A    between atoms: C14_21  and  C15_22 
REMARK   12  A    between atoms: C15_22  and  N4_23 
REMARK   13  A    between atoms: C16_27  and  O3_28 
REMARK   14  A    between atoms: C16_27  and  N5_30 
REMARK   15  A    between atoms: C24_38  and  C25_39 
REMARK   16  A    between atoms: C25_39  and  N6_40 
REMARK       I    between atoms: N6_40  and  C26_42 
ROOT
HETATM    1  C9  UNL     1      31.408   4.458   7.114  1.00  0.00     0.155 C 
HETATM    2  C16 UNL     1      30.689   4.513   8.364  1.00  0.00     0.175 C 
ENDROOT
BRANCH   1   3
HETATM    3  N2  UNL     1      30.531   4.816   6.002  1.00  0.00    -0.315 N 
HETATM    4  C8  UNL     1      30.146   6.140   5.776  1.00  0.00     0.251 C 
HETATM    5  O1  UNL     1      30.507   7.131   6.463  1.00  0.00    -0.268 OA
ATOM      6  H2  UNL     1      30.193   4.085   5.376  1.00  0.00     0.169 HD
BRANCH   4   7
HETATM    7  C2  UNL     1      29.245   6.465   4.656  1.00  0.00     0.002 C 
HETATM    8  C1  UNL     1      28.092   7.033   4.860  1.00  0.00     0.024 C 
BRANCH   7   9
HETATM    9  C3  UNL     1      29.650   6.129   3.274  1.00  0.00     0.071 C 
BRANCH   9  10
HETATM   10  C4  UNL     1      31.008   6.601   2.883  1.00  0.00     0.240 C 
BRANCH  10  11
HETATM   11  N1  UNL     1      30.877   7.875   2.165  1.00  0.00    -0.078 N 
HETATM   12  C5  UNL     1      30.783   8.978   3.098  1.00  0.00     0.271 C 
HETATM   13  C6  UNL     1      32.023   8.039   1.322  1.00  0.00     0.271 C 
HETATM   14  C7  UNL     1      29.672   7.790   1.360  1.00  0.00     0.271 C 
ENDBRANCH  10  11
ENDBRANCH   9  10
ENDBRANCH   7   9
ENDBRANCH   4   7
ENDBRANCH   1   3
BRANCH   1  15
HETATM   15  C10 UNL     1      32.757   4.905   7.046  1.00  0.00     0.272 C 
HETATM   16  O2  UNL     1      33.024   6.079   7.479  1.00  0.00    -0.266 OA
HETATM   17  N3  UNL     1      33.844   4.156   6.522  1.00  0.00    -0.356 N 
ATOM     18  H3  UNL     1      33.652   3.215   6.175  1.00  0.00     0.162 HD
BRANCH  17  19
HETATM   19  C11 UNL     1      35.183   4.630   6.450  1.00  0.00     0.123 C 
BRANCH  19  20
HETATM   20  C12 UNL     1      35.763   4.606   5.062  1.00  0.00     0.020 C 
BRANCH  20  21
HETATM   21  C13 UNL     1      35.140   5.723   4.244  1.00  0.00     0.003 C 
BRANCH  21  22
HETATM   22  C14 UNL     1      35.260   7.051   4.935  1.00  0.00     0.027 C 
BRANCH  22  23
HETATM   23  C15 UNL     1      34.171   8.011   4.483  1.00  0.00     0.229 C 
BRANCH  23  24
HETATM   24  N4  UNL     1      33.323   8.238   5.649  1.00  0.00    -0.079 N 
ATOM     25  H43 UNL     1      32.340   8.377   5.417  1.00  0.00     0.274 HD
ATOM     26  H42 UNL     1      33.196   7.408   6.229  1.00  0.00     0.274 HD
ATOM     27  H41 UNL     1      33.737   9.024   6.151  1.00  0.00     0.274 HD
ENDBRANCH  23  24
ENDBRANCH  22  23
ENDBRANCH  21  22
ENDBRANCH  20  21
ENDBRANCH  19  20
ENDBRANCH  17  19
ENDBRANCH   1  15
BRANCH   2  28
HETATM   28  O3  UNL     1      29.549   3.781   8.375  1.00  0.00    -0.344 OA
ATOM     29  H3  UNL     1      29.678   2.872   8.618  1.00  0.00     0.219 HD
ENDBRANCH   2  28
BRANCH   2  30
HETATM   30  N5  UNL     1      30.939   5.177   9.554  1.00  0.00    -0.340 N 
HETATM   31  C17 UNL     1      30.750   6.545   9.824  1.00  0.00     0.067 C 
HETATM   32  C18 UNL     1      30.271   6.878  11.238  1.00  0.00     0.054 C 
HETATM   33  C19 UNL     1      30.764   5.963  12.293  1.00  0.00    -0.030 C 
HETATM   34  C20 UNL     1      30.663   4.536  11.849  1.00  0.00     0.030 C 
HETATM   35  C22 UNL     1      32.120   6.426  12.792  1.00  0.00     0.015 C 
HETATM   36  C30 UNL     1      30.244   6.284  13.673  1.00  0.00    -0.001 C 
HETATM   37  C21 UNL     1      31.513   4.356  10.642  1.00  0.00     0.131 C 
HETATM   38  C23 UNL     1      31.327   7.350  13.720  1.00  0.00    -0.003 C 
HETATM   39  C24 UNL     1      31.829   7.367  15.143  1.00  0.00     0.008 C 
HETATM   40  C28 UNL     1      31.662   5.936  15.625  1.00  0.00     0.007 C 
HETATM   41  C29 UNL     1      30.571   5.340  14.765  1.00  0.00     0.006 C 
BRANCH  39  42
HETATM   42  C25 UNL     1      30.873   8.201  15.967  1.00  0.00     0.127 C 
BRANCH  42  43
HETATM   43  N6  UNL     1      31.485   8.856  17.080  1.00  0.00    -0.361 N 
HETATM   44  C26 UNL     1      30.772   9.792  17.860  1.00  0.00     0.213 C 
HETATM   45  C27 UNL     1      31.434  10.475  19.030  1.00  0.00     0.117 C 
HETATM   46  O4  UNL     1      29.579  10.121  17.656  1.00  0.00    -0.274 OA
ATOM     47  H6  UNL     1      32.455   8.645  17.314  1.00  0.00     0.162 HD
ENDBRANCH  42  43
ENDBRANCH  39  42
ENDBRANCH   2  30
TORSDOF 16
ENDMDL
MODEL 5
REMARK VINA RESULT: -8.605804941      1.790      2.404
REMARK  16 active torsions:
REMARK  status: ('A' for Active; 'I' for Inactive)
REMARK    1  A    between atoms: C2_2  and  C3_3 
REMARK    2  A    between atoms: C2_2  and  C8_9 
REMARK    3  A    between atoms: C3_3  and  C4_4 
REMARK    4  A    between atoms: C4_4  and  N1_5 
REMARK       I    between atoms: C8_9  and  N2_11 
REMARK    5  A    between atoms: N2_11  and  C9_13 
REMARK    6  A    between atoms: C9_13  and  C10_14 
REMARK       I    between atoms: C10_14  and  N3_16 
REMARK    7  A    between atoms: N3_16  and  C11_18 
REMARK    8  A    between atoms: C11_18  and  C12_19 
REMARK    9  A    between atoms: C12_19  and  C13_20 
REMARK   10  A    between atoms: C13_20  and  C14_21 
REMARK   11  A    between atoms: C14_21  and  C15_22 
REMARK   12  A    between atoms: C15_22  and  N4_23 
REMARK   13  A    between atoms: C16_27  and  O3_28 
REMARK   14  A    between atoms: C16_27  and  N5_30 
REMARK   15  A    between atoms: C24_38  and  C25_39 
REMARK   16  A    between atoms: C25_39  and  N6_40 
REMARK       I    between atoms: N6_40  and  C26_42 
ROOT
HETATM    1  C9  UNL     1      31.266   5.876   6.505  1.00  0.00     0.155 C 
HETATM    2  C16 UNL     1      30.507   5.958   7.730  1.00  0.00     0.175 C 
ENDROOT
BRANCH   1   3
HETATM    3  N2  UNL     1      30.799   6.875   5.546  1.00  0.00    -0.315 N 
HETATM    4  C8  UNL     1      30.409   6.517   4.253  1.00  0.00     0.251 C 
HETATM    5  O1  UNL     1      30.399   5.344   3.794  1.00  0.00    -0.268 OA
ATOM      6  H2  UNL     1      30.757   7.855   5.826  1.00  0.00     0.169 HD
BRANCH   4   7
HETATM    7  C2  UNL     1      29.961   7.551   3.304  1.00  0.00     0.002 C 
HETATM    8  C1  UNL     1      29.214   7.251   2.282  1.00  0.00     0.024 C 
BRANCH   7   9
HETATM    9  C3  UNL     1      30.378   8.956   3.507  1.00  0.00     0.071 C 
BRANCH   9  10
HETATM   10  C4  UNL     1      31.720   9.300   2.960  1.00  0.00     0.240 C 
BRANCH  10  11
HETATM   11  N1  UNL     1      32.255  10.447   3.704  1.00  0.00    -0.078 N 
HETATM   12  C5  UNL     1      33.083  11.269   2.847  1.00  0.00     0.271 C 
HETATM   13  C6  UNL     1      31.154  11.212   4.207  1.00  0.00     0.271 C 
HETATM   14  C7  UNL     1      33.038   9.915   4.804  1.00  0.00     0.271 C 
ENDBRANCH  10  11
ENDBRANCH   9  10
ENDBRANCH   7   9
ENDBRANCH   4   7
ENDBRANCH   1   3
BRANCH   1  15
HETATM   15  C10 UNL     1      32.665   5.622   6.547  1.00  0.00     0.272 C 
HETATM   16  O2  UNL     1      33.448   6.608   6.782  1.00  0.00    -0.266 OA
HETATM   17  N3  UNL     1      33.276   4.357   6.338  1.00  0.00    -0.356 N 
ATOM     18  H3  UNL     1      32.669   3.559   6.153  1.00  0.00     0.162 HD
BRANCH  17  19
HETATM   19  C11 UNL     1      34.680   4.131   6.369  1.00  0.00     0.123 C 
BRANCH  19  20
HETATM   20  C12 UNL     1      35.203   3.385   5.172  1.00  0.00     0.020 C 
BRANCH  20  21
HETATM   21  C13 UNL     1      35.720   4.383   4.151  1.00  0.00     0.003 C 
BRANCH  21  22
HETATM   22  C14 UNL     1      36.037   5.708   4.782  1.00  0.00     0.027 C 
BRANCH  22  23
HETATM   23  C15 UNL     1      35.563   6.863   3.915  1.00  0.00     0.229 C 
BRANCH  23  24
HETATM   24  N4  UNL     1      34.145   6.621   3.661  1.00  0.00    -0.079 N 
ATOM     25  H43 UNL     1      33.966   5.759   3.146  1.00  0.00     0.274 HD
ATOM     26  H42 UNL     1      33.617   6.378   4.499  1.00  0.00     0.274 HD
ATOM     27  H41 UNL     1      33.796   7.456   3.189  1.00  0.00     0.274 HD
ENDBRANCH  23  24
ENDBRANCH  22  23
ENDBRANCH  21  22
ENDBRANCH  20  21
ENDBRANCH  19  20
ENDBRANCH  17  19
ENDBRANCH   1  15
BRANCH   2  28
HETATM   28  O3  UNL     1      29.166   5.885   7.552  1.00  0.00    -0.344 OA
ATOM     29  H3  UNL     1      28.760   6.720   7.349  1.00  0.00     0.219 HD
ENDBRANCH   2  28
BRANCH   2  30
HETATM   30  N5  UNL     1      30.889   6.101   9.054  1.00  0.00    -0.340 N 
HETATM   31  C17 UNL     1      31.081   7.302   9.761  1.00  0.00     0.067 C 
HETATM   32  C18 UNL     1      30.663   7.275  11.233  1.00  0.00     0.054 C 
HETATM   33  C19 UNL     1      30.838   5.968  11.906  1.00  0.00    -0.030 C 
HETATM   34  C20 UNL     1      30.358   4.851  11.032  1.00  0.00     0.030 C 
HETATM   35  C22 UNL     1      32.250   5.849  12.448  1.00  0.00     0.015 C 
HETATM   36  C30 UNL     1      30.379   5.953  13.343  1.00  0.00    -0.001 C 
HETATM   37  C21 UNL     1      31.168   4.846   9.784  1.00  0.00     0.131 C 
HETATM   38  C23 UNL     1      31.715   6.601  13.669  1.00  0.00    -0.003 C 
HETATM   39  C24 UNL     1      32.147   6.014  14.990  1.00  0.00     0.008 C 
HETATM   40  C28 UNL     1      31.567   4.610  14.993  1.00  0.00     0.007 C 
HETATM   41  C29 UNL     1      30.387   4.653  14.051  1.00  0.00     0.006 C 
BRANCH  39  42
HETATM   42  C25 UNL     1      31.434   6.765  16.092  1.00  0.00     0.127 C 
BRANCH  42  43
HETATM   43  N6  UNL     1      31.601   8.183  16.031  1.00  0.00    -0.361 N 
HETATM   44  C26 UNL     1      30.491   9.045  15.890  1.00  0.00     0.213 C 
HETATM   45  C27 UNL     1      30.686  10.538  15.826  1.00  0.00     0.117 C 
HETATM   46  O4  UNL     1      29.301   8.658  15.809  1.00  0.00    -0.274 OA
ATOM     47  H6  UNL     1      32.539   8.579  16.090  1.00  0.00     0.162 HD
ENDBRANCH  42  43
ENDBRANCH  39  42
ENDBRANCH   2  30
TORSDOF 16
ENDMDL
