MODEL 1
REMARK VINA RESULT: -8.540173368      0.000      0.000
REMARK  7 active torsions:
REMARK  status: ('A' for Active; 'I' for Inactive)
REMARK    1  A    between atoms: C3_3  and  C4_4 
REMARK    2  A    between atoms: C4_4  and  C5_5 
REMARK    3  A    between atoms: C5_5  and  C6_6 
REMARK    4  A    between atoms: C6_6  and  N1_7 
REMARK    5  A    between atoms: C6_6  and  C13_28 
REMARK    6  A    between atoms: N1_7  and  N2_8 
REMARK    7  A    between atoms: N2_8  and  C7_10 
ROOT
HETATM    1  C1  UNL     1     -35.316 -58.364   6.797  1.00  0.00     0.012 C 
HETATM    2  C2  UNL     1     -35.523 -57.279   6.315  1.00  0.00    -0.117 C 
HETATM    3  C3  UNL     1     -35.801 -55.944   5.714  1.00  0.00     0.093 C 
ENDROOT
BRANCH   3   4
HETATM    4  C4  UNL     1     -34.856 -54.970   6.342  1.00  0.00     0.014 C 
BRANCH   4   5
HETATM    5  C5  UNL     1     -33.463 -54.949   5.896  1.00  0.00     0.035 C 
BRANCH   5   6
HETATM    6  C6  UNL     1     -32.342 -54.662   6.787  1.00  0.00     0.200 C 
BRANCH   6   7
HETATM    7  N1  UNL     1     -32.544 -54.527   8.187  1.00  0.00    -0.124 NA
BRANCH   7   8
HETATM    8  N2  UNL     1     -31.425 -55.002   8.945  1.00  0.00    -0.288 N 
ATOM      9  H2  UNL     1     -30.664 -54.368   9.190  1.00  0.00     0.184 HD
BRANCH   8  10
HETATM   10  C7  UNL     1     -31.382 -56.344   9.347  1.00  0.00     0.134 C 
HETATM   11  C8  UNL     1     -30.241 -56.997   9.300  1.00  0.00     0.122 A 
HETATM   12  C9  UNL     1     -29.195 -56.264   8.852  1.00  0.00     0.267 A 
HETATM   13  C11 UNL     1     -29.964 -58.330   9.655  1.00  0.00     0.143 A 
HETATM   14  O1  UNL     1     -29.317 -55.076   8.508  1.00  0.00    -0.267 OA
HETATM   15  N3  UNL     1     -27.944 -56.761   8.742  1.00  0.00    -0.275 N 
HETATM   16  C10 UNL     1     -27.716 -58.020   9.085  1.00  0.00     0.328 A 
ATOM     17  H3  UNL     1     -27.184 -56.174   8.400  1.00  0.00     0.173 HD
HETATM   18  O2  UNL     1     -26.548 -58.488   8.984  1.00  0.00    -0.247 OA
HETATM   19  N4  UNL     1     -28.698 -58.801   9.534  1.00  0.00    -0.292 N 
ATOM     20  H4  UNL     1     -28.495 -59.767   9.790  1.00  0.00     0.172 HD
HETATM   21  N5  UNL     1     -30.772 -59.217  10.069  1.00  0.00    -0.287 N 
HETATM   22  N6  UNL     1     -32.143 -59.178  10.300  1.00  0.00    -0.317 N 
ATOM     23  H5  UNL     1     -30.339 -60.119  10.266  1.00  0.00     0.188 HD
HETATM   24  C12 UNL     1     -33.117 -58.226   9.761  1.00  0.00     0.262 C 
ATOM     25  H6  UNL     1     -32.514 -59.899  10.920  1.00  0.00     0.182 HD
HETATM   26  N7  UNL     1     -32.631 -56.897   9.812  1.00  0.00    -0.357 N 
ATOM     27  H7  UNL     1     -33.263 -56.224  10.245  1.00  0.00     0.162 HD
ENDBRANCH   8  10
ENDBRANCH   7   8
ENDBRANCH   6   7
BRANCH   6  28
HETATM   28  C13 UNL     1     -31.507 -53.502   6.286  1.00  0.00     0.194 C 
HETATM   29  O3  UNL     1     -31.086 -52.590   7.019  1.00  0.00    -0.647 OA
HETATM   30  O4  UNL     1     -31.190 -53.450   4.928  1.00  0.00    -0.647 OA
ENDBRANCH   6  28
ENDBRANCH   5   6
ENDBRANCH   4   5
ENDBRANCH   3   4
TORSDOF 7
ENDMDL
MODEL 2
REMARK VINA RESULT: -8.305539777      0.795      1.172
REMARK  7 active torsions:
REMARK  status: ('A' for Active; 'I' for Inactive)
REMARK    1  A    between atoms: C3_3  and  C4_4 
REMARK    2  A    between atoms: C4_4  and  C5_5 
REMARK    3  A    between atoms: C5_5  and  C6_6 
REMARK    4  A    between atoms: C6_6  and  N1_7 
REMARK    5  A    between atoms: C6_6  and  C13_28 
REMARK    6  A    between atoms: N1_7  and  N2_8 
REMARK    7  A    between atoms: N2_8  and  C7_10 
ROOT
HETATM    1  C1  UNL     1     -34.748 -59.824   5.646  1.00  0.00     0.012 C 
HETATM    2  C2  UNL     1     -34.072 -58.844   5.833  1.00  0.00    -0.117 C 
HETATM    3  C3  UNL     1     -33.218 -57.645   6.067  1.00  0.00     0.093 C 
ENDROOT
BRANCH   3   4
HETATM    4  C4  UNL     1     -33.910 -56.478   5.436  1.00  0.00     0.014 C 
BRANCH   4   5
HETATM    5  C5  UNL     1     -33.655 -55.137   5.961  1.00  0.00     0.035 C 
BRANCH   5   6
HETATM    6  C6  UNL     1     -32.498 -54.809   6.789  1.00  0.00     0.200 C 
BRANCH   6   7
HETATM    7  N1  UNL     1     -32.646 -54.569   8.181  1.00  0.00    -0.124 NA
BRANCH   7   8
HETATM    8  N2  UNL     1     -31.523 -55.041   8.936  1.00  0.00    -0.288 N 
ATOM      9  H2  UNL     1     -30.778 -54.398   9.205  1.00  0.00     0.184 HD
BRANCH   8  10
HETATM   10  C7  UNL     1     -31.456 -56.392   9.302  1.00  0.00     0.134 C 
HETATM   11  C8  UNL     1     -30.302 -57.022   9.245  1.00  0.00     0.122 A 
HETATM   12  C9  UNL     1     -29.268 -56.256   8.822  1.00  0.00     0.267 A 
HETATM   13  C11 UNL     1     -30.000 -58.358   9.565  1.00  0.00     0.143 A 
HETATM   14  O1  UNL     1     -29.412 -55.062   8.511  1.00  0.00    -0.267 OA
HETATM   15  N3  UNL     1     -28.007 -56.724   8.708  1.00  0.00    -0.275 N 
HETATM   16  C10 UNL     1     -27.755 -57.987   9.017  1.00  0.00     0.328 A 
ATOM     17  H3  UNL     1     -27.257 -56.113   8.386  1.00  0.00     0.173 HD
HETATM   18  O2  UNL     1     -26.577 -58.429   8.911  1.00  0.00    -0.247 OA
HETATM   19  N4  UNL     1     -28.724 -58.800   9.439  1.00  0.00    -0.292 N 
ATOM     20  H4  UNL     1     -28.503 -59.768   9.670  1.00  0.00     0.172 HD
HETATM   21  N5  UNL     1     -30.792 -59.272   9.949  1.00  0.00    -0.287 N 
HETATM   22  N6  UNL     1     -32.165 -59.267  10.174  1.00  0.00    -0.317 N 
ATOM     23  H5  UNL     1     -30.342 -60.170  10.125  1.00  0.00     0.188 HD
HETATM   24  C12 UNL     1     -33.155 -58.319   9.654  1.00  0.00     0.262 C 
ATOM     25  H6  UNL     1     -32.525 -60.011  10.771  1.00  0.00     0.182 HD
HETATM   26  N7  UNL     1     -32.696 -56.983   9.744  1.00  0.00    -0.357 N 
ATOM     27  H7  UNL     1     -33.345 -56.335  10.191  1.00  0.00     0.162 HD
ENDBRANCH   8  10
ENDBRANCH   7   8
ENDBRANCH   6   7
BRANCH   6  28
HETATM   28  C13 UNL     1     -31.662 -53.705   6.176  1.00  0.00     0.194 C 
HETATM   29  O3  UNL     1     -31.392 -53.637   4.964  1.00  0.00    -0.647 OA
HETATM   30  O4  UNL     1     -31.166 -52.705   7.014  1.00  0.00    -0.647 OA
ENDBRANCH   6  28
ENDBRANCH   5   6
ENDBRANCH   4   5
ENDBRANCH   3   4
TORSDOF 7
ENDMDL
MODEL 3
REMARK VINA RESULT: -8.203353241      3.016      5.125
REMARK  7 active torsions:
REMARK  status: ('A' for Active; 'I' for Inactive)
REMARK    1  A    between atoms: C3_3  and  C4_4 
REMARK    2  A    between atoms: C4_4  and  C5_5 
REMARK    3  A    between atoms: C5_5  and  C6_6 
REMARK    4  A    between atoms: C6_6  and  N1_7 
REMARK    5  A    between atoms: C6_6  and  C13_28 
REMARK    6  A    between atoms: N1_7  and  N2_8 
REMARK    7  A    between atoms: N2_8  and  C7_10 
ROOT
HETATM    1  C1  UNL     1     -26.366 -51.907   2.554  1.00  0.00     0.012 C 
HETATM    2  C2  UNL     1     -27.259 -52.667   2.280  1.00  0.00    -0.117 C 
HETATM    3  C3  UNL     1     -28.357 -53.607   1.917  1.00  0.00     0.093 C 
ENDROOT
BRANCH   3   4
HETATM    4  C4  UNL     1     -28.766 -54.314   3.171  1.00  0.00     0.014 C 
BRANCH   4   5
HETATM    5  C5  UNL     1     -29.872 -53.770   3.960  1.00  0.00     0.035 C 
BRANCH   5   6
HETATM    6  C6  UNL     1     -30.223 -54.262   5.289  1.00  0.00     0.200 C 
BRANCH   6   7
HETATM    7  N1  UNL     1     -31.391 -55.045   5.489  1.00  0.00    -0.124 NA
BRANCH   7   8
HETATM    8  N2  UNL     1     -31.364 -55.750   6.736  1.00  0.00    -0.288 N 
ATOM      9  H2  UNL     1     -30.556 -56.322   6.985  1.00  0.00     0.184 HD
BRANCH   8  10
HETATM   10  C7  UNL     1     -32.454 -55.650   7.610  1.00  0.00     0.134 C 
HETATM   11  C8  UNL     1     -32.308 -56.000   8.870  1.00  0.00     0.122 A 
HETATM   12  C9  UNL     1     -31.066 -56.435   9.188  1.00  0.00     0.267 A 
HETATM   13  C11 UNL     1     -33.249 -55.978   9.915  1.00  0.00     0.143 A 
HETATM   14  O1  UNL     1     -30.151 -56.499   8.350  1.00  0.00    -0.267 OA
HETATM   15  N3  UNL     1     -30.723 -56.829  10.434  1.00  0.00    -0.275 N 
HETATM   16  C10 UNL     1     -31.632 -56.797  11.396  1.00  0.00     0.328 A 
ATOM     17  H3  UNL     1     -29.775 -57.149  10.631  1.00  0.00     0.173 HD
HETATM   18  O2  UNL     1     -31.316 -57.165  12.561  1.00  0.00    -0.247 OA
HETATM   19  N4  UNL     1     -32.876 -56.381  11.155  1.00  0.00    -0.292 N 
ATOM     20  H4  UNL     1     -33.557 -56.366  11.914  1.00  0.00     0.172 HD
HETATM   21  N5  UNL     1     -34.473 -55.645   9.863  1.00  0.00    -0.287 N 
HETATM   22  N6  UNL     1     -35.265 -55.211   8.806  1.00  0.00    -0.317 N 
ATOM     23  H5  UNL     1     -34.963 -55.708  10.756  1.00  0.00     0.188 HD
HETATM   24  C12 UNL     1     -35.023 -55.388   7.371  1.00  0.00     0.262 C 
ATOM     25  H6  UNL     1     -36.116 -54.709   9.060  1.00  0.00     0.182 HD
HETATM   26  N7  UNL     1     -33.672 -55.132   7.035  1.00  0.00    -0.357 N 
ATOM     27  H7  UNL     1     -33.538 -54.479   6.263  1.00  0.00     0.162 HD
ENDBRANCH   8  10
ENDBRANCH   7   8
ENDBRANCH   6   7
BRANCH   6  28
HETATM   28  C13 UNL     1     -30.175 -53.160   6.327  1.00  0.00     0.194 C 
HETATM   29  O3  UNL     1     -29.122 -52.622   6.713  1.00  0.00    -0.647 OA
HETATM   30  O4  UNL     1     -31.377 -52.720   6.884  1.00  0.00    -0.647 OA
ENDBRANCH   6  28
ENDBRANCH   5   6
ENDBRANCH   4   5
ENDBRANCH   3   4
TORSDOF 7
ENDMDL
MODEL 4
REMARK VINA RESULT: -8.182557497      1.223      1.884
REMARK  7 active torsions:
REMARK  status: ('A' for Active; 'I' for Inactive)
REMARK    1  A    between atoms: C3_3  and  C4_4 
REMARK    2  A    between atoms: C4_4  and  C5_5 
REMARK    3  A    between atoms: C5_5  and  C6_6 
REMARK    4  A    between atoms: C6_6  and  N1_7 
REMARK    5  A    between atoms: C6_6  and  C13_28 
REMARK    6  A    between atoms: N1_7  and  N2_8 
REMARK    7  A    between atoms: N2_8  and  C7_10 
ROOT
HETATM    1  C1  UNL     1     -32.195 -54.520   2.000  1.00  0.00     0.012 C 
HETATM    2  C2  UNL     1     -33.011 -55.032   2.722  1.00  0.00    -0.117 C 
HETATM    3  C3  UNL     1     -34.033 -55.673   3.598  1.00  0.00     0.093 C 
ENDROOT
BRANCH   3   4
HETATM    4  C4  UNL     1     -33.393 -55.901   4.931  1.00  0.00     0.014 C 
BRANCH   4   5
HETATM    5  C5  UNL     1     -33.366 -54.803   5.899  1.00  0.00     0.035 C 
BRANCH   5   6
HETATM    6  C6  UNL     1     -32.251 -54.571   6.812  1.00  0.00     0.200 C 
BRANCH   6   7
HETATM    7  N1  UNL     1     -32.469 -54.464   8.212  1.00  0.00    -0.124 NA
BRANCH   7   8
HETATM    8  N2  UNL     1     -31.388 -55.016   8.973  1.00  0.00    -0.288 N 
ATOM      9  H2  UNL     1     -30.631 -54.416   9.300  1.00  0.00     0.184 HD
BRANCH   8  10
HETATM   10  C7  UNL     1     -31.379 -56.387   9.266  1.00  0.00     0.134 C 
HETATM   11  C8  UNL     1     -30.243 -57.049   9.224  1.00  0.00     0.122 A 
HETATM   12  C9  UNL     1     -29.168 -56.296   8.890  1.00  0.00     0.267 A 
HETATM   13  C11 UNL     1     -29.996 -58.410   9.482  1.00  0.00     0.143 A 
HETATM   14  O1  UNL     1     -29.262 -55.083   8.639  1.00  0.00    -0.267 OA
HETATM   15  N3  UNL     1     -27.918 -56.798   8.804  1.00  0.00    -0.275 N 
HETATM   16  C10 UNL     1     -27.719 -58.084   9.053  1.00  0.00     0.328 A 
ATOM     17  H3  UNL     1     -27.136 -56.195   8.550  1.00  0.00     0.173 HD
HETATM   18  O2  UNL     1     -26.551 -58.558   8.974  1.00  0.00    -0.247 OA
HETATM   19  N4  UNL     1     -28.730 -58.886   9.387  1.00  0.00    -0.292 N 
ATOM     20  H4  UNL     1     -28.549 -59.872   9.573  1.00  0.00     0.172 HD
HETATM   21  N5  UNL     1     -30.832 -59.317   9.780  1.00  0.00    -0.287 N 
HETATM   22  N6  UNL     1     -32.213 -59.279   9.945  1.00  0.00    -0.317 N 
ATOM     23  H5  UNL     1     -30.418 -60.238   9.925  1.00  0.00     0.188 HD
HETATM   24  C12 UNL     1     -33.150 -58.273   9.437  1.00  0.00     0.262 C 
ATOM     25  H6  UNL     1     -32.621 -60.043  10.484  1.00  0.00     0.182 HD
HETATM   26  N7  UNL     1     -32.654 -56.959   9.620  1.00  0.00    -0.357 N 
ATOM     27  H7  UNL     1     -33.303 -56.316  10.075  1.00  0.00     0.162 HD
ENDBRANCH   8  10
ENDBRANCH   7   8
ENDBRANCH   6   7
BRANCH   6  28
HETATM   28  C13 UNL     1     -31.377 -53.422   6.353  1.00  0.00     0.194 C 
HETATM   29  O3  UNL     1     -31.028 -52.484   7.090  1.00  0.00    -0.647 OA
HETATM   30  O4  UNL     1     -30.935 -53.413   5.029  1.00  0.00    -0.647 OA
ENDBRANCH   6  28
ENDBRANCH   5   6
ENDBRANCH   4   5
ENDBRANCH   3   4
TORSDOF 7
ENDMDL
MODEL 5
REMARK VINA RESULT: -8.060707943      2.006      2.450
REMARK  7 active torsions:
REMARK  status: ('A' for Active; 'I' for Inactive)
REMARK    1  A    between atoms: C3_3  and  C4_4 
REMARK    2  A    between atoms: C4_4  and  C5_5 
REMARK    3  A    between atoms: C5_5  and  C6_6 
REMARK    4  A    between atoms: C6_6  and  N1_7 
REMARK    5  A    between atoms: C6_6  and  C13_28 
REMARK    6  A    between atoms: N1_7  and  N2_8 
REMARK    7  A    between atoms: N2_8  and  C7_10 
ROOT
HETATM    1  C1  UNL     1     -35.659 -59.258   9.011  1.00  0.00     0.012 C 
HETATM    2  C2  UNL     1     -34.594 -58.884   8.589  1.00  0.00    -0.117 C 
HETATM    3  C3  UNL     1     -33.266 -58.439   8.079  1.00  0.00     0.093 C 
ENDROOT
BRANCH   3   4
HETATM    4  C4  UNL     1     -33.515 -57.627   6.847  1.00  0.00     0.014 C 
BRANCH   4   5
HETATM    5  C5  UNL     1     -32.843 -56.336   6.703  1.00  0.00     0.035 C 
BRANCH   5   6
HETATM    6  C6  UNL     1     -33.372 -55.094   7.257  1.00  0.00     0.200 C 
BRANCH   6   7
HETATM    7  N1  UNL     1     -32.898 -54.591   8.498  1.00  0.00    -0.124 NA
BRANCH   7   8
HETATM    8  N2  UNL     1     -31.545 -54.983   8.761  1.00  0.00    -0.288 N 
ATOM      9  H2  UNL     1     -30.780 -54.587   8.214  1.00  0.00     0.184 HD
BRANCH   8  10
HETATM   10  C7  UNL     1     -31.280 -55.913   9.775  1.00  0.00     0.134 C 
HETATM   11  C8  UNL     1     -30.144 -56.577   9.763  1.00  0.00     0.122 A 
HETATM   12  C9  UNL     1     -29.327 -56.269   8.728  1.00  0.00     0.267 A 
HETATM   13  C11 UNL     1     -29.667 -57.542  10.669  1.00  0.00     0.143 A 
HETATM   14  O1  UNL     1     -29.640 -55.432   7.864  1.00  0.00    -0.267 OA
HETATM   15  N3  UNL     1     -28.117 -56.841   8.553  1.00  0.00    -0.275 N 
HETATM   16  C10 UNL     1     -27.696 -57.746   9.424  1.00  0.00     0.328 A 
ATOM     17  H3  UNL     1     -27.532 -56.579   7.760  1.00  0.00     0.173 HD
HETATM   18  O2  UNL     1     -26.565 -58.283   9.264  1.00  0.00    -0.247 OA
HETATM   19  N4  UNL     1     -28.448 -58.100  10.467  1.00  0.00    -0.292 N 
ATOM     20  H4  UNL     1     -28.100 -58.800  11.122  1.00  0.00     0.172 HD
HETATM   21  N5  UNL     1     -30.252 -58.018  11.690  1.00  0.00    -0.287 N 
HETATM   22  N6  UNL     1     -31.505 -57.761  12.237  1.00  0.00    -0.317 N 
ATOM     23  H5  UNL     1     -29.706 -58.711  12.201  1.00  0.00     0.188 HD
HETATM   24  C12 UNL     1     -32.668 -57.163  11.574  1.00  0.00     0.262 C 
ATOM     25  H6  UNL     1     -31.629 -58.020  13.216  1.00  0.00     0.182 HD
HETATM   26  N7  UNL     1     -32.301 -56.046  10.785  1.00  0.00    -0.357 N 
ATOM     27  H7  UNL     1     -32.846 -55.201  10.958  1.00  0.00     0.162 HD
ENDBRANCH   8  10
ENDBRANCH   7   8
ENDBRANCH   6   7
BRANCH   6  28
HETATM   28  C13 UNL     1     -34.887 -55.078   7.257  1.00  0.00     0.194 C 
HETATM   29  O3  UNL     1     -35.573 -54.814   6.254  1.00  0.00    -0.647 OA
HETATM   30  O4  UNL     1     -35.554 -55.378   8.446  1.00  0.00    -0.647 OA
ENDBRANCH   6  28
ENDBRANCH   5   6
ENDBRANCH   4   5
ENDBRANCH   3   4
TORSDOF 7
ENDMDL
