MODEL 1
REMARK VINA RESULT: -8.526466098      0.000      0.000
REMARK  10 active torsions:
REMARK  status: ('A' for Active; 'I' for Inactive)
REMARK    1  A    between atoms: C2_2  and  C3_3 
REMARK    2  A    between atoms: C3_3  and  N1_4 
REMARK       I    between atoms: N1_4  and  C4_5 
REMARK    3  A    between atoms: C4_5  and  C5_7 
REMARK    4  A    between atoms: C5_7  and  N2_8 
REMARK       I    between atoms: N2_8  and  C6_10 
REMARK       I    between atoms: C6_10  and  N3_12 
REMARK    5  A    between atoms: N3_12  and  N4_14 
REMARK       I    between atoms: N4_14  and  C7_16 
REMARK    6  A    between atoms: C7_16  and  C8_18 
REMARK       I    between atoms: C8_18  and  N5_20 
REMARK    7  A    between atoms: N5_20  and  C9_22 
REMARK    8  A    between atoms: C9_22  and  C10_23 
REMARK       I    between atoms: C10_23  and  N6_25 
REMARK    9  A    between atoms: C11_27  and  N7_28 
REMARK   10  A    between atoms: N7_28  and  N8_30 
ROOT
HETATM    1  N4  UNL     1     -30.149 -54.840   5.261  1.00  0.00    -0.258 N 
ATOM      2  H4  UNL     1     -31.029 -55.192   4.884  1.00  0.00     0.190 HD
HETATM    3  C7  UNL     1     -30.071 -54.625   6.640  1.00  0.00     0.327 C 
HETATM    4  O3  UNL     1     -29.053 -54.184   7.205  1.00  0.00    -0.261 OA
ENDROOT
BRANCH   3   5
HETATM    5  C8  UNL     1     -31.239 -54.938   7.503  1.00  0.00     0.311 C 
HETATM    6  O4  UNL     1     -31.952 -53.935   7.839  1.00  0.00    -0.262 OA
HETATM    7  N5  UNL     1     -31.523 -56.245   7.906  1.00  0.00    -0.344 N 
ATOM      8  H5  UNL     1     -30.928 -57.024   7.624  1.00  0.00     0.163 HD
BRANCH   7   9
HETATM    9  C9  UNL     1     -32.687 -56.458   8.733  1.00  0.00     0.226 C 
BRANCH   9  10
HETATM   10  C10 UNL     1     -32.382 -56.757  10.145  1.00  0.00     0.240 C 
HETATM   11  O5  UNL     1     -32.903 -56.205  11.139  1.00  0.00    -0.271 OA
HETATM   12  N6  UNL     1     -31.407 -57.769  10.370  1.00  0.00    -0.321 N 
HETATM   13  C11 UNL     1     -30.700 -57.730  11.426  1.00  0.00     0.199 C 
ATOM     14  H6  UNL     1     -31.276 -58.519   9.690  1.00  0.00     0.169 HD
BRANCH  13  15
HETATM   15  N7  UNL     1     -30.842 -56.724  12.396  1.00  0.00    -0.303 N 
ATOM     16  H7  UNL     1     -30.769 -55.743  12.125  1.00  0.00     0.187 HD
BRANCH  15  17
HETATM   17  N8  UNL     1     -31.085 -57.067  13.754  1.00  0.00    -0.344 N 
ATOM     18  H82 UNL     1     -30.536 -57.814  14.179  1.00  0.00     0.176 HD
ATOM     19  H81 UNL     1     -31.798 -56.572  14.290  1.00  0.00     0.176 HD
ENDBRANCH  15  17
ENDBRANCH  13  15
ENDBRANCH   9  10
ENDBRANCH   7   9
ENDBRANCH   3   5
BRANCH   1  20
HETATM   20  N3  UNL     1     -29.107 -54.606   4.366  1.00  0.00    -0.249 N 
HETATM   21  C6  UNL     1     -29.142 -53.322   3.734  1.00  0.00     0.335 C 
HETATM   22  N2  UNL     1     -28.242 -52.817   2.785  1.00  0.00    -0.332 N 
HETATM   23  O2  UNL     1     -30.122 -52.574   4.107  1.00  0.00    -0.246 OA
ATOM     24  H2  UNL     1     -27.454 -53.379   2.464  1.00  0.00     0.164 HD
ATOM     25  H3  UNL     1     -28.378 -55.293   4.177  1.00  0.00     0.192 HD
BRANCH  22  26
HETATM   26  C5  UNL     1     -28.454 -51.495   2.276  1.00  0.00     0.243 C 
BRANCH  26  27
HETATM   27  C4  UNL     1     -27.217 -50.624   2.633  1.00  0.00     0.304 C 
HETATM   28  N1  UNL     1     -27.139 -49.420   2.185  1.00  0.00    -0.410 NA
HETATM   29  O1  UNL     1     -26.367 -51.260   3.372  1.00  0.00    -0.256 OA
BRANCH  28  30
HETATM   30  C3  UNL     1     -27.051 -48.067   1.684  1.00  0.00     0.248 C 
BRANCH  30  31
HETATM   31  C2  UNL     1     -26.120 -47.245   2.496  1.00  0.00    -0.004 C 
HETATM   32  C1  UNL     1     -25.350 -46.350   1.902  1.00  0.00     0.009 C 
ENDBRANCH  30  31
ENDBRANCH  28  30
ENDBRANCH  26  27
ENDBRANCH  22  26
ENDBRANCH   1  20
TORSDOF 10
ENDMDL
MODEL 2
REMARK VINA RESULT: -8.379761784      1.922      2.137
REMARK  10 active torsions:
REMARK  status: ('A' for Active; 'I' for Inactive)
REMARK    1  A    between atoms: C2_2  and  C3_3 
REMARK    2  A    between atoms: C3_3  and  N1_4 
REMARK       I    between atoms: N1_4  and  C4_5 
REMARK    3  A    between atoms: C4_5  and  C5_7 
REMARK    4  A    between atoms: C5_7  and  N2_8 
REMARK       I    between atoms: N2_8  and  C6_10 
REMARK       I    between atoms: C6_10  and  N3_12 
REMARK    5  A    between atoms: N3_12  and  N4_14 
REMARK       I    between atoms: N4_14  and  C7_16 
REMARK    6  A    between atoms: C7_16  and  C8_18 
REMARK       I    between atoms: C8_18  and  N5_20 
REMARK    7  A    between atoms: N5_20  and  C9_22 
REMARK    8  A    between atoms: C9_22  and  C10_23 
REMARK       I    between atoms: C10_23  and  N6_25 
REMARK    9  A    between atoms: C11_27  and  N7_28 
REMARK   10  A    between atoms: N7_28  and  N8_30 
ROOT
HETATM    1  N4  UNL     1     -30.871 -54.300   4.899  1.00  0.00    -0.258 N 
ATOM      2  H4  UNL     1     -30.658 -55.295   4.816  1.00  0.00     0.190 HD
HETATM    3  C7  UNL     1     -31.419 -53.850   6.103  1.00  0.00     0.327 C 
HETATM    4  O3  UNL     1     -31.731 -52.662   6.308  1.00  0.00    -0.261 OA
ENDROOT
BRANCH   3   5
HETATM    5  C8  UNL     1     -31.642 -54.808   7.217  1.00  0.00     0.311 C 
HETATM    6  O4  UNL     1     -31.985 -54.283   8.327  1.00  0.00    -0.262 OA
HETATM    7  N5  UNL     1     -31.487 -56.185   7.040  1.00  0.00    -0.344 N 
ATOM      8  H5  UNL     1     -31.205 -56.572   6.140  1.00  0.00     0.163 HD
BRANCH   7   9
HETATM    9  C9  UNL     1     -31.738 -57.043   8.173  1.00  0.00     0.226 C 
BRANCH   9  10
HETATM   10  C10 UNL     1     -30.638 -57.974   8.487  1.00  0.00     0.240 C 
HETATM   11  O5  UNL     1     -30.745 -59.210   8.642  1.00  0.00    -0.271 OA
HETATM   12  N6  UNL     1     -29.347 -57.388   8.619  1.00  0.00    -0.321 N 
HETATM   13  C11 UNL     1     -28.488 -57.937   9.379  1.00  0.00     0.199 C 
ATOM     14  H6  UNL     1     -29.113 -56.536   8.108  1.00  0.00     0.169 HD
BRANCH  13  15
HETATM   15  N7  UNL     1     -28.756 -59.112  10.100  1.00  0.00    -0.303 N 
ATOM     16  H7  UNL     1     -28.657 -60.020   9.646  1.00  0.00     0.187 HD
BRANCH  15  17
HETATM   17  N8  UNL     1     -29.163 -59.040  11.460  1.00  0.00    -0.344 N 
ATOM     18  H82 UNL     1     -29.769 -58.273  11.754  1.00  0.00     0.176 HD
ATOM     19  H81 UNL     1     -28.851 -59.745  12.129  1.00  0.00     0.176 HD
ENDBRANCH  15  17
ENDBRANCH  13  15
ENDBRANCH   9  10
ENDBRANCH   7   9
ENDBRANCH   3   5
BRANCH   1  20
HETATM   20  N3  UNL     1     -30.596 -53.484   3.803  1.00  0.00    -0.249 N 
HETATM   21  C6  UNL     1     -29.216 -53.439   3.426  1.00  0.00     0.335 C 
HETATM   22  N2  UNL     1     -28.644 -52.698   2.381  1.00  0.00    -0.332 N 
HETATM   23  O2  UNL     1     -28.445 -54.178   4.146  1.00  0.00    -0.246 OA
ATOM     24  H2  UNL     1     -29.222 -52.101   1.789  1.00  0.00     0.164 HD
ATOM     25  H3  UNL     1     -31.320 -52.961   3.311  1.00  0.00     0.192 HD
BRANCH  22  26
HETATM   26  C5  UNL     1     -27.232 -52.798   2.165  1.00  0.00     0.243 C 
BRANCH  26  27
HETATM   27  C4  UNL     1     -26.553 -51.523   2.739  1.00  0.00     0.304 C 
HETATM   28  N1  UNL     1     -27.034 -50.364   2.450  1.00  0.00    -0.410 NA
HETATM   29  O1  UNL     1     -25.525 -51.804   3.472  1.00  0.00    -0.256 OA
BRANCH  28  30
HETATM   30  C3  UNL     1     -27.573 -49.062   2.128  1.00  0.00     0.248 C 
BRANCH  30  31
HETATM   31  C2  UNL     1     -26.536 -48.172   1.549  1.00  0.00    -0.004 C 
HETATM   32  C1  UNL     1     -26.158 -47.093   2.211  1.00  0.00     0.009 C 
ENDBRANCH  30  31
ENDBRANCH  28  30
ENDBRANCH  26  27
ENDBRANCH  22  26
ENDBRANCH   1  20
TORSDOF 10
ENDMDL
MODEL 3
REMARK VINA RESULT: -8.077052748      2.179      2.576
REMARK  10 active torsions:
REMARK  status: ('A' for Active; 'I' for Inactive)
REMARK    1  A    between atoms: C2_2  and  C3_3 
REMARK    2  A    between atoms: C3_3  and  N1_4 
REMARK       I    between atoms: N1_4  and  C4_5 
REMARK    3  A    between atoms: C4_5  and  C5_7 
REMARK    4  A    between atoms: C5_7  and  N2_8 
REMARK       I    between atoms: N2_8  and  C6_10 
REMARK       I    between atoms: C6_10  and  N3_12 
REMARK    5  A    between atoms: N3_12  and  N4_14 
REMARK       I    between atoms: N4_14  and  C7_16 
REMARK    6  A    between atoms: C7_16  and  C8_18 
REMARK       I    between atoms: C8_18  and  N5_20 
REMARK    7  A    between atoms: N5_20  and  C9_22 
REMARK    8  A    between atoms: C9_22  and  C10_23 
REMARK       I    between atoms: C10_23  and  N6_25 
REMARK    9  A    between atoms: C11_27  and  N7_28 
REMARK   10  A    between atoms: N7_28  and  N8_30 
ROOT
HETATM    1  N4  UNL     1     -31.131 -54.511   4.870  1.00  0.00    -0.258 N 
ATOM      2  H4  UNL     1     -30.994 -55.520   4.806  1.00  0.00     0.190 HD
HETATM    3  C7  UNL     1     -31.544 -53.986   6.097  1.00  0.00     0.327 C 
HETATM    4  O3  UNL     1     -31.757 -52.773   6.283  1.00  0.00    -0.261 OA
ENDROOT
BRANCH   3   5
HETATM    5  C8  UNL     1     -31.739 -54.891   7.259  1.00  0.00     0.311 C 
HETATM    6  O4  UNL     1     -32.131 -54.323   8.332  1.00  0.00    -0.262 OA
HETATM    7  N5  UNL     1     -31.507 -56.265   7.164  1.00  0.00    -0.344 N 
ATOM      8  H5  UNL     1     -31.187 -56.686   6.292  1.00  0.00     0.163 HD
BRANCH   7   9
HETATM    9  C9  UNL     1     -31.735 -57.071   8.340  1.00  0.00     0.226 C 
BRANCH   9  10
HETATM   10  C10 UNL     1     -30.686 -58.074   8.603  1.00  0.00     0.240 C 
HETATM   11  O5  UNL     1     -30.871 -59.296   8.788  1.00  0.00    -0.271 OA
HETATM   12  N6  UNL     1     -29.351 -57.581   8.641  1.00  0.00    -0.321 N 
HETATM   13  C11 UNL     1     -28.486 -58.179   9.356  1.00  0.00     0.199 C 
ATOM     14  H6  UNL     1     -29.090 -56.756   8.100  1.00  0.00     0.169 HD
BRANCH  13  15
HETATM   15  N7  UNL     1     -28.790 -59.320  10.117  1.00  0.00    -0.303 N 
ATOM     16  H7  UNL     1     -28.737 -60.244   9.688  1.00  0.00     0.187 HD
BRANCH  15  17
HETATM   17  N8  UNL     1     -29.170 -59.192  11.480  1.00  0.00    -0.344 N 
ATOM     18  H82 UNL     1     -28.460 -58.941  12.169  1.00  0.00     0.176 HD
ATOM     19  H81 UNL     1     -30.138 -59.350  11.761  1.00  0.00     0.176 HD
ENDBRANCH  15  17
ENDBRANCH  13  15
ENDBRANCH   9  10
ENDBRANCH   7   9
ENDBRANCH   3   5
BRANCH   1  20
HETATM   20  N3  UNL     1     -30.894 -53.751   3.726  1.00  0.00    -0.249 N 
HETATM   21  C6  UNL     1     -29.510 -53.569   3.408  1.00  0.00     0.335 C 
HETATM   22  N2  UNL     1     -28.973 -52.843   2.335  1.00  0.00    -0.332 N 
HETATM   23  O2  UNL     1     -28.699 -54.155   4.219  1.00  0.00    -0.246 OA
ATOM     24  H2  UNL     1     -29.582 -52.365   1.673  1.00  0.00     0.164 HD
ATOM     25  H3  UNL     1     -31.646 -53.355   3.161  1.00  0.00     0.192 HD
BRANCH  22  26
HETATM   26  C5  UNL     1     -27.549 -52.789   2.191  1.00  0.00     0.243 C 
BRANCH  26  27
HETATM   27  C4  UNL     1     -27.055 -51.401   2.685  1.00  0.00     0.304 C 
HETATM   28  N1  UNL     1     -27.705 -50.341   2.351  1.00  0.00    -0.410 NA
HETATM   29  O1  UNL     1     -25.985 -51.490   3.407  1.00  0.00    -0.256 OA
BRANCH  28  30
HETATM   30  C3  UNL     1     -28.433 -49.150   1.976  1.00  0.00     0.248 C 
BRANCH  30  31
HETATM   31  C2  UNL     1     -29.893 -49.403   1.909  1.00  0.00    -0.004 C 
HETATM   32  C1  UNL     1     -30.719 -48.404   1.650  1.00  0.00     0.009 C 
ENDBRANCH  30  31
ENDBRANCH  28  30
ENDBRANCH  26  27
ENDBRANCH  22  26
ENDBRANCH   1  20
TORSDOF 10
ENDMDL
MODEL 4
REMARK VINA RESULT: -7.927530313      1.730      2.082
REMARK  10 active torsions:
REMARK  status: ('A' for Active; 'I' for Inactive)
REMARK    1  A    between atoms: C2_2  and  C3_3 
REMARK    2  A    between atoms: C3_3  and  N1_4 
REMARK       I    between atoms: N1_4  and  C4_5 
REMARK    3  A    between atoms: C4_5  and  C5_7 
REMARK    4  A    between atoms: C5_7  and  N2_8 
REMARK       I    between atoms: N2_8  and  C6_10 
REMARK       I    between atoms: C6_10  and  N3_12 
REMARK    5  A    between atoms: N3_12  and  N4_14 
REMARK       I    between atoms: N4_14  and  C7_16 
REMARK    6  A    between atoms: C7_16  and  C8_18 
REMARK       I    between atoms: C8_18  and  N5_20 
REMARK    7  A    between atoms: N5_20  and  C9_22 
REMARK    8  A    between atoms: C9_22  and  C10_23 
REMARK       I    between atoms: C10_23  and  N6_25 
REMARK    9  A    between atoms: C11_27  and  N7_28 
REMARK   10  A    between atoms: N7_28  and  N8_30 
ROOT
HETATM    1  N4  UNL     1     -30.578 -54.974   5.894  1.00  0.00    -0.258 N 
ATOM      2  H4  UNL     1     -29.818 -54.795   6.551  1.00  0.00     0.190 HD
HETATM    3  C7  UNL     1     -31.824 -55.327   6.420  1.00  0.00     0.327 C 
HETATM    4  O3  UNL     1     -32.816 -55.582   5.712  1.00  0.00    -0.261 OA
ENDROOT
BRANCH   3   5
HETATM    5  C8  UNL     1     -32.009 -55.401   7.892  1.00  0.00     0.311 C 
HETATM    6  O4  UNL     1     -32.138 -54.278   8.483  1.00  0.00    -0.262 OA
HETATM    7  N5  UNL     1     -32.042 -56.625   8.566  1.00  0.00    -0.344 N 
ATOM      8  H5  UNL     1     -31.929 -57.505   8.063  1.00  0.00     0.163 HD
BRANCH   7   9
HETATM    9  C9  UNL     1     -32.240 -56.604   9.995  1.00  0.00     0.226 C 
BRANCH   9  10
HETATM   10  C10 UNL     1     -31.351 -57.509  10.746  1.00  0.00     0.240 C 
HETATM   11  O5  UNL     1     -30.930 -57.326  11.909  1.00  0.00    -0.271 OA
HETATM   12  N6  UNL     1     -30.952 -58.694  10.064  1.00  0.00    -0.321 N 
HETATM   13  C11 UNL     1     -29.836 -59.232  10.351  1.00  0.00     0.199 C 
ATOM     14  H6  UNL     1     -31.555 -59.108   9.353  1.00  0.00     0.169 HD
BRANCH  13  15
HETATM   15  N7  UNL     1     -28.969 -58.707  11.324  1.00  0.00    -0.303 N 
ATOM     16  H7  UNL     1     -29.135 -58.904  12.310  1.00  0.00     0.187 HD
BRANCH  15  17
HETATM   17  N8  UNL     1     -27.862 -57.903  10.938  1.00  0.00    -0.344 N 
ATOM     18  H82 UNL     1     -26.922 -58.200  11.199  1.00  0.00     0.176 HD
ATOM     19  H81 UNL     1     -28.011 -57.043  10.410  1.00  0.00     0.176 HD
ENDBRANCH  15  17
ENDBRANCH  13  15
ENDBRANCH   9  10
ENDBRANCH   7   9
ENDBRANCH   3   5
BRANCH   1  20
HETATM   20  N3  UNL     1     -30.303 -54.849   4.533  1.00  0.00    -0.249 N 
HETATM   21  C6  UNL     1     -29.522 -53.701   4.187  1.00  0.00     0.335 C 
HETATM   22  N2  UNL     1     -29.107 -53.311   2.905  1.00  0.00    -0.332 N 
HETATM   23  O2  UNL     1     -29.176 -52.973   5.190  1.00  0.00    -0.246 OA
ATOM     24  H2  UNL     1     -29.361 -53.862   2.085  1.00  0.00     0.164 HD
ATOM     25  H3  UNL     1     -30.633 -55.521   3.841  1.00  0.00     0.192 HD
BRANCH  22  26
HETATM   26  C5  UNL     1     -28.319 -52.122   2.773  1.00  0.00     0.243 C 
BRANCH  26  27
HETATM   27  C4  UNL     1     -29.157 -51.056   2.014  1.00  0.00     0.304 C 
HETATM   28  N1  UNL     1     -28.732 -49.843   1.951  1.00  0.00    -0.410 NA
HETATM   29  O1  UNL     1     -30.245 -51.551   1.518  1.00  0.00    -0.256 OA
BRANCH  28  30
HETATM   30  C3  UNL     1     -28.256 -48.480   1.878  1.00  0.00     0.248 C 
BRANCH  30  31
HETATM   31  C2  UNL     1     -26.791 -48.402   2.099  1.00  0.00    -0.004 C 
HETATM   32  C1  UNL     1     -26.177 -47.235   2.012  1.00  0.00     0.009 C 
ENDBRANCH  30  31
ENDBRANCH  28  30
ENDBRANCH  26  27
ENDBRANCH  22  26
ENDBRANCH   1  20
TORSDOF 10
ENDMDL
MODEL 5
REMARK VINA RESULT: -7.897264754      1.143      1.327
REMARK  10 active torsions:
REMARK  status: ('A' for Active; 'I' for Inactive)
REMARK    1  A    between atoms: C2_2  and  C3_3 
REMARK    2  A    between atoms: C3_3  and  N1_4 
REMARK       I    between atoms: N1_4  and  C4_5 
REMARK    3  A    between atoms: C4_5  and  C5_7 
REMARK    4  A    between atoms: C5_7  and  N2_8 
REMARK       I    between atoms: N2_8  and  C6_10 
REMARK       I    between atoms: C6_10  and  N3_12 
REMARK    5  A    between atoms: N3_12  and  N4_14 
REMARK       I    between atoms: N4_14  and  C7_16 
REMARK    6  A    between atoms: C7_16  and  C8_18 
REMARK       I    between atoms: C8_18  and  N5_20 
REMARK    7  A    between atoms: N5_20  and  C9_22 
REMARK    8  A    between atoms: C9_22  and  C10_23 
REMARK       I    between atoms: C10_23  and  N6_25 
REMARK    9  A    between atoms: C11_27  and  N7_28 
REMARK   10  A    between atoms: N7_28  and  N8_30 
ROOT
HETATM    1  N4  UNL     1     -30.194 -54.886   5.468  1.00  0.00    -0.258 N 
ATOM      2  H4  UNL     1     -31.006 -55.352   5.060  1.00  0.00     0.190 HD
HETATM    3  C7  UNL     1     -30.179 -54.697   6.852  1.00  0.00     0.327 C 
HETATM    4  O3  UNL     1     -29.248 -54.128   7.453  1.00  0.00    -0.261 OA
ENDROOT
BRANCH   3   5
HETATM    5  C8  UNL     1     -31.309 -55.196   7.678  1.00  0.00     0.311 C 
HETATM    6  O4  UNL     1     -32.068 -54.294   8.165  1.00  0.00    -0.262 OA
HETATM    7  N5  UNL     1     -31.513 -56.561   7.892  1.00  0.00    -0.344 N 
ATOM      8  H5  UNL     1     -30.883 -57.257   7.493  1.00  0.00     0.163 HD
BRANCH   7   9
HETATM    9  C9  UNL     1     -32.644 -56.957   8.697  1.00  0.00     0.226 C 
BRANCH   9  10
HETATM   10  C10 UNL     1     -32.355 -57.072  10.138  1.00  0.00     0.240 C 
HETATM   11  O5  UNL     1     -32.809 -56.334  11.039  1.00  0.00    -0.271 OA
HETATM   12  N6  UNL     1     -31.478 -58.131  10.512  1.00  0.00    -0.321 N 
HETATM   13  C11 UNL     1     -30.759 -58.005  11.554  1.00  0.00     0.199 C 
ATOM     14  H6  UNL     1     -31.428 -58.981   9.951  1.00  0.00     0.169 HD
BRANCH  13  15
HETATM   15  N7  UNL     1     -30.793 -56.859  12.364  1.00  0.00    -0.303 N 
ATOM     16  H7  UNL     1     -30.568 -55.948  11.966  1.00  0.00     0.187 HD
BRANCH  15  17
HETATM   17  N8  UNL     1     -31.140 -56.964  13.739  1.00  0.00    -0.344 N 
ATOM     18  H82 UNL     1     -30.726 -57.712  14.296  1.00  0.00     0.176 HD
ATOM     19  H81 UNL     1     -31.793 -56.300  14.157  1.00  0.00     0.176 HD
ENDBRANCH  15  17
ENDBRANCH  13  15
ENDBRANCH   9  10
ENDBRANCH   7   9
ENDBRANCH   3   5
BRANCH   1  20
HETATM   20  N3  UNL     1     -29.177 -54.482   4.605  1.00  0.00    -0.249 N 
HETATM   21  C6  UNL     1     -29.610 -53.658   3.518  1.00  0.00     0.335 C 
HETATM   22  N2  UNL     1     -28.820 -53.120   2.492  1.00  0.00    -0.332 N 
HETATM   23  O2  UNL     1     -30.872 -53.401   3.518  1.00  0.00    -0.246 OA
ATOM     24  H2  UNL     1     -27.817 -53.301   2.457  1.00  0.00     0.164 HD
ATOM     25  H3  UNL     1     -28.202 -54.753   4.737  1.00  0.00     0.192 HD
BRANCH  22  26
HETATM   26  C5  UNL     1     -29.452 -52.309   1.495  1.00  0.00     0.243 C 
BRANCH  26  27
HETATM   27  C4  UNL     1     -29.330 -50.819   1.919  1.00  0.00     0.304 C 
HETATM   28  N1  UNL     1     -28.177 -50.343   2.236  1.00  0.00    -0.410 NA
HETATM   29  O1  UNL     1     -30.472 -50.212   1.906  1.00  0.00    -0.256 OA
BRANCH  28  30
HETATM   30  C3  UNL     1     -26.883 -49.806   2.593  1.00  0.00     0.248 C 
BRANCH  30  31
HETATM   31  C2  UNL     1     -26.517 -48.653   1.735  1.00  0.00    -0.004 C 
HETATM   32  C1  UNL     1     -26.419 -47.447   2.268  1.00  0.00     0.009 C 
ENDBRANCH  30  31
ENDBRANCH  28  30
ENDBRANCH  26  27
ENDBRANCH  22  26
ENDBRANCH   1  20
TORSDOF 10
ENDMDL
