MODEL 1
REMARK VINA RESULT: -7.564600054      0.000      0.000
REMARK  7 active torsions:
REMARK  status: ('A' for Active; 'I' for Inactive)
REMARK       I    between atoms: C1_4  and  N3_6 
REMARK    1  A    between atoms: N3_6  and  O1_8 
REMARK    2  A    between atoms: O1_8  and  C2_9 
REMARK    3  A    between atoms: C2_9  and  C3_10 
REMARK    4  A    between atoms: C3_10  and  N4_11 
REMARK       I    between atoms: N4_11  and  C4_13 
REMARK    5  A    between atoms: C4_13  and  C5_15 
REMARK    6  A    between atoms: N5_16  and  C6_17 
REMARK    7  A    between atoms: N6_18  and  N7_20 
ROOT
HETATM    1  C5  UNL     1     -32.111 -56.670   9.533  1.00  0.00     0.223 C 
HETATM    2  N5  UNL     1     -32.612 -57.986   9.115  1.00  0.00    -0.360 N 
HETATM    3  C7  UNL     1     -31.686 -58.512   8.153  1.00  0.00     0.128 C 
HETATM    4  C8  UNL     1     -30.428 -57.662   8.237  1.00  0.00     0.072 C 
HETATM    5  C9  UNL     1     -30.623 -56.959   9.584  1.00  0.00     0.235 C 
HETATM    6  N8  UNL     1     -29.824 -55.792   9.704  1.00  0.00    -0.053 N 
ATOM      7  H81 UNL     1     -30.394 -54.965   9.882  1.00  0.00     0.278 HD
ATOM      8  H82 UNL     1     -29.427 -55.517   8.805  1.00  0.00     0.278 HD
HETATM    9  C10 UNL     1     -28.780 -55.961  10.727  1.00  0.00     0.253 C 
HETATM   10  C11 UNL     1     -28.001 -57.227  10.463  1.00  0.00     0.150 C 
HETATM   11  N9  UNL     1     -28.943 -58.308  10.821  1.00  0.00    -0.357 N 
ATOM     12  H9  UNL     1     -28.639 -59.205  11.200  1.00  0.00     0.162 HD
HETATM   13  C12 UNL     1     -30.299 -57.991  10.594  1.00  0.00     0.257 C 
HETATM   14  O3  UNL     1     -31.190 -58.563  11.226  1.00  0.00    -0.271 OA
ENDROOT
BRANCH   1  15
HETATM   15  C4  UNL     1     -32.379 -55.671   8.464  1.00  0.00     0.243 C 
HETATM   16  N4  UNL     1     -33.250 -55.847   7.376  1.00  0.00    -0.357 N 
ATOM     17  H4  UNL     1     -33.759 -56.725   7.271  1.00  0.00     0.162 HD
HETATM   18  O2  UNL     1     -31.769 -54.544   8.519  1.00  0.00    -0.271 OA
BRANCH  16  19
HETATM   19  C3  UNL     1     -33.431 -54.799   6.407  1.00  0.00     0.151 C 
BRANCH  19  20
HETATM   20  C2  UNL     1     -32.904 -55.194   5.041  1.00  0.00     0.220 C 
BRANCH  20  21
HETATM   21  O1  UNL     1     -32.133 -54.182   4.490  1.00  0.00    -0.276 OA
BRANCH  21  22
HETATM   22  N3  UNL     1     -31.447 -53.509   5.418  1.00  0.00    -0.239 N 
HETATM   23  C1  UNL     1     -30.056 -53.637   5.556  1.00  0.00     0.205 C 
HETATM   24  N1  UNL     1     -29.593 -54.539   6.381  1.00  0.00    -0.372 N 
HETATM   25  N2  UNL     1     -29.148 -52.828   4.836  1.00  0.00    -0.062 NA
ATOM     26  H12 UNL     1     -28.582 -54.632   6.481  1.00  0.00     0.158 HD
ATOM     27  H11 UNL     1     -30.249 -55.123   6.900  1.00  0.00     0.158 HD
ATOM     28  H3  UNL     1     -31.951 -52.883   6.047  1.00  0.00     0.197 HD
ENDBRANCH  21  22
ENDBRANCH  20  21
ENDBRANCH  19  20
ENDBRANCH  16  19
ENDBRANCH   1  15
BRANCH   2  29
HETATM   29  C6  UNL     1     -33.800 -58.608   9.583  1.00  0.00     0.195 C 
HETATM   30  N6  UNL     1     -34.746 -58.996   8.807  1.00  0.00    -0.303 N 
ATOM     31  H6  UNL     1     -34.672 -58.864   7.798  1.00  0.00     0.187 HD
BRANCH  30  32
HETATM   32  N7  UNL     1     -35.877 -59.599   9.357  1.00  0.00    -0.344 N 
ATOM     33  H72 UNL     1     -35.762 -60.332  10.057  1.00  0.00     0.176 HD
ATOM     34  H71 UNL     1     -36.802 -59.298   9.051  1.00  0.00     0.176 HD
ENDBRANCH  30  32
ENDBRANCH   2  29
TORSDOF 7
ENDMDL
MODEL 2
REMARK VINA RESULT: -7.224713588      1.006      1.060
REMARK  7 active torsions:
REMARK  status: ('A' for Active; 'I' for Inactive)
REMARK       I    between atoms: C1_4  and  N3_6 
REMARK    1  A    between atoms: N3_6  and  O1_8 
REMARK    2  A    between atoms: O1_8  and  C2_9 
REMARK    3  A    between atoms: C2_9  and  C3_10 
REMARK    4  A    between atoms: C3_10  and  N4_11 
REMARK       I    between atoms: N4_11  and  C4_13 
REMARK    5  A    between atoms: C4_13  and  C5_15 
REMARK    6  A    between atoms: N5_16  and  C6_17 
REMARK    7  A    between atoms: N6_18  and  N7_20 
ROOT
HETATM    1  C5  UNL     1     -32.044 -56.464   9.412  1.00  0.00     0.223 C 
HETATM    2  N5  UNL     1     -32.635 -57.751   9.023  1.00  0.00    -0.360 N 
HETATM    3  C7  UNL     1     -31.728 -58.381   8.106  1.00  0.00     0.128 C 
HETATM    4  C8  UNL     1     -30.410 -57.628   8.199  1.00  0.00     0.072 C 
HETATM    5  C9  UNL     1     -30.585 -56.865   9.516  1.00  0.00     0.235 C 
HETATM    6  N8  UNL     1     -29.701 -55.759   9.620  1.00  0.00    -0.053 N 
ATOM      7  H81 UNL     1     -30.209 -54.885   9.755  1.00  0.00     0.278 HD
ATOM      8  H82 UNL     1     -29.260 -55.547   8.725  1.00  0.00     0.278 HD
HETATM    9  C10 UNL     1     -28.701 -55.972  10.679  1.00  0.00     0.253 C 
HETATM   10  C11 UNL     1     -28.017 -57.304  10.480  1.00  0.00     0.150 C 
HETATM   11  N9  UNL     1     -29.050 -58.296  10.846  1.00  0.00    -0.357 N 
ATOM     12  H9  UNL     1     -28.827 -59.199  11.263  1.00  0.00     0.162 HD
HETATM   13  C12 UNL     1     -30.370 -57.883  10.568  1.00  0.00     0.257 C 
HETATM   14  O3  UNL     1     -31.320 -58.362  11.193  1.00  0.00    -0.271 OA
ENDROOT
BRANCH   1  15
HETATM   15  C4  UNL     1     -32.204 -55.485   8.303  1.00  0.00     0.243 C 
HETATM   16  N4  UNL     1     -32.800 -55.746   7.057  1.00  0.00    -0.357 N 
ATOM     17  H4  UNL     1     -33.163 -56.678   6.855  1.00  0.00     0.162 HD
HETATM   18  O2  UNL     1     -31.764 -54.293   8.476  1.00  0.00    -0.271 OA
BRANCH  16  19
HETATM   19  C3  UNL     1     -32.902 -54.710   6.065  1.00  0.00     0.151 C 
BRANCH  19  20
HETATM   20  C2  UNL     1     -32.361 -55.158   4.721  1.00  0.00     0.220 C 
BRANCH  20  21
HETATM   21  O1  UNL     1     -31.419 -54.263   4.237  1.00  0.00    -0.276 OA
BRANCH  21  22
HETATM   22  N3  UNL     1     -30.174 -54.613   4.572  1.00  0.00    -0.239 N 
HETATM   23  C1  UNL     1     -29.095 -54.472   3.683  1.00  0.00     0.205 C 
HETATM   24  N1  UNL     1     -28.790 -55.481   2.911  1.00  0.00    -0.372 N 
HETATM   25  N2  UNL     1     -28.338 -53.283   3.599  1.00  0.00    -0.062 NA
ATOM     26  H12 UNL     1     -28.006 -55.378   2.266  1.00  0.00     0.158 HD
ATOM     27  H11 UNL     1     -29.337 -56.340   2.972  1.00  0.00     0.158 HD
ATOM     28  H3  UNL     1     -30.001 -54.996   5.501  1.00  0.00     0.197 HD
ENDBRANCH  21  22
ENDBRANCH  20  21
ENDBRANCH  19  20
ENDBRANCH  16  19
ENDBRANCH   1  15
BRANCH   2  29
HETATM   29  C6  UNL     1     -33.880 -58.262   9.476  1.00  0.00     0.195 C 
HETATM   30  N6  UNL     1     -34.607 -59.064   8.785  1.00  0.00    -0.303 N 
ATOM     31  H6  UNL     1     -34.303 -59.367   7.859  1.00  0.00     0.187 HD
BRANCH  30  32
HETATM   32  N7  UNL     1     -35.817 -59.515   9.312  1.00  0.00    -0.344 N 
ATOM     33  H72 UNL     1     -35.815 -60.052  10.180  1.00  0.00     0.176 HD
ATOM     34  H71 UNL     1     -36.686 -59.303   8.822  1.00  0.00     0.176 HD
ENDBRANCH  30  32
ENDBRANCH   2  29
TORSDOF 7
ENDMDL
MODEL 3
REMARK VINA RESULT: -7.214732206      2.269      4.152
REMARK  7 active torsions:
REMARK  status: ('A' for Active; 'I' for Inactive)
REMARK       I    between atoms: C1_4  and  N3_6 
REMARK    1  A    between atoms: N3_6  and  O1_8 
REMARK    2  A    between atoms: O1_8  and  C2_9 
REMARK    3  A    between atoms: C2_9  and  C3_10 
REMARK    4  A    between atoms: C3_10  and  N4_11 
REMARK       I    between atoms: N4_11  and  C4_13 
REMARK    5  A    between atoms: C4_13  and  C5_15 
REMARK    6  A    between atoms: N5_16  and  C6_17 
REMARK    7  A    between atoms: N6_18  and  N7_20 
ROOT
HETATM    1  C5  UNL     1     -33.907 -55.724   7.526  1.00  0.00     0.223 C 
HETATM    2  N5  UNL     1     -34.408 -56.118   6.203  1.00  0.00    -0.360 N 
HETATM    3  C7  UNL     1     -33.478 -57.065   5.655  1.00  0.00     0.128 C 
HETATM    4  C8  UNL     1     -32.579 -57.514   6.796  1.00  0.00     0.072 C 
HETATM    5  C9  UNL     1     -33.386 -57.060   8.018  1.00  0.00     0.235 C 
HETATM    6  N8  UNL     1     -32.584 -56.959   9.185  1.00  0.00    -0.053 N 
ATOM      7  H81 UNL     1     -32.615 -56.019   9.581  1.00  0.00     0.278 HD
ATOM      8  H82 UNL     1     -31.590 -57.002   8.962  1.00  0.00     0.278 HD
HETATM    9  C10 UNL     1     -32.959 -57.977  10.180  1.00  0.00     0.253 C 
HETATM   10  C11 UNL     1     -32.962 -59.345   9.541  1.00  0.00     0.150 C 
HETATM   11  N9  UNL     1     -34.156 -59.331   8.671  1.00  0.00    -0.357 N 
ATOM     12  H9  UNL     1     -34.706 -60.166   8.470  1.00  0.00     0.162 HD
HETATM   13  C12 UNL     1     -34.469 -58.060   8.141  1.00  0.00     0.257 C 
HETATM   14  O3  UNL     1     -35.621 -57.795   7.792  1.00  0.00    -0.271 OA
ENDROOT
BRANCH   1  15
HETATM   15  C4  UNL     1     -32.767 -54.781   7.368  1.00  0.00     0.243 C 
HETATM   16  N4  UNL     1     -32.226 -54.344   6.147  1.00  0.00    -0.357 N 
ATOM     17  H4  UNL     1     -32.620 -54.683   5.268  1.00  0.00     0.162 HD
HETATM   18  O2  UNL     1     -32.211 -54.318   8.426  1.00  0.00    -0.271 OA
BRANCH  16  19
HETATM   19  C3  UNL     1     -31.122 -53.422   6.125  1.00  0.00     0.151 C 
BRANCH  19  20
HETATM   20  C2  UNL     1     -29.787 -54.137   6.180  1.00  0.00     0.220 C 
BRANCH  20  21
HETATM   21  O1  UNL     1     -29.110 -53.846   7.355  1.00  0.00    -0.276 OA
BRANCH  21  22
HETATM   22  N3  UNL     1     -28.424 -54.896   7.814  1.00  0.00    -0.239 N 
HETATM   23  C1  UNL     1     -28.897 -55.692   8.869  1.00  0.00     0.205 C 
HETATM   24  N1  UNL     1     -28.545 -55.382  10.089  1.00  0.00    -0.372 N 
HETATM   25  N2  UNL     1     -29.736 -56.809   8.655  1.00  0.00    -0.062 NA
ATOM     26  H12 UNL     1     -28.889 -55.961  10.855  1.00  0.00     0.158 HD
ATOM     27  H11 UNL     1     -27.939 -54.576  10.243  1.00  0.00     0.158 HD
ATOM     28  H3  UNL     1     -27.528 -55.126   7.384  1.00  0.00     0.197 HD
ENDBRANCH  21  22
ENDBRANCH  20  21
ENDBRANCH  19  20
ENDBRANCH  16  19
ENDBRANCH   1  15
BRANCH   2  29
HETATM   29  C6  UNL     1     -35.595 -55.637   5.588  1.00  0.00     0.195 C 
HETATM   30  N6  UNL     1     -36.636 -56.363   5.399  1.00  0.00    -0.303 N 
ATOM     31  H6  UNL     1     -36.643 -57.340   5.694  1.00  0.00     0.187 HD
BRANCH  30  32
HETATM   32  N7  UNL     1     -37.758 -55.804   4.787  1.00  0.00    -0.344 N 
ATOM     33  H72 UNL     1     -38.126 -56.229   3.935  1.00  0.00     0.176 HD
ATOM     34  H71 UNL     1     -38.192 -54.978   5.198  1.00  0.00     0.176 HD
ENDBRANCH  30  32
ENDBRANCH   2  29
TORSDOF 7
ENDMDL
MODEL 4
REMARK VINA RESULT: -7.200052368      2.475      4.880
REMARK  7 active torsions:
REMARK  status: ('A' for Active; 'I' for Inactive)
REMARK       I    between atoms: C1_4  and  N3_6 
REMARK    1  A    between atoms: N3_6  and  O1_8 
REMARK    2  A    between atoms: O1_8  and  C2_9 
REMARK    3  A    between atoms: C2_9  and  C3_10 
REMARK    4  A    between atoms: C3_10  and  N4_11 
REMARK       I    between atoms: N4_11  and  C4_13 
REMARK    5  A    between atoms: C4_13  and  C5_15 
REMARK    6  A    between atoms: N5_16  and  C6_17 
REMARK    7  A    between atoms: N6_18  and  N7_20 
ROOT
HETATM    1  C5  UNL     1     -33.257 -57.018   7.875  1.00  0.00     0.223 C 
HETATM    2  N5  UNL     1     -33.924 -56.333   8.990  1.00  0.00    -0.360 N 
HETATM    3  C7  UNL     1     -35.147 -55.777   8.483  1.00  0.00     0.128 C 
HETATM    4  C8  UNL     1     -35.397 -56.418   7.126  1.00  0.00     0.072 C 
HETATM    5  C9  UNL     1     -34.460 -57.630   7.184  1.00  0.00     0.235 C 
HETATM    6  N8  UNL     1     -34.169 -58.147   5.894  1.00  0.00    -0.053 N 
ATOM      7  H81 UNL     1     -33.166 -58.151   5.710  1.00  0.00     0.278 HD
ATOM      8  H82 UNL     1     -34.460 -57.503   5.158  1.00  0.00     0.278 HD
HETATM    9  C10 UNL     1     -34.758 -59.482   5.708  1.00  0.00     0.253 C 
HETATM   10  C11 UNL     1     -36.228 -59.449   6.051  1.00  0.00     0.150 C 
HETATM   11  N9  UNL     1     -36.250 -59.319   7.523  1.00  0.00    -0.357 N 
ATOM     12  H9  UNL     1     -36.990 -59.715   8.103  1.00  0.00     0.162 HD
HETATM   13  C12 UNL     1     -35.159 -58.600   8.055  1.00  0.00     0.257 C 
HETATM   14  O3  UNL     1     -34.799 -58.782   9.220  1.00  0.00    -0.271 OA
ENDROOT
BRANCH   1  15
HETATM   15  C4  UNL     1     -32.633 -56.013   6.973  1.00  0.00     0.243 C 
HETATM   16  N4  UNL     1     -32.037 -54.805   7.377  1.00  0.00    -0.357 N 
ATOM     17  H4  UNL     1     -32.015 -54.558   8.367  1.00  0.00     0.162 HD
HETATM   18  O2  UNL     1     -32.630 -56.246   5.713  1.00  0.00    -0.271 OA
BRANCH  16  19
HETATM   19  C3  UNL     1     -31.459 -53.915   6.406  1.00  0.00     0.151 C 
BRANCH  19  20
HETATM   20  C2  UNL     1     -29.984 -54.192   6.193  1.00  0.00     0.220 C 
BRANCH  20  21
HETATM   21  O1  UNL     1     -29.250 -53.906   7.333  1.00  0.00    -0.276 OA
BRANCH  21  22
HETATM   22  N3  UNL     1     -28.558 -54.963   7.765  1.00  0.00    -0.239 N 
HETATM   23  C1  UNL     1     -28.984 -55.738   8.856  1.00  0.00     0.205 C 
HETATM   24  N1  UNL     1     -28.556 -55.420  10.049  1.00  0.00    -0.372 N 
HETATM   25  N2  UNL     1     -29.854 -56.841   8.705  1.00  0.00    -0.062 NA
ATOM     26  H12 UNL     1     -28.865 -55.983  10.842  1.00  0.00     0.158 HD
ATOM     27  H11 UNL     1     -27.927 -54.624  10.158  1.00  0.00     0.158 HD
ATOM     28  H3  UNL     1     -27.693 -55.216   7.288  1.00  0.00     0.197 HD
ENDBRANCH  21  22
ENDBRANCH  20  21
ENDBRANCH  19  20
ENDBRANCH  16  19
ENDBRANCH   1  15
BRANCH   2  29
HETATM   29  C6  UNL     1     -33.435 -56.243  10.320  1.00  0.00     0.195 C 
HETATM   30  N6  UNL     1     -32.432 -56.917  10.751  1.00  0.00    -0.303 N 
ATOM     31  H6  UNL     1     -31.939 -57.560  10.131  1.00  0.00     0.187 HD
BRANCH  30  32
HETATM   32  N7  UNL     1     -32.022 -56.763  12.075  1.00  0.00    -0.344 N 
ATOM     33  H72 UNL     1     -31.202 -56.191  12.281  1.00  0.00     0.176 HD
ATOM     34  H71 UNL     1     -32.547 -57.223  12.818  1.00  0.00     0.176 HD
ENDBRANCH  30  32
ENDBRANCH   2  29
TORSDOF 7
ENDMDL
MODEL 5
REMARK VINA RESULT: -7.158356857      2.287      5.037
REMARK  7 active torsions:
REMARK  status: ('A' for Active; 'I' for Inactive)
REMARK       I    between atoms: C1_4  and  N3_6 
REMARK    1  A    between atoms: N3_6  and  O1_8 
REMARK    2  A    between atoms: O1_8  and  C2_9 
REMARK    3  A    between atoms: C2_9  and  C3_10 
REMARK    4  A    between atoms: C3_10  and  N4_11 
REMARK       I    between atoms: N4_11  and  C4_13 
REMARK    5  A    between atoms: C4_13  and  C5_15 
REMARK    6  A    between atoms: N5_16  and  C6_17 
REMARK    7  A    between atoms: N6_18  and  N7_20 
ROOT
HETATM    1  C5  UNL     1     -33.441 -58.329   8.077  1.00  0.00     0.223 C 
HETATM    2  N5  UNL     1     -34.524 -58.146   9.052  1.00  0.00    -0.360 N 
HETATM    3  C7  UNL     1     -34.252 -56.935   9.774  1.00  0.00     0.128 C 
HETATM    4  C8  UNL     1     -33.175 -56.190   9.001  1.00  0.00     0.072 C 
HETATM    5  C9  UNL     1     -33.235 -56.891   7.639  1.00  0.00     0.235 C 
HETATM    6  N8  UNL     1     -32.052 -56.695   6.880  1.00  0.00    -0.053 N 
ATOM      7  H81 UNL     1     -31.615 -57.583   6.631  1.00  0.00     0.278 HD
ATOM      8  H82 UNL     1     -31.301 -56.306   7.450  1.00  0.00     0.278 HD
HETATM    9  C10 UNL     1     -32.312 -55.869   5.690  1.00  0.00     0.253 C 
HETATM   10  C11 UNL     1     -33.015 -54.595   6.091  1.00  0.00     0.150 C 
HETATM   11  N9  UNL     1     -34.380 -55.035   6.448  1.00  0.00    -0.357 N 
ATOM     12  H9  UNL     1     -35.204 -54.450   6.314  1.00  0.00     0.162 HD
HETATM   13  C12 UNL     1     -34.443 -56.338   6.988  1.00  0.00     0.257 C 
HETATM   14  O3  UNL     1     -35.483 -56.995   6.915  1.00  0.00    -0.271 OA
ENDROOT
BRANCH   1  15
HETATM   15  C4  UNL     1     -32.217 -58.808   8.773  1.00  0.00     0.243 C 
HETATM   16  N4  UNL     1     -32.124 -59.139  10.136  1.00  0.00    -0.357 N 
ATOM     17  H4  UNL     1     -32.945 -59.051  10.735  1.00  0.00     0.162 HD
HETATM   18  O2  UNL     1     -31.139 -58.935   8.090  1.00  0.00    -0.271 OA
BRANCH  16  19
HETATM   19  C3  UNL     1     -30.880 -59.600  10.693  1.00  0.00     0.151 C 
BRANCH  19  20
HETATM   20  C2  UNL     1     -30.278 -58.587  11.648  1.00  0.00     0.220 C 
BRANCH  20  21
HETATM   21  O1  UNL     1     -30.558 -57.291  11.245  1.00  0.00    -0.276 OA
BRANCH  21  22
HETATM   22  N3  UNL     1     -29.468 -56.654  10.807  1.00  0.00    -0.239 N 
HETATM   23  C1  UNL     1     -29.200 -56.492   9.438  1.00  0.00     0.205 C 
HETATM   24  N1  UNL     1     -28.476 -57.399   8.835  1.00  0.00    -0.372 N 
HETATM   25  N2  UNL     1     -29.683 -55.390   8.698  1.00  0.00    -0.062 NA
ATOM     26  H12 UNL     1     -28.281 -57.281   7.841  1.00  0.00     0.158 HD
ATOM     27  H11 UNL     1     -28.127 -58.195   9.369  1.00  0.00     0.158 HD
ATOM     28  H3  UNL     1     -28.811 -56.274  11.487  1.00  0.00     0.197 HD
ENDBRANCH  21  22
ENDBRANCH  20  21
ENDBRANCH  19  20
ENDBRANCH  16  19
ENDBRANCH   1  15
BRANCH   2  29
HETATM   29  C6  UNL     1     -35.628 -59.018   9.239  1.00  0.00     0.195 C 
HETATM   30  N6  UNL     1     -36.301 -59.524   8.269  1.00  0.00    -0.303 N 
ATOM     31  H6  UNL     1     -36.054 -59.307   7.303  1.00  0.00     0.187 HD
BRANCH  30  32
HETATM   32  N7  UNL     1     -37.371 -60.373   8.550  1.00  0.00    -0.344 N 
ATOM     33  H72 UNL     1     -37.222 -61.183   9.152  1.00  0.00     0.176 HD
ATOM     34  H71 UNL     1     -38.287 -60.171   8.148  1.00  0.00     0.176 HD
ENDBRANCH  30  32
ENDBRANCH   2  29
TORSDOF 7
ENDMDL
