MODEL 1
REMARK VINA RESULT: -6.539979026      0.000      0.000
REMARK  8 active torsions:
REMARK  status: ('A' for Active; 'I' for Inactive)
REMARK    1  A    between atoms: C3_3  and  O1_4 
REMARK    2  A    between atoms: O1_4  and  C4_5 
REMARK    3  A    between atoms: C4_5  and  N1_6 
REMARK    4  A    between atoms: C7_9  and  C8_10 
REMARK    5  A    between atoms: C8_10  and  N2_11 
REMARK    6  A    between atoms: C8_10  and  N3_15 
REMARK    7  A    between atoms: C8_10  and  C9_19 
REMARK    8  A    between atoms: C9_19  and  C10_20 
ROOT
HETATM    1  C1  UNL     1     -34.777 -59.431   8.358  1.00  0.00     0.014 C 
HETATM    2  C2  UNL     1     -35.129 -58.591   7.592  1.00  0.00    -0.091 C 
HETATM    3  C3  UNL     1     -35.537 -57.539   6.639  1.00  0.00     0.262 C 
ENDROOT
BRANCH   3   4
HETATM    4  O1  UNL     1     -35.620 -56.306   7.279  1.00  0.00    -0.360 OA
BRANCH   4   5
HETATM    5  C4  UNL     1     -34.828 -55.368   6.600  1.00  0.00     0.298 C 
BRANCH   5   6
HETATM    6  N1  UNL     1     -33.447 -55.527   7.052  1.00  0.00    -0.345 N 
HETATM    7  C5  UNL     1     -33.062 -55.634   8.315  1.00  0.00     0.093 A 
HETATM    8  C6  UNL     1     -31.728 -55.833   8.663  1.00  0.00     0.028 A 
HETATM    9  C7  UNL     1     -30.732 -55.929   7.721  1.00  0.00     0.008 A 
HETATM   10  C16 UNL     1     -31.171 -55.809   6.389  1.00  0.00     0.028 A 
HETATM   11  C17 UNL     1     -32.503 -55.614   6.105  1.00  0.00     0.093 A 
BRANCH   9  12
HETATM   12  C8  UNL     1     -29.337 -56.172   8.055  1.00  0.00     0.313 C 
BRANCH  12  13
HETATM   13  N2  UNL     1     -28.447 -55.474   7.094  1.00  0.00    -0.040 N 
ATOM     14  H23 UNL     1     -27.472 -55.754   7.207  1.00  0.00     0.277 HD
ATOM     15  H22 UNL     1     -28.589 -55.800   6.139  1.00  0.00     0.277 HD
ATOM     16  H21 UNL     1     -28.563 -54.463   7.172  1.00  0.00     0.277 HD
ENDBRANCH  12  13
BRANCH  12  17
HETATM   17  N3  UNL     1     -29.043 -55.417   9.297  1.00  0.00    -0.040 N 
ATOM     18  H33 UNL     1     -29.658 -54.615   9.431  1.00  0.00     0.277 HD
ATOM     19  H32 UNL     1     -29.303 -55.924  10.143  1.00  0.00     0.277 HD
ATOM     20  H31 UNL     1     -28.056 -55.164   9.271  1.00  0.00     0.277 HD
ENDBRANCH  12  17
BRANCH  12  21
HETATM   21  C9  UNL     1     -28.864 -57.547   8.301  1.00  0.00     0.113 C 
BRANCH  21  22
HETATM   22  C10 UNL     1     -29.654 -58.485   9.041  1.00  0.00    -0.054 A 
HETATM   23  C11 UNL     1     -29.556 -58.517  10.422  1.00  0.00     0.007 A 
HETATM   24  C12 UNL     1     -30.315 -59.370  11.200  1.00  0.00     0.001 A 
HETATM   25  C13 UNL     1     -31.211 -60.231  10.603  1.00  0.00     0.000 A 
HETATM   26  C14 UNL     1     -31.323 -60.215   9.235  1.00  0.00     0.001 A 
HETATM   27  C15 UNL     1     -30.549 -59.348   8.467  1.00  0.00     0.007 A 
ENDBRANCH  21  22
ENDBRANCH  12  21
ENDBRANCH   9  12
ENDBRANCH   5   6
ENDBRANCH   4   5
ENDBRANCH   3   4
TORSDOF 8
ENDMDL
MODEL 2
REMARK VINA RESULT: -6.336249391      3.633      5.418
REMARK  8 active torsions:
REMARK  status: ('A' for Active; 'I' for Inactive)
REMARK    1  A    between atoms: C3_3  and  O1_4 
REMARK    2  A    between atoms: O1_4  and  C4_5 
REMARK    3  A    between atoms: C4_5  and  N1_6 
REMARK    4  A    between atoms: C7_9  and  C8_10 
REMARK    5  A    between atoms: C8_10  and  N2_11 
REMARK    6  A    between atoms: C8_10  and  N3_15 
REMARK    7  A    between atoms: C8_10  and  C9_19 
REMARK    8  A    between atoms: C9_19  and  C10_20 
ROOT
HETATM    1  C1  UNL     1     -26.506 -51.824   2.338  1.00  0.00     0.014 C 
HETATM    2  C2  UNL     1     -27.662 -51.902   2.064  1.00  0.00    -0.091 C 
HETATM    3  C3  UNL     1     -29.102 -51.971   1.740  1.00  0.00     0.262 C 
ENDROOT
BRANCH   3   4
HETATM    4  O1  UNL     1     -29.830 -52.412   2.841  1.00  0.00    -0.360 OA
BRANCH   4   5
HETATM    5  C4  UNL     1     -30.177 -53.759   2.667  1.00  0.00     0.298 C 
BRANCH   5   6
HETATM    6  N1  UNL     1     -30.568 -54.299   3.968  1.00  0.00    -0.345 N 
HETATM    7  C5  UNL     1     -31.678 -54.981   4.212  1.00  0.00     0.093 A 
HETATM    8  C6  UNL     1     -31.955 -55.507   5.472  1.00  0.00     0.028 A 
HETATM    9  C7  UNL     1     -31.100 -55.351   6.536  1.00  0.00     0.008 A 
HETATM   10  C16 UNL     1     -29.932 -54.620   6.247  1.00  0.00     0.028 A 
HETATM   11  C17 UNL     1     -29.710 -54.126   4.982  1.00  0.00     0.093 A 
BRANCH   9  12
HETATM   12  C8  UNL     1     -31.348 -55.920   7.852  1.00  0.00     0.313 C 
BRANCH  12  13
HETATM   13  N2  UNL     1     -30.163 -55.736   8.726  1.00  0.00    -0.040 N 
ATOM     14  H23 UNL     1     -30.279 -54.946   9.361  1.00  0.00     0.277 HD
ATOM     15  H22 UNL     1     -30.084 -56.478   9.421  1.00  0.00     0.277 HD
ATOM     16  H21 UNL     1     -29.317 -55.650   8.163  1.00  0.00     0.277 HD
ENDBRANCH  12  13
BRANCH  12  17
HETATM   17  N3  UNL     1     -32.329 -55.041   8.533  1.00  0.00    -0.040 N 
ATOM     18  H33 UNL     1     -31.892 -54.263   9.027  1.00  0.00     0.277 HD
ATOM     19  H32 UNL     1     -32.888 -54.487   7.884  1.00  0.00     0.277 HD
ATOM     20  H31 UNL     1     -32.894 -55.633   9.142  1.00  0.00     0.277 HD
ENDBRANCH  12  17
BRANCH  12  21
HETATM   21  C9  UNL     1     -31.882 -57.289   7.977  1.00  0.00     0.113 C 
BRANCH  21  22
HETATM   22  C10 UNL     1     -31.268 -58.250   8.843  1.00  0.00    -0.054 A 
HETATM   23  C11 UNL     1     -30.203 -59.003   8.379  1.00  0.00     0.007 A 
HETATM   24  C12 UNL     1     -29.541 -59.921   9.172  1.00  0.00     0.001 A 
HETATM   25  C13 UNL     1     -29.938 -60.113  10.479  1.00  0.00     0.000 A 
HETATM   26  C14 UNL     1     -30.993 -59.378  10.958  1.00  0.00     0.001 A 
HETATM   27  C15 UNL     1     -31.648 -58.456  10.144  1.00  0.00     0.007 A 
ENDBRANCH  21  22
ENDBRANCH  12  21
ENDBRANCH   9  12
ENDBRANCH   5   6
ENDBRANCH   4   5
ENDBRANCH   3   4
TORSDOF 8
ENDMDL
MODEL 3
REMARK VINA RESULT: -6.271051342      3.591      5.603
REMARK  8 active torsions:
REMARK  status: ('A' for Active; 'I' for Inactive)
REMARK    1  A    between atoms: C3_3  and  O1_4 
REMARK    2  A    between atoms: O1_4  and  C4_5 
REMARK    3  A    between atoms: C4_5  and  N1_6 
REMARK    4  A    between atoms: C7_9  and  C8_10 
REMARK    5  A    between atoms: C8_10  and  N2_11 
REMARK    6  A    between atoms: C8_10  and  N3_15 
REMARK    7  A    between atoms: C8_10  and  C9_19 
REMARK    8  A    between atoms: C9_19  and  C10_20 
ROOT
HETATM    1  C1  UNL     1     -26.275 -51.979   2.310  1.00  0.00     0.014 C 
HETATM    2  C2  UNL     1     -27.457 -52.012   2.167  1.00  0.00    -0.091 C 
HETATM    3  C3  UNL     1     -28.925 -52.028   2.008  1.00  0.00     0.262 C 
ENDROOT
BRANCH   3   4
HETATM    4  O1  UNL     1     -29.535 -52.533   3.153  1.00  0.00    -0.360 OA
BRANCH   4   5
HETATM    5  C4  UNL     1     -29.569 -53.933   3.091  1.00  0.00     0.298 C 
BRANCH   5   6
HETATM    6  N1  UNL     1     -30.409 -54.416   4.186  1.00  0.00    -0.345 N 
HETATM    7  C5  UNL     1     -31.663 -54.827   4.065  1.00  0.00     0.093 A 
HETATM    8  C6  UNL     1     -32.383 -55.321   5.151  1.00  0.00     0.028 A 
HETATM    9  C7  UNL     1     -31.839 -55.412   6.410  1.00  0.00     0.008 A 
HETATM   10  C16 UNL     1     -30.508 -54.966   6.507  1.00  0.00     0.028 A 
HETATM   11  C17 UNL     1     -29.846 -54.488   5.400  1.00  0.00     0.093 A 
BRANCH   9  12
HETATM   12  C8  UNL     1     -32.557 -55.957   7.553  1.00  0.00     0.313 C 
BRANCH  12  13
HETATM   13  N2  UNL     1     -31.968 -55.454   8.819  1.00  0.00    -0.040 N 
ATOM     14  H23 UNL     1     -31.835 -56.202   9.499  1.00  0.00     0.277 HD
ATOM     15  H22 UNL     1     -30.993 -55.180   8.702  1.00  0.00     0.277 HD
ATOM     16  H21 UNL     1     -32.534 -54.694   9.196  1.00  0.00     0.277 HD
ENDBRANCH  12  13
BRANCH  12  17
HETATM   17  N3  UNL     1     -33.886 -55.302   7.591  1.00  0.00    -0.040 N 
ATOM     18  H33 UNL     1     -34.164 -54.909   6.692  1.00  0.00     0.277 HD
ATOM     19  H32 UNL     1     -34.655 -55.965   7.688  1.00  0.00     0.277 HD
ATOM     20  H31 UNL     1     -33.861 -54.609   8.339  1.00  0.00     0.277 HD
ENDBRANCH  12  17
BRANCH  12  21
HETATM   21  C9  UNL     1     -32.820 -57.405   7.638  1.00  0.00     0.113 C 
BRANCH  21  22
HETATM   22  C10 UNL     1     -31.930 -58.284   8.336  1.00  0.00    -0.054 A 
HETATM   23  C11 UNL     1     -32.373 -58.940   9.471  1.00  0.00     0.007 A 
HETATM   24  C12 UNL     1     -31.580 -59.829  10.172  1.00  0.00     0.001 A 
HETATM   25  C13 UNL     1     -30.295 -60.089   9.744  1.00  0.00     0.000 A 
HETATM   26  C14 UNL     1     -29.836 -59.448   8.620  1.00  0.00     0.001 A 
HETATM   27  C15 UNL     1     -30.650 -58.555   7.927  1.00  0.00     0.007 A 
ENDBRANCH  21  22
ENDBRANCH  12  21
ENDBRANCH   9  12
ENDBRANCH   5   6
ENDBRANCH   4   5
ENDBRANCH   3   4
TORSDOF 8
ENDMDL
MODEL 4
REMARK VINA RESULT: -6.270656771      3.596      5.553
REMARK  8 active torsions:
REMARK  status: ('A' for Active; 'I' for Inactive)
REMARK    1  A    between atoms: C3_3  and  O1_4 
REMARK    2  A    between atoms: O1_4  and  C4_5 
REMARK    3  A    between atoms: C4_5  and  N1_6 
REMARK    4  A    between atoms: C7_9  and  C8_10 
REMARK    5  A    between atoms: C8_10  and  N2_11 
REMARK    6  A    between atoms: C8_10  and  N3_15 
REMARK    7  A    between atoms: C8_10  and  C9_19 
REMARK    8  A    between atoms: C9_19  and  C10_20 
ROOT
HETATM    1  C1  UNL     1     -26.318 -51.972   2.304  1.00  0.00     0.014 C 
HETATM    2  C2  UNL     1     -27.500 -51.989   2.159  1.00  0.00    -0.091 C 
HETATM    3  C3  UNL     1     -28.968 -51.986   1.998  1.00  0.00     0.262 C 
ENDROOT
BRANCH   3   4
HETATM    4  O1  UNL     1     -29.584 -52.534   3.119  1.00  0.00    -0.360 OA
BRANCH   4   5
HETATM    5  C4  UNL     1     -29.849 -53.892   2.895  1.00  0.00     0.298 C 
BRANCH   5   6
HETATM    6  N1  UNL     1     -30.440 -54.447   4.111  1.00  0.00    -0.345 N 
HETATM    7  C5  UNL     1     -29.856 -54.479   5.301  1.00  0.00     0.093 A 
HETATM    8  C6  UNL     1     -30.507 -54.981   6.426  1.00  0.00     0.028 A 
HETATM    9  C7  UNL     1     -31.789 -55.472   6.372  1.00  0.00     0.008 A 
HETATM   10  C16 UNL     1     -32.382 -55.428   5.096  1.00  0.00     0.028 A 
HETATM   11  C17 UNL     1     -31.690 -54.920   4.020  1.00  0.00     0.093 A 
BRANCH   9  12
HETATM   12  C8  UNL     1     -32.504 -55.969   7.538  1.00  0.00     0.313 C 
BRANCH  12  13
HETATM   13  N2  UNL     1     -31.893 -55.440   8.783  1.00  0.00    -0.040 N 
ATOM     14  H23 UNL     1     -30.948 -55.092   8.623  1.00  0.00     0.277 HD
ATOM     15  H22 UNL     1     -32.328 -54.567   9.079  1.00  0.00     0.277 HD
ATOM     16  H21 UNL     1     -31.918 -56.146   9.518  1.00  0.00     0.277 HD
ENDBRANCH  12  13
BRANCH  12  17
HETATM   17  N3  UNL     1     -33.821 -55.288   7.570  1.00  0.00    -0.040 N 
ATOM     18  H33 UNL     1     -34.587 -55.884   7.257  1.00  0.00     0.277 HD
ATOM     19  H32 UNL     1     -34.162 -55.123   8.517  1.00  0.00     0.277 HD
ATOM     20  H31 UNL     1     -33.733 -54.432   7.023  1.00  0.00     0.277 HD
ENDBRANCH  12  17
BRANCH  12  21
HETATM   21  C9  UNL     1     -32.794 -57.409   7.669  1.00  0.00     0.113 C 
BRANCH  21  22
HETATM   22  C10 UNL     1     -31.903 -58.287   8.366  1.00  0.00    -0.054 A 
HETATM   23  C11 UNL     1     -32.342 -58.939   9.505  1.00  0.00     0.007 A 
HETATM   24  C12 UNL     1     -31.547 -59.827  10.205  1.00  0.00     0.001 A 
HETATM   25  C13 UNL     1     -30.265 -60.091   9.772  1.00  0.00     0.000 A 
HETATM   26  C14 UNL     1     -29.811 -59.455   8.644  1.00  0.00     0.001 A 
HETATM   27  C15 UNL     1     -30.626 -58.562   7.952  1.00  0.00     0.007 A 
ENDBRANCH  21  22
ENDBRANCH  12  21
ENDBRANCH   9  12
ENDBRANCH   5   6
ENDBRANCH   4   5
ENDBRANCH   3   4
TORSDOF 8
ENDMDL
MODEL 5
REMARK VINA RESULT: -6.243771932      2.763      4.025
REMARK  8 active torsions:
REMARK  status: ('A' for Active; 'I' for Inactive)
REMARK    1  A    between atoms: C3_3  and  O1_4 
REMARK    2  A    between atoms: O1_4  and  C4_5 
REMARK    3  A    between atoms: C4_5  and  N1_6 
REMARK    4  A    between atoms: C7_9  and  C8_10 
REMARK    5  A    between atoms: C8_10  and  N2_11 
REMARK    6  A    between atoms: C8_10  and  N3_15 
REMARK    7  A    between atoms: C8_10  and  C9_19 
REMARK    8  A    between atoms: C9_19  and  C10_20 
ROOT
HETATM    1  C1  UNL     1     -39.648 -52.923   3.038  1.00  0.00     0.014 C 
HETATM    2  C2  UNL     1     -39.073 -53.945   3.242  1.00  0.00    -0.091 C 
HETATM    3  C3  UNL     1     -38.377 -55.219   3.520  1.00  0.00     0.262 C 
ENDROOT
BRANCH   3   4
HETATM    4  O1  UNL     1     -37.477 -55.064   4.570  1.00  0.00    -0.360 OA
BRANCH   4   5
HETATM    5  C4  UNL     1     -36.174 -55.312   4.115  1.00  0.00     0.298 C 
BRANCH   5   6
HETATM    6  N1  UNL     1     -35.313 -55.501   5.281  1.00  0.00    -0.345 N 
HETATM    7  C5  UNL     1     -34.078 -55.038   5.404  1.00  0.00     0.093 A 
HETATM    8  C6  UNL     1     -33.338 -55.218   6.571  1.00  0.00     0.028 A 
HETATM    9  C7  UNL     1     -33.840 -55.887   7.661  1.00  0.00     0.008 A 
HETATM   10  C16 UNL     1     -35.153 -56.369   7.499  1.00  0.00     0.028 A 
HETATM   11  C17 UNL     1     -35.836 -56.160   6.324  1.00  0.00     0.093 A 
BRANCH   9  12
HETATM   12  C8  UNL     1     -33.102 -56.059   8.903  1.00  0.00     0.313 C 
BRANCH  12  13
HETATM   13  N2  UNL     1     -31.681 -55.673   8.717  1.00  0.00    -0.040 N 
ATOM     14  H23 UNL     1     -31.589 -54.718   8.369  1.00  0.00     0.277 HD
ATOM     15  H22 UNL     1     -31.199 -55.557   9.608  1.00  0.00     0.277 HD
ATOM     16  H21 UNL     1     -31.207 -56.345   8.113  1.00  0.00     0.277 HD
ENDBRANCH  12  13
BRANCH  12  17
HETATM   17  N3  UNL     1     -33.553 -54.997   9.834  1.00  0.00    -0.040 N 
ATOM     18  H33 UNL     1     -33.667 -54.090   9.381  1.00  0.00     0.277 HD
ATOM     19  H32 UNL     1     -34.521 -55.115  10.136  1.00  0.00     0.277 HD
ATOM     20  H31 UNL     1     -32.893 -54.974  10.611  1.00  0.00     0.277 HD
ENDBRANCH  12  17
BRANCH  12  21
HETATM   21  C9  UNL     1     -33.206 -57.323   9.656  1.00  0.00     0.113 C 
BRANCH  21  22
HETATM   22  C10 UNL     1     -32.090 -58.212   9.773  1.00  0.00    -0.054 A 
HETATM   23  C11 UNL     1     -31.382 -58.264  10.962  1.00  0.00     0.007 A 
HETATM   24  C12 UNL     1     -30.319 -59.125  11.156  1.00  0.00     0.001 A 
HETATM   25  C13 UNL     1     -29.929 -59.975  10.143  1.00  0.00     0.000 A 
HETATM   26  C14 UNL     1     -30.617 -59.940   8.957  1.00  0.00     0.001 A 
HETATM   27  C15 UNL     1     -31.687 -59.065   8.779  1.00  0.00     0.007 A 
ENDBRANCH  21  22
ENDBRANCH  12  21
ENDBRANCH   9  12
ENDBRANCH   5   6
ENDBRANCH   4   5
ENDBRANCH   3   4
TORSDOF 8
ENDMDL
