MODEL 1
REMARK VINA RESULT: -6.649942777      0.000      0.000
REMARK  7 active torsions:
REMARK  status: ('A' for Active; 'I' for Inactive)
REMARK    1  A    between atoms: C5_6  and  C6_7 
REMARK    2  A    between atoms: C6_7  and  C7_8 
REMARK    3  A    between atoms: C7_8  and  C8_9 
REMARK    4  A    between atoms: C8_9  and  C9_10 
REMARK    5  A    between atoms: C9_10  and  C10_11 
REMARK    6  A    between atoms: C10_11  and  N2_12 
REMARK    7  A    between atoms: C13_16  and  N4_17 
ROOT
HETATM    1  N2  UNL     1     -33.445 -55.591   7.095  1.00  0.00    -0.287 N 
HETATM    2  C11 UNL     1     -32.782 -55.849   5.960  1.00  0.00     0.126 A 
HETATM    3  N3  UNL     1     -33.486 -56.232   4.804  1.00  0.00    -0.082 NA
HETATM    4  C12 UNL     1     -31.392 -55.732   5.943  1.00  0.00     0.093 A 
HETATM    5  C13 UNL     1     -30.724 -55.356   7.088  1.00  0.00     0.105 A 
HETATM    6  N5  UNL     1     -31.450 -55.112   8.192  1.00  0.00    -0.295 N 
ATOM      7  H5  UNL     1     -30.966 -54.833   9.046  1.00  0.00     0.172 HD
HETATM    8  C14 UNL     1     -32.803 -55.223   8.216  1.00  0.00     0.329 A 
HETATM    9  O1  UNL     1     -33.470 -54.990   9.263  1.00  0.00    -0.246 OA
ENDROOT
BRANCH   1  10
HETATM   10  C10 UNL     1     -34.929 -55.727   7.072  1.00  0.00     0.135 C 
BRANCH  10  11
HETATM   11  C9  UNL     1     -35.288 -57.177   7.116  1.00  0.00     0.020 C 
BRANCH  11  12
HETATM   12  C8  UNL     1     -35.177 -57.917   8.370  1.00  0.00     0.002 C 
BRANCH  12  13
HETATM   13  C7  UNL     1     -34.088 -58.845   8.668  1.00  0.00     0.005 C 
BRANCH  13  14
HETATM   14  C6  UNL     1     -32.920 -58.972   7.771  1.00  0.00     0.040 C 
BRANCH  14  15
HETATM   15  C5  UNL     1     -31.710 -59.054   8.703  1.00  0.00    -0.043 A 
HETATM   16  C4  UNL     1     -31.881 -59.485   9.996  1.00  0.00     0.010 A 
HETATM   17  C3  UNL     1     -30.759 -59.547  10.818  1.00  0.00     0.018 A 
HETATM   18  C2  UNL     1     -29.515 -59.184  10.341  1.00  0.00     0.090 A 
HETATM   19  N1  UNL     1     -29.375 -58.766   9.074  1.00  0.00    -0.370 N 
HETATM   20  C1  UNL     1     -28.050 -58.382   8.574  1.00  0.00     0.154 C 
HETATM   21  C15 UNL     1     -30.459 -58.707   8.282  1.00  0.00     0.097 A 
ENDBRANCH  14  15
ENDBRANCH  13  14
ENDBRANCH  12  13
ENDBRANCH  11  12
ENDBRANCH  10  11
ENDBRANCH   1  10
BRANCH   5  22
HETATM   22  N4  UNL     1     -29.420 -55.237   7.109  1.00  0.00    -0.385 N 
ATOM     23  H42 UNL     1     -28.857 -55.554   6.319  1.00  0.00     0.157 HD
ATOM     24  H41 UNL     1     -28.936 -54.827   7.909  1.00  0.00     0.157 HD
ENDBRANCH   5  22
TORSDOF 7
ENDMDL
MODEL 2
REMARK VINA RESULT: -6.536325941      1.115      1.496
REMARK  7 active torsions:
REMARK  status: ('A' for Active; 'I' for Inactive)
REMARK    1  A    between atoms: C5_6  and  C6_7 
REMARK    2  A    between atoms: C6_7  and  C7_8 
REMARK    3  A    between atoms: C7_8  and  C8_9 
REMARK    4  A    between atoms: C8_9  and  C9_10 
REMARK    5  A    between atoms: C9_10  and  C10_11 
REMARK    6  A    between atoms: C10_11  and  N2_12 
REMARK    7  A    between atoms: C13_16  and  N4_17 
ROOT
HETATM    1  N2  UNL     1     -33.427 -55.545   6.991  1.00  0.00    -0.287 N 
HETATM    2  C11 UNL     1     -32.709 -55.816   5.893  1.00  0.00     0.126 A 
HETATM    3  N3  UNL     1     -33.356 -56.170   4.697  1.00  0.00    -0.082 NA
HETATM    4  C12 UNL     1     -31.317 -55.742   5.957  1.00  0.00     0.093 A 
HETATM    5  C13 UNL     1     -30.705 -55.393   7.141  1.00  0.00     0.105 A 
HETATM    6  N5  UNL     1     -31.485 -55.134   8.205  1.00  0.00    -0.295 N 
ATOM      7  H5  UNL     1     -31.043 -54.875   9.086  1.00  0.00     0.172 HD
HETATM    8  C14 UNL     1     -32.841 -55.204   8.150  1.00  0.00     0.329 A 
HETATM    9  O1  UNL     1     -33.559 -54.957   9.158  1.00  0.00    -0.246 OA
ENDROOT
BRANCH   1  10
HETATM   10  C10 UNL     1     -34.911 -55.636   6.882  1.00  0.00     0.135 C 
BRANCH  10  11
HETATM   11  C9  UNL     1     -35.316 -57.074   6.907  1.00  0.00     0.020 C 
BRANCH  11  12
HETATM   12  C8  UNL     1     -35.393 -57.788   8.179  1.00  0.00     0.002 C 
BRANCH  12  13
HETATM   13  C7  UNL     1     -34.479 -58.863   8.559  1.00  0.00     0.005 C 
BRANCH  13  14
HETATM   14  C6  UNL     1     -33.148 -58.998   7.930  1.00  0.00     0.040 C 
BRANCH  14  15
HETATM   15  C5  UNL     1     -32.161 -59.060   9.097  1.00  0.00    -0.043 A 
HETATM   16  C4  UNL     1     -31.193 -60.035   9.113  1.00  0.00     0.010 A 
HETATM   17  C3  UNL     1     -30.311 -60.063  10.190  1.00  0.00     0.018 A 
HETATM   18  C2  UNL     1     -30.414 -59.136  11.209  1.00  0.00     0.090 A 
HETATM   19  N1  UNL     1     -31.368 -58.194  11.170  1.00  0.00    -0.370 N 
HETATM   20  C1  UNL     1     -31.471 -57.213  12.256  1.00  0.00     0.154 C 
HETATM   21  C15 UNL     1     -32.219 -58.169  10.129  1.00  0.00     0.097 A 
ENDBRANCH  14  15
ENDBRANCH  13  14
ENDBRANCH  12  13
ENDBRANCH  11  12
ENDBRANCH  10  11
ENDBRANCH   1  10
BRANCH   5  22
HETATM   22  N4  UNL     1     -29.401 -55.313   7.238  1.00  0.00    -0.385 N 
ATOM     23  H42 UNL     1     -28.948 -54.416   7.416  1.00  0.00     0.157 HD
ATOM     24  H41 UNL     1     -28.809 -56.139   7.141  1.00  0.00     0.157 HD
ENDBRANCH   5  22
TORSDOF 7
ENDMDL
MODEL 3
REMARK VINA RESULT: -6.477803104      1.080      1.492
REMARK  7 active torsions:
REMARK  status: ('A' for Active; 'I' for Inactive)
REMARK    1  A    between atoms: C5_6  and  C6_7 
REMARK    2  A    between atoms: C6_7  and  C7_8 
REMARK    3  A    between atoms: C7_8  and  C8_9 
REMARK    4  A    between atoms: C8_9  and  C9_10 
REMARK    5  A    between atoms: C9_10  and  C10_11 
REMARK    6  A    between atoms: C10_11  and  N2_12 
REMARK    7  A    between atoms: C13_16  and  N4_17 
ROOT
HETATM    1  N2  UNL     1     -33.431 -56.191   7.377  1.00  0.00    -0.287 N 
HETATM    2  C11 UNL     1     -32.760 -56.630   6.304  1.00  0.00     0.126 A 
HETATM    3  N3  UNL     1     -33.392 -57.474   5.374  1.00  0.00    -0.082 NA
HETATM    4  C12 UNL     1     -31.433 -56.238   6.125  1.00  0.00     0.093 A 
HETATM    5  C13 UNL     1     -30.834 -55.410   7.050  1.00  0.00     0.105 A 
HETATM    6  N5  UNL     1     -31.565 -55.006   8.104  1.00  0.00    -0.295 N 
ATOM      7  H5  UNL     1     -31.133 -54.393   8.795  1.00  0.00     0.172 HD
HETATM    8  C14 UNL     1     -32.857 -55.383   8.284  1.00  0.00     0.329 A 
HETATM    9  O1  UNL     1     -33.529 -54.994   9.280  1.00  0.00    -0.246 OA
ENDROOT
BRANCH   1  10
HETATM   10  C10 UNL     1     -34.846 -56.631   7.531  1.00  0.00     0.135 C 
BRANCH  10  11
HETATM   11  C9  UNL     1     -34.920 -57.671   8.602  1.00  0.00     0.020 C 
BRANCH  11  12
HETATM   12  C8  UNL     1     -34.450 -59.028   8.334  1.00  0.00     0.002 C 
BRANCH  12  13
HETATM   13  C7  UNL     1     -33.076 -59.468   8.567  1.00  0.00     0.005 C 
BRANCH  13  14
HETATM   14  C6  UNL     1     -32.436 -59.320   9.892  1.00  0.00     0.040 C 
BRANCH  14  15
HETATM   15  C5  UNL     1     -30.980 -58.962   9.592  1.00  0.00    -0.043 A 
HETATM   16  C4  UNL     1     -30.190 -59.857   8.912  1.00  0.00     0.010 A 
HETATM   17  C3  UNL     1     -28.869 -59.499   8.655  1.00  0.00     0.018 A 
HETATM   18  C2  UNL     1     -28.375 -58.280   9.077  1.00  0.00     0.090 A 
HETATM   19  N1  UNL     1     -29.167 -57.424   9.739  1.00  0.00    -0.370 N 
HETATM   20  C1  UNL     1     -28.635 -56.130  10.183  1.00  0.00     0.154 C 
HETATM   21  C15 UNL     1     -30.442 -57.771   9.985  1.00  0.00     0.097 A 
ENDBRANCH  14  15
ENDBRANCH  13  14
ENDBRANCH  12  13
ENDBRANCH  11  12
ENDBRANCH  10  11
ENDBRANCH   1  10
BRANCH   5  22
HETATM   22  N4  UNL     1     -29.590 -55.022   6.916  1.00  0.00    -0.385 N 
ATOM     23  H42 UNL     1     -28.904 -55.631   6.469  1.00  0.00     0.157 HD
ATOM     24  H41 UNL     1     -29.278 -54.110   7.251  1.00  0.00     0.157 HD
ENDBRANCH   5  22
TORSDOF 7
ENDMDL
MODEL 4
REMARK VINA RESULT: -6.475873995      2.215      2.672
REMARK  7 active torsions:
REMARK  status: ('A' for Active; 'I' for Inactive)
REMARK    1  A    between atoms: C5_6  and  C6_7 
REMARK    2  A    between atoms: C6_7  and  C7_8 
REMARK    3  A    between atoms: C7_8  and  C8_9 
REMARK    4  A    between atoms: C8_9  and  C9_10 
REMARK    5  A    between atoms: C9_10  and  C10_11 
REMARK    6  A    between atoms: C10_11  and  N2_12 
REMARK    7  A    between atoms: C13_16  and  N4_17 
ROOT
HETATM    1  N2  UNL     1     -32.159 -54.521   5.467  1.00  0.00    -0.287 N 
HETATM    2  C11 UNL     1     -32.102 -55.315   4.390  1.00  0.00     0.126 A 
HETATM    3  N3  UNL     1     -32.999 -56.389   4.257  1.00  0.00    -0.082 NA
HETATM    4  C12 UNL     1     -31.143 -55.060   3.408  1.00  0.00     0.093 A 
HETATM    5  C13 UNL     1     -30.274 -54.002   3.561  1.00  0.00     0.105 A 
HETATM    6  N5  UNL     1     -30.386 -53.245   4.666  1.00  0.00    -0.295 N 
ATOM      7  H5  UNL     1     -29.748 -52.460   4.789  1.00  0.00     0.172 HD
HETATM    8  C14 UNL     1     -31.317 -53.487   5.625  1.00  0.00     0.329 A 
HETATM    9  O1  UNL     1     -31.408 -52.766   6.657  1.00  0.00    -0.246 OA
ENDROOT
BRANCH   1  10
HETATM   10  C10 UNL     1     -33.196 -54.826   6.492  1.00  0.00     0.135 C 
BRANCH  10  11
HETATM   11  C9  UNL     1     -32.560 -55.559   7.629  1.00  0.00     0.020 C 
BRANCH  11  12
HETATM   12  C8  UNL     1     -33.261 -55.672   8.905  1.00  0.00     0.002 C 
BRANCH  12  13
HETATM   13  C7  UNL     1     -33.314 -56.903   9.692  1.00  0.00     0.005 C 
BRANCH  13  14
HETATM   14  C6  UNL     1     -32.376 -57.142  10.809  1.00  0.00     0.040 C 
BRANCH  14  15
HETATM   15  C5  UNL     1     -31.356 -58.143  10.265  1.00  0.00    -0.043 A 
HETATM   16  C4  UNL     1     -31.664 -59.482  10.251  1.00  0.00     0.010 A 
HETATM   17  C3  UNL     1     -30.713 -60.367   9.749  1.00  0.00     0.018 A 
HETATM   18  C2  UNL     1     -29.499 -59.904   9.282  1.00  0.00     0.090 A 
HETATM   19  N1  UNL     1     -29.222 -58.592   9.305  1.00  0.00    -0.370 N 
HETATM   20  C1  UNL     1     -27.930 -58.108   8.807  1.00  0.00     0.154 C 
HETATM   21  C15 UNL     1     -30.142 -57.740   9.791  1.00  0.00     0.097 A 
ENDBRANCH  14  15
ENDBRANCH  13  14
ENDBRANCH  12  13
ENDBRANCH  11  12
ENDBRANCH  10  11
ENDBRANCH   1  10
BRANCH   5  22
HETATM   22  N4  UNL     1     -29.361 -53.733   2.660  1.00  0.00    -0.385 N 
ATOM     23  H42 UNL     1     -28.370 -53.840   2.879  1.00  0.00     0.157 HD
ATOM     24  H41 UNL     1     -29.614 -53.414   1.725  1.00  0.00     0.157 HD
ENDBRANCH   5  22
TORSDOF 7
ENDMDL
MODEL 5
REMARK VINA RESULT: -6.456206927      2.304      2.985
REMARK  7 active torsions:
REMARK  status: ('A' for Active; 'I' for Inactive)
REMARK    1  A    between atoms: C5_6  and  C6_7 
REMARK    2  A    between atoms: C6_7  and  C7_8 
REMARK    3  A    between atoms: C7_8  and  C8_9 
REMARK    4  A    between atoms: C8_9  and  C9_10 
REMARK    5  A    between atoms: C9_10  and  C10_11 
REMARK    6  A    between atoms: C10_11  and  N2_12 
REMARK    7  A    between atoms: C13_16  and  N4_17 
ROOT
HETATM    1  N2  UNL     1     -32.099 -54.683   5.585  1.00  0.00    -0.287 N 
HETATM    2  C11 UNL     1     -31.227 -53.667   5.622  1.00  0.00     0.126 A 
HETATM    3  N3  UNL     1     -31.296 -52.716   6.655  1.00  0.00    -0.082 NA
HETATM    4  C12 UNL     1     -30.255 -53.569   4.625  1.00  0.00     0.093 A 
HETATM    5  C13 UNL     1     -30.207 -54.513   3.623  1.00  0.00     0.105 A 
HETATM    6  N5  UNL     1     -31.112 -55.507   3.646  1.00  0.00    -0.295 N 
ATOM      7  H5  UNL     1     -31.086 -56.211   2.909  1.00  0.00     0.172 HD
HETATM    8  C14 UNL     1     -32.060 -55.609   4.613  1.00  0.00     0.329 A 
HETATM    9  O1  UNL     1     -32.903 -56.549   4.619  1.00  0.00    -0.246 OA
ENDROOT
BRANCH   1  10
HETATM   10  C10 UNL     1     -33.121 -54.753   6.668  1.00  0.00     0.135 C 
BRANCH  10  11
HETATM   11  C9  UNL     1     -32.526 -55.434   7.858  1.00  0.00     0.020 C 
BRANCH  11  12
HETATM   12  C8  UNL     1     -33.351 -55.697   9.034  1.00  0.00     0.002 C 
BRANCH  12  13
HETATM   13  C7  UNL     1     -33.341 -56.964   9.761  1.00  0.00     0.005 C 
BRANCH  13  14
HETATM   14  C6  UNL     1     -32.405 -57.200  10.881  1.00  0.00     0.040 C 
BRANCH  14  15
HETATM   15  C5  UNL     1     -31.362 -58.174  10.330  1.00  0.00    -0.043 A 
HETATM   16  C4  UNL     1     -31.687 -59.501  10.184  1.00  0.00     0.010 A 
HETATM   17  C3  UNL     1     -30.715 -60.360   9.679  1.00  0.00     0.018 A 
HETATM   18  C2  UNL     1     -29.463 -59.885   9.339  1.00  0.00     0.090 A 
HETATM   19  N1  UNL     1     -29.171 -58.585   9.491  1.00  0.00    -0.370 N 
HETATM   20  C1  UNL     1     -27.839 -58.088   9.128  1.00  0.00     0.154 C 
HETATM   21  C15 UNL     1     -30.111 -57.757   9.979  1.00  0.00     0.097 A 
ENDBRANCH  14  15
ENDBRANCH  13  14
ENDBRANCH  12  13
ENDBRANCH  11  12
ENDBRANCH  10  11
ENDBRANCH   1  10
BRANCH   5  22
HETATM   22  N4  UNL     1     -29.310 -54.453   2.670  1.00  0.00    -0.385 N 
ATOM     23  H42 UNL     1     -28.342 -54.720   2.852  1.00  0.00     0.157 HD
ATOM     24  H41 UNL     1     -29.553 -54.140   1.730  1.00  0.00     0.157 HD
ENDBRANCH   5  22
TORSDOF 7
ENDMDL
