MODEL 1
REMARK VINA RESULT: -6.512701492      0.000      0.000
REMARK  7 active torsions:
REMARK  status: ('A' for Active; 'I' for Inactive)
REMARK    1  A    between atoms: C1_4  and  C2_6 
REMARK    2  A    between atoms: N3_9  and  C5_10 
REMARK    3  A    between atoms: C5_10  and  C6_11 
REMARK    4  A    between atoms: C6_11  and  C7_12 
REMARK    5  A    between atoms: C7_12  and  C8_13 
REMARK    6  A    between atoms: C8_13  and  N4_14 
REMARK    7  A    between atoms: C10_17  and  N5_18 
ROOT
HETATM    1  C5  UNL     1     -34.121 -58.193   8.730  1.00  0.00     0.128 C 
ENDROOT
BRANCH   1   2
HETATM    2  N3  UNL     1     -33.533 -57.095   7.994  1.00  0.00    -0.366 N 
HETATM    3  C4  UNL     1     -33.165 -55.939   8.526  1.00  0.00     0.091 A 
HETATM    4  C3  UNL     1     -32.609 -54.929   7.777  1.00  0.00     0.032 A 
HETATM    5  C2  UNL     1     -32.404 -55.074   6.398  1.00  0.00     0.007 A 
HETATM    6  C12 UNL     1     -32.791 -56.280   5.856  1.00  0.00     0.032 A 
HETATM    7  C11 UNL     1     -33.347 -57.260   6.676  1.00  0.00     0.091 A 
BRANCH   5   8
HETATM    8  C1  UNL     1     -31.815 -53.990   5.632  1.00  0.00     0.120 C 
HETATM    9  N1  UNL     1     -31.552 -54.141   4.395  1.00  0.00    -0.387 N 
ATOM     10  H12 UNL     1     -31.138 -53.380   3.857  1.00  0.00     0.157 HD
ATOM     11  H11 UNL     1     -31.750 -55.024   3.924  1.00  0.00     0.157 HD
HETATM   12  N2  UNL     1     -31.539 -52.760   6.288  1.00  0.00    -0.082 NA
ENDBRANCH   5   8
ENDBRANCH   1   2
BRANCH   1  13
HETATM   13  C6  UNL     1     -33.367 -59.466   8.603  1.00  0.00     0.022 C 
BRANCH  13  14
HETATM   14  C7  UNL     1     -32.121 -59.428   9.451  1.00  0.00     0.023 C 
BRANCH  14  15
HETATM   15  C8  UNL     1     -30.850 -59.433   8.661  1.00  0.00     0.149 C 
BRANCH  15  16
HETATM   16  N4  UNL     1     -30.084 -58.193   8.932  1.00  0.00    -0.295 N 
HETATM   17  C9  UNL     1     -29.594 -57.937  10.147  1.00  0.00     0.163 A 
HETATM   18  S1  UNL     1     -28.821 -56.436   9.908  1.00  0.00    -0.046 SA
HETATM   19  C10 UNL     1     -29.183 -56.238   8.252  1.00  0.00     0.158 A 
HETATM   20  N6  UNL     1     -29.870 -57.337   8.001  1.00  0.00    -0.278 N 
ATOM     21  H6  UNL     1     -30.233 -57.505   7.062  1.00  0.00     0.189 HD
BRANCH  19  22
HETATM   22  N5  UNL     1     -28.878 -55.267   7.417  1.00  0.00    -0.379 N 
ATOM     23  H52 UNL     1     -28.478 -54.355   7.636  1.00  0.00     0.158 HD
ATOM     24  H51 UNL     1     -28.968 -55.210   6.402  1.00  0.00     0.158 HD
ENDBRANCH  19  22
ENDBRANCH  15  16
ENDBRANCH  14  15
ENDBRANCH  13  14
ENDBRANCH   1  13
TORSDOF 7
ENDMDL
MODEL 2
REMARK VINA RESULT: -6.379130793      1.407      1.626
REMARK  7 active torsions:
REMARK  status: ('A' for Active; 'I' for Inactive)
REMARK    1  A    between atoms: C1_4  and  C2_6 
REMARK    2  A    between atoms: N3_9  and  C5_10 
REMARK    3  A    between atoms: C5_10  and  C6_11 
REMARK    4  A    between atoms: C6_11  and  C7_12 
REMARK    5  A    between atoms: C7_12  and  C8_13 
REMARK    6  A    between atoms: C8_13  and  N4_14 
REMARK    7  A    between atoms: C10_17  and  N5_18 
ROOT
HETATM    1  C5  UNL     1     -33.353 -58.335   9.029  1.00  0.00     0.128 C 
ENDROOT
BRANCH   1   2
HETATM    2  N3  UNL     1     -32.912 -57.256   8.175  1.00  0.00    -0.366 N 
HETATM    3  C4  UNL     1     -31.749 -57.221   7.540  1.00  0.00     0.091 A 
HETATM    4  C3  UNL     1     -31.381 -56.166   6.738  1.00  0.00     0.032 A 
HETATM    5  C2  UNL     1     -32.227 -55.064   6.552  1.00  0.00     0.007 A 
HETATM    6  C12 UNL     1     -33.432 -55.112   7.217  1.00  0.00     0.032 A 
HETATM    7  C11 UNL     1     -33.739 -56.213   8.013  1.00  0.00     0.091 A 
BRANCH   5   8
HETATM    8  C1  UNL     1     -31.811 -53.965   5.698  1.00  0.00     0.120 C 
HETATM    9  N1  UNL     1     -31.726 -54.123   4.437  1.00  0.00    -0.387 N 
ATOM     10  H12 UNL     1     -31.434 -53.351   3.838  1.00  0.00     0.157 HD
ATOM     11  H11 UNL     1     -31.946 -55.021   4.008  1.00  0.00     0.157 HD
HETATM   12  N2  UNL     1     -31.504 -52.713   6.295  1.00  0.00    -0.082 NA
ENDBRANCH   5   8
ENDBRANCH   1   2
BRANCH   1  13
HETATM   13  C6  UNL     1     -32.438 -59.505   9.032  1.00  0.00     0.022 C 
BRANCH  13  14
HETATM   14  C7  UNL     1     -31.859 -59.719  10.408  1.00  0.00     0.023 C 
BRANCH  14  15
HETATM   15  C8  UNL     1     -30.419 -60.130  10.402  1.00  0.00     0.149 C 
BRANCH  15  16
HETATM   16  N4  UNL     1     -29.583 -59.026   9.872  1.00  0.00    -0.295 N 
HETATM   17  C9  UNL     1     -28.775 -59.214   8.826  1.00  0.00     0.163 A 
HETATM   18  S1  UNL     1     -28.076 -57.670   8.637  1.00  0.00    -0.046 SA
HETATM   19  C10 UNL     1     -28.875 -56.883   9.923  1.00  0.00     0.158 A 
HETATM   20  N6  UNL     1     -29.620 -57.860  10.405  1.00  0.00    -0.278 N 
ATOM     21  H6  UNL     1     -30.229 -57.687  11.206  1.00  0.00     0.189 HD
BRANCH  19  22
HETATM   22  N5  UNL     1     -28.797 -55.640  10.350  1.00  0.00    -0.379 N 
ATOM     23  H52 UNL     1     -29.174 -55.250  11.214  1.00  0.00     0.158 HD
ATOM     24  H51 UNL     1     -28.359 -54.819   9.932  1.00  0.00     0.158 HD
ENDBRANCH  19  22
ENDBRANCH  15  16
ENDBRANCH  14  15
ENDBRANCH  13  14
ENDBRANCH   1  13
TORSDOF 7
ENDMDL
MODEL 3
REMARK VINA RESULT: -6.358094012      1.435      1.558
REMARK  7 active torsions:
REMARK  status: ('A' for Active; 'I' for Inactive)
REMARK    1  A    between atoms: C1_4  and  C2_6 
REMARK    2  A    between atoms: N3_9  and  C5_10 
REMARK    3  A    between atoms: C5_10  and  C6_11 
REMARK    4  A    between atoms: C6_11  and  C7_12 
REMARK    5  A    between atoms: C7_12  and  C8_13 
REMARK    6  A    between atoms: C8_13  and  N4_14 
REMARK    7  A    between atoms: C10_17  and  N5_18 
ROOT
HETATM    1  C5  UNL     1     -33.614 -58.349   8.832  1.00  0.00     0.128 C 
ENDROOT
BRANCH   1   2
HETATM    2  N3  UNL     1     -33.109 -57.266   8.018  1.00  0.00    -0.366 N 
HETATM    3  C4  UNL     1     -31.903 -57.231   7.469  1.00  0.00     0.091 A 
HETATM    4  C3  UNL     1     -31.475 -56.173   6.702  1.00  0.00     0.032 A 
HETATM    5  C2  UNL     1     -32.302 -55.067   6.462  1.00  0.00     0.007 A 
HETATM    6  C12 UNL     1     -33.552 -55.114   7.039  1.00  0.00     0.032 A 
HETATM    7  C11 UNL     1     -33.919 -56.219   7.804  1.00  0.00     0.091 A 
BRANCH   5   8
HETATM    8  C1  UNL     1     -31.823 -53.964   5.648  1.00  0.00     0.120 C 
HETATM    9  N1  UNL     1     -31.688 -54.102   4.389  1.00  0.00    -0.387 N 
ATOM     10  H12 UNL     1     -31.352 -53.328   3.816  1.00  0.00     0.157 HD
ATOM     11  H11 UNL     1     -31.913 -54.987   3.934  1.00  0.00     0.157 HD
HETATM   12  N2  UNL     1     -31.509 -52.732   6.281  1.00  0.00    -0.082 NA
ENDBRANCH   5   8
ENDBRANCH   1   2
BRANCH   1  13
HETATM   13  C6  UNL     1     -32.732 -59.543   8.848  1.00  0.00     0.022 C 
BRANCH  13  14
HETATM   14  C7  UNL     1     -32.047 -59.676  10.185  1.00  0.00     0.023 C 
BRANCH  14  15
HETATM   15  C8  UNL     1     -30.652 -60.214  10.100  1.00  0.00     0.149 C 
BRANCH  15  16
HETATM   16  N4  UNL     1     -29.708 -59.116   9.781  1.00  0.00    -0.295 N 
HETATM   17  C9  UNL     1     -29.803 -57.928  10.382  1.00  0.00     0.163 A 
HETATM   18  S1  UNL     1     -28.512 -57.068   9.674  1.00  0.00    -0.046 SA
HETATM   19  C10 UNL     1     -27.934 -58.303   8.648  1.00  0.00     0.158 A 
HETATM   20  N6  UNL     1     -28.771 -59.285   8.921  1.00  0.00    -0.278 N 
ATOM     21  H6  UNL     1     -28.674 -60.183   8.446  1.00  0.00     0.189 HD
BRANCH  19  22
HETATM   22  N5  UNL     1     -26.927 -58.312   7.799  1.00  0.00    -0.379 N 
ATOM     23  H52 UNL     1     -25.941 -58.481   7.999  1.00  0.00     0.158 HD
ATOM     24  H51 UNL     1     -26.905 -58.158   6.791  1.00  0.00     0.158 HD
ENDBRANCH  19  22
ENDBRANCH  15  16
ENDBRANCH  14  15
ENDBRANCH  13  14
ENDBRANCH   1  13
TORSDOF 7
ENDMDL
MODEL 4
REMARK VINA RESULT: -6.278205104      1.977      4.649
REMARK  7 active torsions:
REMARK  status: ('A' for Active; 'I' for Inactive)
REMARK    1  A    between atoms: C1_4  and  C2_6 
REMARK    2  A    between atoms: N3_9  and  C5_10 
REMARK    3  A    between atoms: C5_10  and  C6_11 
REMARK    4  A    between atoms: C6_11  and  C7_12 
REMARK    5  A    between atoms: C7_12  and  C8_13 
REMARK    6  A    between atoms: C8_13  and  N4_14 
REMARK    7  A    between atoms: C10_17  and  N5_18 
ROOT
HETATM    1  C5  UNL     1     -33.604 -58.766   8.816  1.00  0.00     0.128 C 
ENDROOT
BRANCH   1   2
HETATM    2  N3  UNL     1     -32.167 -58.647   8.931  1.00  0.00    -0.366 N 
HETATM    3  C4  UNL     1     -31.307 -58.906   7.957  1.00  0.00     0.091 A 
HETATM    4  C3  UNL     1     -29.948 -58.775   8.122  1.00  0.00     0.032 A 
HETATM    5  C2  UNL     1     -29.401 -58.357   9.343  1.00  0.00     0.007 A 
HETATM    6  C12 UNL     1     -30.305 -58.091  10.348  1.00  0.00     0.032 A 
HETATM    7  C11 UNL     1     -31.669 -58.245  10.109  1.00  0.00     0.091 A 
BRANCH   5   8
HETATM    8  C1  UNL     1     -27.962 -58.227   9.488  1.00  0.00     0.120 C 
HETATM    9  N1  UNL     1     -27.446 -58.002  10.631  1.00  0.00    -0.387 N 
ATOM     10  H12 UNL     1     -26.435 -57.911  10.733  1.00  0.00     0.157 HD
ATOM     11  H11 UNL     1     -28.033 -57.909  11.459  1.00  0.00     0.157 HD
HETATM   12  N2  UNL     1     -27.143 -58.357   8.335  1.00  0.00    -0.082 NA
ENDBRANCH   5   8
ENDBRANCH   1   2
BRANCH   1  13
HETATM   13  C6  UNL     1     -34.332 -57.510   9.128  1.00  0.00     0.022 C 
BRANCH  13  14
HETATM   14  C7  UNL     1     -34.136 -56.499   8.028  1.00  0.00     0.023 C 
BRANCH  14  15
HETATM   15  C8  UNL     1     -33.363 -55.288   8.449  1.00  0.00     0.149 C 
BRANCH  15  16
HETATM   16  N4  UNL     1     -32.182 -55.113   7.570  1.00  0.00    -0.295 N 
HETATM   17  C9  UNL     1     -32.318 -54.717   6.302  1.00  0.00     0.163 A 
HETATM   18  S1  UNL     1     -30.699 -54.676   5.769  1.00  0.00    -0.046 SA
HETATM   19  C10 UNL     1     -29.953 -55.173   7.221  1.00  0.00     0.158 A 
HETATM   20  N6  UNL     1     -30.998 -55.335   8.010  1.00  0.00    -0.278 N 
ATOM     21  H6  UNL     1     -30.863 -55.639   8.975  1.00  0.00     0.189 HD
BRANCH  19  22
HETATM   22  N5  UNL     1     -28.682 -55.357   7.514  1.00  0.00    -0.379 N 
ATOM     23  H52 UNL     1     -27.867 -54.986   7.026  1.00  0.00     0.158 HD
ATOM     24  H51 UNL     1     -28.243 -55.890   8.264  1.00  0.00     0.158 HD
ENDBRANCH  19  22
ENDBRANCH  15  16
ENDBRANCH  14  15
ENDBRANCH  13  14
ENDBRANCH   1  13
TORSDOF 7
ENDMDL
MODEL 5
REMARK VINA RESULT: -6.230965265      1.917      2.689
REMARK  7 active torsions:
REMARK  status: ('A' for Active; 'I' for Inactive)
REMARK    1  A    between atoms: C1_4  and  C2_6 
REMARK    2  A    between atoms: N3_9  and  C5_10 
REMARK    3  A    between atoms: C5_10  and  C6_11 
REMARK    4  A    between atoms: C6_11  and  C7_12 
REMARK    5  A    between atoms: C7_12  and  C8_13 
REMARK    6  A    between atoms: C8_13  and  N4_14 
REMARK    7  A    between atoms: C10_17  and  N5_18 
ROOT
HETATM    1  C5  UNL     1     -31.523 -59.725  10.616  1.00  0.00     0.128 C 
ENDROOT
BRANCH   1   2
HETATM    2  N3  UNL     1     -32.188 -58.595  10.007  1.00  0.00    -0.366 N 
HETATM    3  C4  UNL     1     -32.322 -57.403  10.570  1.00  0.00     0.091 A 
HETATM    4  C3  UNL     1     -32.965 -56.362   9.943  1.00  0.00     0.032 A 
HETATM    5  C2  UNL     1     -33.518 -56.513   8.664  1.00  0.00     0.007 A 
HETATM    6  C12 UNL     1     -33.373 -57.756   8.090  1.00  0.00     0.032 A 
HETATM    7  C11 UNL     1     -32.708 -58.765   8.783  1.00  0.00     0.091 A 
BRANCH   5   8
HETATM    8  C1  UNL     1     -34.192 -55.395   8.027  1.00  0.00     0.120 C 
HETATM    9  N1  UNL     1     -35.418 -55.153   8.276  1.00  0.00    -0.387 N 
ATOM     10  H12 UNL     1     -35.891 -54.368   7.828  1.00  0.00     0.157 HD
ATOM     11  H11 UNL     1     -35.943 -55.738   8.924  1.00  0.00     0.157 HD
HETATM   12  N2  UNL     1     -33.460 -54.580   7.123  1.00  0.00    -0.082 NA
ENDBRANCH   5   8
ENDBRANCH   1   2
BRANCH   1  13
HETATM   13  C6  UNL     1     -30.807 -60.589   9.644  1.00  0.00     0.022 C 
BRANCH  13  14
HETATM   14  C7  UNL     1     -29.325 -60.315   9.684  1.00  0.00     0.023 C 
BRANCH  14  15
HETATM   15  C8  UNL     1     -28.818 -59.552   8.499  1.00  0.00     0.149 C 
BRANCH  15  16
HETATM   16  N4  UNL     1     -28.966 -58.097   8.737  1.00  0.00    -0.295 N 
HETATM   17  C9  UNL     1     -28.448 -57.519   9.824  1.00  0.00     0.163 A 
HETATM   18  S1  UNL     1     -28.890 -55.887   9.603  1.00  0.00    -0.046 SA
HETATM   19  C10 UNL     1     -29.715 -56.059   8.119  1.00  0.00     0.158 A 
HETATM   20  N6  UNL     1     -29.593 -57.355   7.900  1.00  0.00    -0.278 N 
ATOM     21  H6  UNL     1     -30.000 -57.768   7.060  1.00  0.00     0.189 HD
BRANCH  19  22
HETATM   22  N5  UNL     1     -30.323 -55.166   7.366  1.00  0.00    -0.379 N 
ATOM     23  H52 UNL     1     -29.916 -54.346   6.915  1.00  0.00     0.158 HD
ATOM     24  H51 UNL     1     -31.298 -55.093   7.076  1.00  0.00     0.158 HD
ENDBRANCH  19  22
ENDBRANCH  15  16
ENDBRANCH  14  15
ENDBRANCH  13  14
ENDBRANCH   1  13
TORSDOF 7
ENDMDL
