MODEL 1
REMARK VINA RESULT: -6.878950319      0.000      0.000
REMARK  13 active torsions:
REMARK  status: ('A' for Active; 'I' for Inactive)
REMARK    1  A    between atoms: C2_2  and  C3_3 
REMARK    2  A    between atoms: C3_3  and  O1_4 
REMARK    3  A    between atoms: O1_4  and  C4_5 
REMARK    4  A    between atoms: C4_5  and  C5_6 
REMARK    5  A    between atoms: C9_10  and  C10_11 
REMARK    6  A    between atoms: C10_11  and  C11_12 
REMARK    7  A    between atoms: C11_12  and  N1_13 
REMARK    8  A    between atoms: C17_21  and  N3_22 
REMARK    9  A    between atoms: N3_22  and  C18_24 
REMARK   10  A    between atoms: C18_24  and  C19_25 
REMARK   11  A    between atoms: C19_25  and  C20_26 
REMARK   12  A    between atoms: C22_30  and  N5_31 
REMARK   13  A    between atoms: N6_34  and  O2_35 
REMARK       I    between atoms: N7_38  and  C25_40 
ROOT
HETATM    1  N3  UNL     1     -19.798   8.795  47.568  1.00  0.00    -0.331 N 
ATOM      2  H3  UNL     1     -20.016   7.841  47.855  1.00  0.00     0.168 HD
ENDROOT
BRANCH   1   3
HETATM    3  C17 UNL     1     -20.009   9.525  48.523  1.00  0.00     0.117 A 
HETATM    4  N1  UNL     1     -21.337   9.879  48.708  1.00  0.00    -0.328 N 
HETATM    5  C12 UNL     1     -21.631  10.687  49.727  1.00  0.00     0.184 A 
HETATM    6  N2  UNL     1     -20.695  11.156  50.556  1.00  0.00    -0.355 N 
HETATM    7  C13 UNL     1     -19.398  10.844  50.422  1.00  0.00     0.015 A 
ATOM      8  H2  UNL     1     -20.977  11.772  51.318  1.00  0.00     0.166 HD
HETATM    9  C14 UNL     1     -18.345  11.361  51.322  1.00  0.00     0.069 C 
HETATM   10  C15 UNL     1     -19.032   9.994  49.366  1.00  0.00     0.004 A 
HETATM   11  C16 UNL     1     -17.591   9.632  49.251  1.00  0.00     0.054 C 
BRANCH   4  12
HETATM   12  C11 UNL     1     -22.337   9.364  47.792  1.00  0.00     0.136 C 
BRANCH  12  13
HETATM   13  C10 UNL     1     -23.693  10.000  47.981  1.00  0.00     0.058 C 
BRANCH  13  14
HETATM   14  C9  UNL     1     -24.632   9.226  48.794  1.00  0.00    -0.056 A 
HETATM   15  C8  UNL     1     -25.078   7.990  48.363  1.00  0.00     0.007 A 
HETATM   16  C7  UNL     1     -25.967   7.249  49.086  1.00  0.00     0.001 A 
HETATM   17  C6  UNL     1     -26.449   7.710  50.276  1.00  0.00     0.009 A 
HETATM   18  C5  UNL     1     -26.018   8.939  50.728  1.00  0.00    -0.034 A 
HETATM   19  C26 UNL     1     -25.121   9.694  50.003  1.00  0.00     0.016 A 
BRANCH  18  20
HETATM   20  C4  UNL     1     -26.535   9.478  52.034  1.00  0.00     0.206 C 
BRANCH  20  21
HETATM   21  O1  UNL     1     -26.539  10.847  51.943  1.00  0.00    -0.383 OA
BRANCH  21  22
HETATM   22  C3  UNL     1     -27.078  11.479  53.060  1.00  0.00     0.194 C 
BRANCH  22  23
HETATM   23  C2  UNL     1     -28.060  12.524  52.737  1.00  0.00    -0.011 C 
HETATM   24  C1  UNL     1     -29.146  12.670  53.482  1.00  0.00     0.009 C 
ENDBRANCH  22  23
ENDBRANCH  21  22
ENDBRANCH  20  21
ENDBRANCH  18  20
ENDBRANCH  13  14
ENDBRANCH  12  13
ENDBRANCH   4  12
ENDBRANCH   1   3
BRANCH   1  25
HETATM   25  C18 UNL     1     -19.376   8.751  46.237  1.00  0.00     0.089 C 
HETATM   26  N7  UNL     1     -19.251   7.661  45.675  1.00  0.00    -0.320 N 
HETATM   27  C25 UNL     1     -18.905   7.046  44.508  1.00  0.00     0.187 C 
ATOM     28  H7  UNL     1     -19.506   6.936  46.345  1.00  0.00     0.169 HD
HETATM   29  N8  UNL     1     -19.696   6.747  43.532  1.00  0.00    -0.373 N 
HETATM   30  N9  UNL     1     -17.535   6.653  44.312  1.00  0.00    -0.064 NA
ATOM     31  H82 UNL     1     -20.667   7.025  43.671  1.00  0.00     0.158 HD
ATOM     32  H81 UNL     1     -19.437   6.286  42.660  1.00  0.00     0.158 HD
BRANCH  25  33
HETATM   33  C19 UNL     1     -19.085  10.061  45.621  1.00  0.00     0.118 C 
BRANCH  33  34
HETATM   34  C20 UNL     1     -20.195  10.863  45.115  1.00  0.00    -0.017 A 
HETATM   35  C21 UNL     1     -20.634  12.002  45.769  1.00  0.00     0.115 A 
HETATM   36  N4  UNL     1     -21.667  12.674  45.278  1.00  0.00    -0.199 N 
HETATM   37  C22 UNL     1     -22.342  12.335  44.169  1.00  0.00     0.703 A 
ATOM     38  H4  UNL     1     -21.969  13.510  45.780  1.00  0.00     0.183 HD
HETATM   39  N6  UNL     1     -21.909  11.209  43.522  1.00  0.00    -0.064 N 
HETATM   40  C24 UNL     1     -20.884  10.487  43.955  1.00  0.00     0.151 A 
BRANCH  37  41
HETATM   41  N5  UNL     1     -23.336  12.944  43.684  1.00  0.00    -0.228 N 
HETATM   42  C23 UNL     1     -24.478  13.504  44.310  1.00  0.00     0.165 C 
ATOM     43  H5  UNL     1     -23.312  13.053  42.670  1.00  0.00     0.177 HD
ENDBRANCH  37  41
BRANCH  39  44
HETATM   44  O2  UNL     1     -22.604  10.837  42.361  1.00  0.00    -0.270 OA
ATOM     45  H2  UNL     1     -22.113  10.366  41.699  1.00  0.00     0.245 HD
ENDBRANCH  39  44
ENDBRANCH  33  34
ENDBRANCH  25  33
ENDBRANCH   1  25
TORSDOF 13
ENDMDL
MODEL 2
REMARK VINA RESULT: -6.837292783      3.111      8.045
REMARK  13 active torsions:
REMARK  status: ('A' for Active; 'I' for Inactive)
REMARK    1  A    between atoms: C2_2  and  C3_3 
REMARK    2  A    between atoms: C3_3  and  O1_4 
REMARK    3  A    between atoms: O1_4  and  C4_5 
REMARK    4  A    between atoms: C4_5  and  C5_6 
REMARK    5  A    between atoms: C9_10  and  C10_11 
REMARK    6  A    between atoms: C10_11  and  C11_12 
REMARK    7  A    between atoms: C11_12  and  N1_13 
REMARK    8  A    between atoms: C17_21  and  N3_22 
REMARK    9  A    between atoms: N3_22  and  C18_24 
REMARK   10  A    between atoms: C18_24  and  C19_25 
REMARK   11  A    between atoms: C19_25  and  C20_26 
REMARK   12  A    between atoms: C22_30  and  N5_31 
REMARK   13  A    between atoms: N6_34  and  O2_35 
REMARK       I    between atoms: N7_38  and  C25_40 
ROOT
HETATM    1  N3  UNL     1     -21.480   9.551  45.847  1.00  0.00    -0.331 N 
ATOM      2  H3  UNL     1     -21.698   8.649  45.424  1.00  0.00     0.168 HD
ENDROOT
BRANCH   1   3
HETATM    3  C17 UNL     1     -21.800  10.419  45.050  1.00  0.00     0.117 A 
HETATM    4  N1  UNL     1     -20.962  10.543  43.952  1.00  0.00    -0.328 N 
HETATM    5  C12 UNL     1     -21.248  11.483  43.052  1.00  0.00     0.184 A 
HETATM    6  N2  UNL     1     -22.302  12.294  43.180  1.00  0.00    -0.355 N 
HETATM    7  C13 UNL     1     -23.143  12.215  44.222  1.00  0.00     0.015 A 
ATOM      8  H2  UNL     1     -22.473  12.997  42.462  1.00  0.00     0.166 HD
HETATM    9  C14 UNL     1     -24.309  13.110  44.388  1.00  0.00     0.069 C 
HETATM   10  C15 UNL     1     -22.889  11.240  45.199  1.00  0.00     0.004 A 
HETATM   11  C16 UNL     1     -23.852  11.145  46.333  1.00  0.00     0.054 C 
BRANCH   4  12
HETATM   12  C11 UNL     1     -19.819   9.657  43.835  1.00  0.00     0.136 C 
BRANCH  12  13
HETATM   13  C10 UNL     1     -19.979   8.631  42.740  1.00  0.00     0.058 C 
BRANCH  13  14
HETATM   14  C9  UNL     1     -20.144   7.252  43.202  1.00  0.00    -0.056 A 
HETATM   15  C8  UNL     1     -19.728   6.883  44.468  1.00  0.00     0.007 A 
HETATM   16  C7  UNL     1     -19.850   5.603  44.925  1.00  0.00     0.001 A 
HETATM   17  C6  UNL     1     -20.397   4.633  44.137  1.00  0.00     0.009 A 
HETATM   18  C5  UNL     1     -20.821   4.977  42.871  1.00  0.00    -0.034 A 
HETATM   19  C26 UNL     1     -20.700   6.268  42.401  1.00  0.00     0.016 A 
BRANCH  18  20
HETATM   20  C4  UNL     1     -21.423   3.930  41.976  1.00  0.00     0.206 C 
BRANCH  20  21
HETATM   21  O1  UNL     1     -22.203   4.576  41.051  1.00  0.00    -0.383 OA
BRANCH  21  22
HETATM   22  C3  UNL     1     -23.510   4.099  40.991  1.00  0.00     0.194 C 
BRANCH  22  23
HETATM   23  C2  UNL     1     -24.476   4.915  41.740  1.00  0.00    -0.011 C 
HETATM   24  C1  UNL     1     -25.733   5.003  41.328  1.00  0.00     0.009 C 
ENDBRANCH  22  23
ENDBRANCH  21  22
ENDBRANCH  20  21
ENDBRANCH  18  20
ENDBRANCH  13  14
ENDBRANCH  12  13
ENDBRANCH   4  12
ENDBRANCH   1   3
BRANCH   1  25
HETATM   25  C18 UNL     1     -20.935   9.307  47.110  1.00  0.00     0.089 C 
HETATM   26  N7  UNL     1     -19.895   9.877  47.443  1.00  0.00    -0.320 N 
HETATM   27  C25 UNL     1     -18.978  10.022  48.442  1.00  0.00     0.187 C 
ATOM     28  H7  UNL     1     -19.607  10.476  46.669  1.00  0.00     0.169 HD
HETATM   29  N8  UNL     1     -19.014  10.887  49.401  1.00  0.00    -0.373 N 
HETATM   30  N9  UNL     1     -17.827   9.159  48.456  1.00  0.00    -0.064 NA
ATOM     31  H82 UNL     1     -19.830  11.498  49.391  1.00  0.00     0.158 HD
ATOM     32  H81 UNL     1     -18.328  10.995  50.147  1.00  0.00     0.158 HD
BRANCH  25  33
HETATM   33  C19 UNL     1     -21.671   8.332  47.939  1.00  0.00     0.118 C 
BRANCH  33  34
HETATM   34  C20 UNL     1     -22.825   8.790  48.707  1.00  0.00    -0.017 A 
HETATM   35  C21 UNL     1     -22.708   9.737  49.711  1.00  0.00     0.115 A 
HETATM   36  N4  UNL     1     -23.787  10.093  50.395  1.00  0.00    -0.199 N 
HETATM   37  C22 UNL     1     -25.018   9.600  50.191  1.00  0.00     0.703 A 
ATOM     38  H4  UNL     1     -23.672  10.793  51.129  1.00  0.00     0.183 HD
HETATM   39  N6  UNL     1     -25.135   8.664  49.199  1.00  0.00    -0.064 N 
HETATM   40  C24 UNL     1     -24.099   8.259  48.475  1.00  0.00     0.151 A 
BRANCH  37  41
HETATM   41  N5  UNL     1     -26.061   9.907  50.833  1.00  0.00    -0.228 N 
HETATM   42  C23 UNL     1     -26.407   9.710  52.193  1.00  0.00     0.165 C 
ATOM     43  H5  UNL     1     -26.776  10.378  50.278  1.00  0.00     0.177 HD
ENDBRANCH  37  41
BRANCH  39  44
HETATM   44  O2  UNL     1     -26.415   8.135  48.972  1.00  0.00    -0.270 OA
ATOM     45  H2  UNL     1     -26.953   8.574  48.325  1.00  0.00     0.245 HD
ENDBRANCH  39  44
ENDBRANCH  33  34
ENDBRANCH  25  33
ENDBRANCH   1  25
TORSDOF 13
ENDMDL
MODEL 3
REMARK VINA RESULT: -6.358153075      4.686     10.494
REMARK  13 active torsions:
REMARK  status: ('A' for Active; 'I' for Inactive)
REMARK    1  A    between atoms: C2_2  and  C3_3 
REMARK    2  A    between atoms: C3_3  and  O1_4 
REMARK    3  A    between atoms: O1_4  and  C4_5 
REMARK    4  A    between atoms: C4_5  and  C5_6 
REMARK    5  A    between atoms: C9_10  and  C10_11 
REMARK    6  A    between atoms: C10_11  and  C11_12 
REMARK    7  A    between atoms: C11_12  and  N1_13 
REMARK    8  A    between atoms: C17_21  and  N3_22 
REMARK    9  A    between atoms: N3_22  and  C18_24 
REMARK   10  A    between atoms: C18_24  and  C19_25 
REMARK   11  A    between atoms: C19_25  and  C20_26 
REMARK   12  A    between atoms: C22_30  and  N5_31 
REMARK   13  A    between atoms: N6_34  and  O2_35 
REMARK       I    between atoms: N7_38  and  C25_40 
ROOT
HETATM    1  N3  UNL     1     -26.947   9.308  51.601  1.00  0.00    -0.331 N 
ATOM      2  H3  UNL     1     -27.180   9.903  50.805  1.00  0.00     0.168 HD
ENDROOT
BRANCH   1   3
HETATM    3  C17 UNL     1     -27.238   8.161  51.302  1.00  0.00     0.117 A 
HETATM    4  N1  UNL     1     -26.404   7.571  50.364  1.00  0.00    -0.328 N 
HETATM    5  C12 UNL     1     -26.678   6.322  49.984  1.00  0.00     0.184 A 
HETATM    6  N2  UNL     1     -27.716   5.641  50.475  1.00  0.00    -0.355 N 
HETATM    7  C13 UNL     1     -28.552   6.165  51.383  1.00  0.00     0.015 A 
ATOM      8  H2  UNL     1     -27.879   4.689  50.148  1.00  0.00     0.166 HD
HETATM    9  C14 UNL     1     -29.714   5.431  51.930  1.00  0.00     0.069 C 
HETATM   10  C15 UNL     1     -28.309   7.477  51.820  1.00  0.00     0.004 A 
HETATM   11  C16 UNL     1     -29.229   8.032  52.854  1.00  0.00     0.054 C 
BRANCH   4  12
HETATM   12  C11 UNL     1     -25.286   8.331  49.839  1.00  0.00     0.136 C 
BRANCH  12  13
HETATM   13  C10 UNL     1     -25.315   8.459  48.336  1.00  0.00     0.058 C 
BRANCH  13  14
HETATM   14  C9  UNL     1     -24.125   9.070  47.742  1.00  0.00    -0.056 A 
HETATM   15  C8  UNL     1     -22.862   8.629  48.093  1.00  0.00     0.007 A 
HETATM   16  C7  UNL     1     -21.731   9.188  47.573  1.00  0.00     0.001 A 
HETATM   17  C6  UNL     1     -21.811  10.212  46.676  1.00  0.00     0.009 A 
HETATM   18  C5  UNL     1     -23.059  10.669  46.310  1.00  0.00    -0.034 A 
HETATM   19  C26 UNL     1     -24.207  10.111  46.831  1.00  0.00     0.016 A 
BRANCH  18  20
HETATM   20  C4  UNL     1     -23.181  11.801  45.328  1.00  0.00     0.206 C 
BRANCH  20  21
HETATM   21  O1  UNL     1     -23.198  11.255  44.069  1.00  0.00    -0.383 OA
BRANCH  21  22
HETATM   22  C3  UNL     1     -22.095  11.604  43.294  1.00  0.00     0.194 C 
BRANCH  22  23
HETATM   23  C2  UNL     1     -21.485  10.472  42.582  1.00  0.00    -0.011 C 
HETATM   24  C1  UNL     1     -20.574   9.720  43.184  1.00  0.00     0.009 C 
ENDBRANCH  22  23
ENDBRANCH  21  22
ENDBRANCH  20  21
ENDBRANCH  18  20
ENDBRANCH  13  14
ENDBRANCH  12  13
ENDBRANCH   4  12
ENDBRANCH   1   3
BRANCH   1  25
HETATM   25  C18 UNL     1     -26.421  10.128  52.603  1.00  0.00     0.089 C 
HETATM   26  N7  UNL     1     -25.365   9.812  53.154  1.00  0.00    -0.320 N 
HETATM   27  C25 UNL     1     -24.456  10.172  54.105  1.00  0.00     0.187 C 
ATOM     28  H7  UNL     1     -25.044   8.939  52.733  1.00  0.00     0.169 HD
HETATM   29  N8  UNL     1     -23.410  10.910  53.930  1.00  0.00    -0.373 N 
HETATM   30  N9  UNL     1     -24.630   9.687  55.448  1.00  0.00    -0.064 NA
ATOM     31  H82 UNL     1     -23.288  11.254  52.978  1.00  0.00     0.158 HD
ATOM     32  H81 UNL     1     -22.731  11.179  54.641  1.00  0.00     0.158 HD
BRANCH  25  33
HETATM   33  C19 UNL     1     -27.226  11.320  52.934  1.00  0.00     0.118 C 
BRANCH  33  34
HETATM   34  C20 UNL     1     -28.302  11.193  53.913  1.00  0.00    -0.017 A 
HETATM   35  C21 UNL     1     -29.606  11.555  53.620  1.00  0.00     0.115 A 
HETATM   36  N4  UNL     1     -30.536  11.446  54.559  1.00  0.00    -0.199 N 
HETATM   37  C22 UNL     1     -30.314  11.002  55.806  1.00  0.00     0.703 A 
ATOM     38  H4  UNL     1     -31.488  11.720  54.316  1.00  0.00     0.183 HD
HETATM   39  N6  UNL     1     -29.025  10.644  56.097  1.00  0.00    -0.064 N 
HETATM   40  C24 UNL     1     -28.044  10.727  55.208  1.00  0.00     0.151 A 
BRANCH  37  41
HETATM   41  N5  UNL     1     -31.173  10.900  56.726  1.00  0.00    -0.228 N 
HETATM   42  C23 UNL     1     -32.088   9.862  57.031  1.00  0.00     0.165 C 
ATOM     43  H5  UNL     1     -31.215  11.701  57.356  1.00  0.00     0.177 HD
ENDBRANCH  37  41
BRANCH  39  44
HETATM   44  O2  UNL     1     -28.773  10.180  57.397  1.00  0.00    -0.270 OA
ATOM     45  H2  UNL     1     -28.799   9.240  57.530  1.00  0.00     0.245 HD
ENDBRANCH  39  44
ENDBRANCH  33  34
ENDBRANCH  25  33
ENDBRANCH   1  25
TORSDOF 13
ENDMDL
MODEL 4
REMARK VINA RESULT: -6.318441791      3.247      7.800
REMARK  13 active torsions:
REMARK  status: ('A' for Active; 'I' for Inactive)
REMARK    1  A    between atoms: C2_2  and  C3_3 
REMARK    2  A    between atoms: C3_3  and  O1_4 
REMARK    3  A    between atoms: O1_4  and  C4_5 
REMARK    4  A    between atoms: C4_5  and  C5_6 
REMARK    5  A    between atoms: C9_10  and  C10_11 
REMARK    6  A    between atoms: C10_11  and  C11_12 
REMARK    7  A    between atoms: C11_12  and  N1_13 
REMARK    8  A    between atoms: C17_21  and  N3_22 
REMARK    9  A    between atoms: N3_22  and  C18_24 
REMARK   10  A    between atoms: C18_24  and  C19_25 
REMARK   11  A    between atoms: C19_25  and  C20_26 
REMARK   12  A    between atoms: C22_30  and  N5_31 
REMARK   13  A    between atoms: N6_34  and  O2_35 
REMARK       I    between atoms: N7_38  and  C25_40 
ROOT
HETATM    1  N3  UNL     1     -25.023   9.557  51.953  1.00  0.00    -0.331 N 
ATOM      2  H3  UNL     1     -24.852   9.907  51.010  1.00  0.00     0.168 HD
ENDROOT
BRANCH   1   3
HETATM    3  C17 UNL     1     -26.204   9.264  52.030  1.00  0.00     0.117 A 
HETATM    4  N1  UNL     1     -26.567   8.110  51.350  1.00  0.00    -0.328 N 
HETATM    5  C12 UNL     1     -27.848   7.744  51.383  1.00  0.00     0.184 A 
HETATM    6  N2  UNL     1     -28.773   8.447  52.041  1.00  0.00    -0.355 N 
HETATM    7  C13 UNL     1     -28.475   9.568  52.714  1.00  0.00     0.015 A 
ATOM      8  H2  UNL     1     -29.739   8.121  52.032  1.00  0.00     0.166 HD
HETATM    9  C14 UNL     1     -29.486  10.367  53.441  1.00  0.00     0.069 C 
HETATM   10  C15 UNL     1     -27.140   9.999  52.715  1.00  0.00     0.004 A 
HETATM   11  C16 UNL     1     -26.821  11.228  53.495  1.00  0.00     0.054 C 
BRANCH   4  12
HETATM   12  C11 UNL     1     -25.548   7.365  50.636  1.00  0.00     0.136 C 
BRANCH  12  13
HETATM   13  C10 UNL     1     -25.551   7.637  49.151  1.00  0.00     0.058 C 
BRANCH  13  14
HETATM   14  C9  UNL     1     -24.235   7.896  48.566  1.00  0.00    -0.056 A 
HETATM   15  C8  UNL     1     -23.212   6.976  48.708  1.00  0.00     0.007 A 
HETATM   16  C7  UNL     1     -21.968   7.192  48.191  1.00  0.00     0.001 A 
HETATM   17  C6  UNL     1     -21.691   8.338  47.504  1.00  0.00     0.009 A 
HETATM   18  C5  UNL     1     -22.695   9.270  47.349  1.00  0.00    -0.034 A 
HETATM   19  C26 UNL     1     -23.954   9.060  47.869  1.00  0.00     0.016 A 
BRANCH  18  20
HETATM   20  C4  UNL     1     -22.419  10.546  46.602  1.00  0.00     0.206 C 
BRANCH  20  21
HETATM   21  O1  UNL     1     -23.553  10.867  45.900  1.00  0.00    -0.383 OA
BRANCH  21  22
HETATM   22  C3  UNL     1     -23.306  11.610  44.749  1.00  0.00     0.194 C 
BRANCH  22  23
HETATM   23  C2  UNL     1     -24.351  12.596  44.441  1.00  0.00    -0.011 C 
HETATM   24  C1  UNL     1     -24.204  13.859  44.814  1.00  0.00     0.009 C 
ENDBRANCH  22  23
ENDBRANCH  21  22
ENDBRANCH  20  21
ENDBRANCH  18  20
ENDBRANCH  13  14
ENDBRANCH  12  13
ENDBRANCH   4  12
ENDBRANCH   1   3
BRANCH   1  25
HETATM   25  C18 UNL     1     -23.811   9.603  52.648  1.00  0.00     0.089 C 
HETATM   26  N7  UNL     1     -23.671  10.406  53.572  1.00  0.00    -0.320 N 
HETATM   27  C25 UNL     1     -22.806  10.872  54.518  1.00  0.00     0.187 C 
ATOM     28  H7  UNL     1     -24.543  10.927  53.666  1.00  0.00     0.169 HD
HETATM   29  N8  UNL     1     -22.671  10.428  55.723  1.00  0.00    -0.373 N 
HETATM   30  N9  UNL     1     -21.954  11.984  54.191  1.00  0.00    -0.064 NA
ATOM     31  H82 UNL     1     -23.275   9.639  55.955  1.00  0.00     0.158 HD
ATOM     32  H81 UNL     1     -22.025  10.776  56.431  1.00  0.00     0.158 HD
BRANCH  25  33
HETATM   33  C19 UNL     1     -22.771   8.671  52.170  1.00  0.00     0.118 C 
BRANCH  33  34
HETATM   34  C20 UNL     1     -21.682   9.191  51.350  1.00  0.00    -0.017 A 
HETATM   35  C21 UNL     1     -21.788  10.392  50.668  1.00  0.00     0.115 A 
HETATM   36  N4  UNL     1     -20.776  10.801  49.913  1.00  0.00    -0.199 N 
HETATM   37  C22 UNL     1     -19.625  10.130  49.749  1.00  0.00     0.703 A 
ATOM     38  H4  UNL     1     -20.881  11.689  49.422  1.00  0.00     0.183 HD
HETATM   39  N6  UNL     1     -19.520   8.943  50.423  1.00  0.00    -0.064 N 
HETATM   40  C24 UNL     1     -20.491   8.471  51.195  1.00  0.00     0.151 A 
BRANCH  37  41
HETATM   41  N5  UNL     1     -18.651  10.484  49.029  1.00  0.00    -0.228 N 
HETATM   42  C23 UNL     1     -18.435  10.362  47.634  1.00  0.00     0.165 C 
ATOM     43  H5  UNL     1     -17.890  10.934  49.538  1.00  0.00     0.177 HD
ENDBRANCH  37  41
BRANCH  39  44
HETATM   44  O2  UNL     1     -18.325   8.226  50.263  1.00  0.00    -0.270 OA
ATOM     45  H2  UNL     1     -18.193   7.477  50.831  1.00  0.00     0.245 HD
ENDBRANCH  39  44
ENDBRANCH  33  34
ENDBRANCH  25  33
ENDBRANCH   1  25
TORSDOF 13
ENDMDL
MODEL 5
REMARK VINA RESULT: -6.307482977      2.780      7.462
REMARK  13 active torsions:
REMARK  status: ('A' for Active; 'I' for Inactive)
REMARK    1  A    between atoms: C2_2  and  C3_3 
REMARK    2  A    between atoms: C3_3  and  O1_4 
REMARK    3  A    between atoms: O1_4  and  C4_5 
REMARK    4  A    between atoms: C4_5  and  C5_6 
REMARK    5  A    between atoms: C9_10  and  C10_11 
REMARK    6  A    between atoms: C10_11  and  C11_12 
REMARK    7  A    between atoms: C11_12  and  N1_13 
REMARK    8  A    between atoms: C17_21  and  N3_22 
REMARK    9  A    between atoms: N3_22  and  C18_24 
REMARK   10  A    between atoms: C18_24  and  C19_25 
REMARK   11  A    between atoms: C19_25  and  C20_26 
REMARK   12  A    between atoms: C22_30  and  N5_31 
REMARK   13  A    between atoms: N6_34  and  O2_35 
REMARK       I    between atoms: N7_38  and  C25_40 
ROOT
HETATM    1  N3  UNL     1     -21.523   9.537  45.833  1.00  0.00    -0.331 N 
ATOM      2  H3  UNL     1     -21.769   8.637  45.421  1.00  0.00     0.168 HD
ENDROOT
BRANCH   1   3
HETATM    3  C17 UNL     1     -21.851  10.407  45.043  1.00  0.00     0.117 A 
HETATM    4  N1  UNL     1     -21.037  10.521  43.926  1.00  0.00    -0.328 N 
HETATM    5  C12 UNL     1     -21.335  11.464  43.031  1.00  0.00     0.184 A 
HETATM    6  N2  UNL     1     -22.377  12.285  43.183  1.00  0.00    -0.355 N 
HETATM    7  C13 UNL     1     -23.195  12.215  44.243  1.00  0.00     0.015 A 
ATOM      8  H2  UNL     1     -22.558  12.989  42.467  1.00  0.00     0.166 HD
HETATM    9  C14 UNL     1     -24.348  13.122  44.434  1.00  0.00     0.069 C 
HETATM   10  C15 UNL     1     -22.929  11.239  45.216  1.00  0.00     0.004 A 
HETATM   11  C16 UNL     1     -23.867  11.155  46.371  1.00  0.00     0.054 C 
BRANCH   4  12
HETATM   12  C11 UNL     1     -19.906   9.624  43.785  1.00  0.00     0.136 C 
BRANCH  12  13
HETATM   13  C10 UNL     1     -20.107   8.589  42.705  1.00  0.00     0.058 C 
BRANCH  13  14
HETATM   14  C9  UNL     1     -20.115   7.202  43.169  1.00  0.00    -0.056 A 
HETATM   15  C8  UNL     1     -20.727   6.215  42.418  1.00  0.00     0.007 A 
HETATM   16  C7  UNL     1     -20.770   4.915  42.830  1.00  0.00     0.001 A 
HETATM   17  C6  UNL     1     -20.199   4.541  44.011  1.00  0.00     0.009 A 
HETATM   18  C5  UNL     1     -19.581   5.507  44.777  1.00  0.00    -0.034 A 
HETATM   19  C26 UNL     1     -19.535   6.823  44.369  1.00  0.00     0.016 A 
BRANCH  18  20
HETATM   20  C4  UNL     1     -18.948   5.127  46.087  1.00  0.00     0.206 C 
BRANCH  20  21
HETATM   21  O1  UNL     1     -19.746   5.618  47.089  1.00  0.00    -0.383 OA
BRANCH  21  22
HETATM   22  C3  UNL     1     -20.315   4.627  47.885  1.00  0.00     0.194 C 
BRANCH  22  23
HETATM   23  C2  UNL     1     -21.774   4.520  47.752  1.00  0.00    -0.011 C 
HETATM   24  C1  UNL     1     -22.304   3.600  46.959  1.00  0.00     0.009 C 
ENDBRANCH  22  23
ENDBRANCH  21  22
ENDBRANCH  20  21
ENDBRANCH  18  20
ENDBRANCH  13  14
ENDBRANCH  12  13
ENDBRANCH   4  12
ENDBRANCH   1   3
BRANCH   1  25
HETATM   25  C18 UNL     1     -20.943   9.288  47.080  1.00  0.00     0.089 C 
HETATM   26  N7  UNL     1     -19.888   9.849  47.382  1.00  0.00    -0.320 N 
HETATM   27  C25 UNL     1     -18.940   9.985  48.353  1.00  0.00     0.187 C 
ATOM     28  H7  UNL     1     -19.618  10.444  46.599  1.00  0.00     0.169 HD
HETATM   29  N8  UNL     1     -18.940  10.850  49.312  1.00  0.00    -0.373 N 
HETATM   30  N9  UNL     1     -17.798   9.111  48.334  1.00  0.00    -0.064 NA
ATOM     31  H82 UNL     1     -19.750  11.470  49.325  1.00  0.00     0.158 HD
ATOM     32  H81 UNL     1     -18.231  10.953  50.038  1.00  0.00     0.158 HD
BRANCH  25  33
HETATM   33  C19 UNL     1     -21.663   8.321  47.932  1.00  0.00     0.118 C 
BRANCH  33  34
HETATM   34  C20 UNL     1     -22.811   8.783  48.706  1.00  0.00    -0.017 A 
HETATM   35  C21 UNL     1     -22.684   9.731  49.708  1.00  0.00     0.115 A 
HETATM   36  N4  UNL     1     -23.757  10.091  50.399  1.00  0.00    -0.199 N 
HETATM   37  C22 UNL     1     -24.992   9.602  50.204  1.00  0.00     0.703 A 
ATOM     38  H4  UNL     1     -23.636  10.790  51.132  1.00  0.00     0.183 HD
HETATM   39  N6  UNL     1     -25.118   8.665  49.213  1.00  0.00    -0.064 N 
HETATM   40  C24 UNL     1     -24.089   8.257  48.482  1.00  0.00     0.151 A 
BRANCH  37  41
HETATM   41  N5  UNL     1     -26.030   9.913  50.852  1.00  0.00    -0.228 N 
HETATM   42  C23 UNL     1     -26.328   9.808  52.233  1.00  0.00     0.165 C 
ATOM     43  H5  UNL     1     -26.781  10.306  50.285  1.00  0.00     0.177 HD
ENDBRANCH  37  41
BRANCH  39  44
HETATM   44  O2  UNL     1     -26.401   8.140  48.995  1.00  0.00    -0.270 OA
ATOM     45  H2  UNL     1     -26.547   7.239  49.257  1.00  0.00     0.245 HD
ENDBRANCH  39  44
ENDBRANCH  33  34
ENDBRANCH  25  33
ENDBRANCH   1  25
TORSDOF 13
ENDMDL
