MODEL 1
REMARK VINA RESULT: -7.585234759      0.000      0.000
REMARK  10 active torsions:
REMARK  status: ('A' for Active; 'I' for Inactive)
REMARK    1  A    between atoms: C2_2  and  C3_3 
REMARK    2  A    between atoms: C4_4  and  C5_5 
REMARK    3  A    between atoms: C5_5  and  C6_6 
REMARK    4  A    between atoms: C14_18  and  C15_19 
REMARK    5  A    between atoms: C15_19  and  C16_20 
REMARK    6  A    between atoms: C16_20  and  C17_21 
REMARK    7  A    between atoms: C17_21  and  N3_22 
REMARK    8  A    between atoms: N4_25  and  C20_26 
REMARK    9  A    between atoms: C24_36  and  C25_37 
REMARK   10  A    between atoms: C25_37  and  C26_38 
ROOT
HETATM    1  C3  UNL     1     -23.818   9.711  48.906  1.00  0.00    -0.008 A 
HETATM    2  C4  UNL     1     -23.563   9.316  50.186  1.00  0.00     0.006 A 
HETATM    3  C14 UNL     1     -22.315   9.534  50.823  1.00  0.00     0.047 A 
HETATM    4  N5  UNL     1     -21.362  10.158  50.115  1.00  0.00    -0.316 N 
HETATM    5  C22 UNL     1     -20.192  10.420  50.557  1.00  0.00     0.130 C 
HETATM    6  C23 UNL     1     -21.580  10.578  48.808  1.00  0.00     0.139 A 
HETATM    7  N6  UNL     1     -20.788  11.211  47.927  1.00  0.00    -0.284 N 
ATOM      8  H6  UNL     1     -19.826  11.506  48.099  1.00  0.00     0.188 HD
HETATM    9  N7  UNL     1     -21.449  11.390  46.814  1.00  0.00    -0.302 N 
ATOM     10  H7  UNL     1     -21.080  11.846  45.979  1.00  0.00     0.186 HD
HETATM   11  C24 UNL     1     -22.706  10.873  46.937  1.00  0.00     0.041 A 
HETATM   12  C29 UNL     1     -22.815  10.343  48.223  1.00  0.00     0.045 A 
ENDROOT
BRANCH   2  13
HETATM   13  C5  UNL     1     -24.611   8.643  50.985  1.00  0.00     0.063 C 
BRANCH  13  14
HETATM   14  C6  UNL     1     -25.438   9.415  51.644  1.00  0.00     0.109 A 
HETATM   15  N1  UNL     1     -26.135  10.538  51.436  1.00  0.00    -0.328 N 
HETATM   16  C7  UNL     1     -26.654  10.509  52.666  1.00  0.00     0.110 A 
ATOM     17  H1  UNL     1     -26.232  11.172  50.643  1.00  0.00     0.169 HD
HETATM   18  C8  UNL     1     -27.490  11.267  53.361  1.00  0.00    -0.036 C 
HETATM   19  N2  UNL     1     -25.957   9.380  52.885  1.00  0.00    -0.328 N 
HETATM   20  C9  UNL     1     -28.103  12.492  52.792  1.00  0.00     0.038 C 
HETATM   21  C13 UNL     1     -27.857  10.914  54.757  1.00  0.00     0.038 C 
HETATM   22  C10 UNL     1     -29.452  12.708  53.446  1.00  0.00     0.004 C 
HETATM   23  C11 UNL     1     -30.079  11.360  53.693  1.00  0.00     0.001 C 
HETATM   24  C12 UNL     1     -29.344  10.592  54.772  1.00  0.00     0.004 C 
ATOM     25  H2  UNL     1     -25.861   8.747  53.679  1.00  0.00     0.169 HD
ENDBRANCH  13  14
ENDBRANCH   2  13
BRANCH   1  26
HETATM   26  C2  UNL     1     -25.111   9.456  48.302  1.00  0.00     0.003 C 
HETATM   27  C1  UNL     1     -25.539   8.252  47.937  1.00  0.00     0.012 C 
ENDBRANCH   1  26
BRANCH   3  28
HETATM   28  C15 UNL     1     -22.166   9.124  52.039  1.00  0.00     0.006 C 
BRANCH  28  29
HETATM   29  C16 UNL     1     -22.308   9.659  53.373  1.00  0.00     0.049 C 
BRANCH  29  30
HETATM   30  C17 UNL     1     -20.927  10.114  53.935  1.00  0.00     0.133 C 
BRANCH  30  31
HETATM   31  N3  UNL     1     -21.017  11.556  54.177  1.00  0.00    -0.351 N 
HETATM   32  C18 UNL     1     -21.777  12.206  55.070  1.00  0.00     0.109 A 
HETATM   33  C19 UNL     1     -21.535  13.563  54.943  1.00  0.00     0.117 A 
HETATM   34  N4  UNL     1     -20.620  13.739  53.966  1.00  0.00    -0.295 N 
HETATM   35  C21 UNL     1     -20.327  12.507  53.522  1.00  0.00     0.192 A 
BRANCH  34  36
HETATM   36  C20 UNL     1     -20.076  14.972  53.498  1.00  0.00     0.360 C 
HETATM   37  O1  UNL     1     -20.453  15.403  52.385  1.00  0.00    -0.283 OA
ENDBRANCH  34  36
ENDBRANCH  30  31
ENDBRANCH  29  30
ENDBRANCH  28  29
ENDBRANCH   3  28
BRANCH  11  38
HETATM   38  C25 UNL     1     -23.693  10.856  45.848  1.00  0.00     0.064 C 
BRANCH  38  39
HETATM   39  C26 UNL     1     -23.539  12.007  44.856  1.00  0.00    -0.009 A 
HETATM   40  C27 UNL     1     -24.825  12.524  44.234  1.00  0.00     0.005 A 
HETATM   41  C28 UNL     1     -24.005  13.369  45.147  1.00  0.00     0.005 A 
ENDBRANCH  38  39
ENDBRANCH  11  38
TORSDOF 10
ENDMDL
MODEL 2
REMARK VINA RESULT: -7.439136101      0.822      1.035
REMARK  10 active torsions:
REMARK  status: ('A' for Active; 'I' for Inactive)
REMARK    1  A    between atoms: C2_2  and  C3_3 
REMARK    2  A    between atoms: C4_4  and  C5_5 
REMARK    3  A    between atoms: C5_5  and  C6_6 
REMARK    4  A    between atoms: C14_18  and  C15_19 
REMARK    5  A    between atoms: C15_19  and  C16_20 
REMARK    6  A    between atoms: C16_20  and  C17_21 
REMARK    7  A    between atoms: C17_21  and  N3_22 
REMARK    8  A    between atoms: N4_25  and  C20_26 
REMARK    9  A    between atoms: C24_36  and  C25_37 
REMARK   10  A    between atoms: C25_37  and  C26_38 
ROOT
HETATM    1  C3  UNL     1     -23.738   9.725  48.756  1.00  0.00    -0.008 A 
HETATM    2  C4  UNL     1     -23.430   9.261  50.000  1.00  0.00     0.006 A 
HETATM    3  C14 UNL     1     -22.148   9.419  50.583  1.00  0.00     0.047 A 
HETATM    4  N5  UNL     1     -21.214  10.055  49.859  1.00  0.00    -0.316 N 
HETATM    5  C22 UNL     1     -20.017  10.267  50.254  1.00  0.00     0.130 C 
HETATM    6  C23 UNL     1     -21.486  10.543  48.587  1.00  0.00     0.139 A 
HETATM    7  N6  UNL     1     -20.722  11.200  47.698  1.00  0.00    -0.284 N 
ATOM      8  H6  UNL     1     -19.746  11.463  47.835  1.00  0.00     0.188 HD
HETATM    9  N7  UNL     1     -21.431  11.448  46.630  1.00  0.00    -0.302 N 
ATOM     10  H7  UNL     1     -21.092  11.937  45.800  1.00  0.00     0.186 HD
HETATM   11  C24 UNL     1     -22.694  10.956  46.791  1.00  0.00     0.041 A 
HETATM   12  C29 UNL     1     -22.754  10.366  48.054  1.00  0.00     0.045 A 
ENDROOT
BRANCH   2  13
HETATM   13  C5  UNL     1     -24.454   8.575  50.818  1.00  0.00     0.063 C 
BRANCH  13  14
HETATM   14  C6  UNL     1     -25.267   9.335  51.507  1.00  0.00     0.109 A 
HETATM   15  N1  UNL     1     -25.983  10.451  51.326  1.00  0.00    -0.328 N 
HETATM   16  C7  UNL     1     -26.460  10.413  52.573  1.00  0.00     0.110 A 
ATOM     17  H1  UNL     1     -26.114  11.086  50.539  1.00  0.00     0.169 HD
HETATM   18  C8  UNL     1     -27.281  11.159  53.298  1.00  0.00    -0.036 C 
HETATM   19  N2  UNL     1     -25.744   9.291  52.765  1.00  0.00    -0.328 N 
HETATM   20  C9  UNL     1     -27.926  12.379  52.755  1.00  0.00     0.038 C 
HETATM   21  C13 UNL     1     -27.597  10.798  54.705  1.00  0.00     0.038 C 
HETATM   22  C10 UNL     1     -29.255  12.577  53.454  1.00  0.00     0.004 C 
HETATM   23  C11 UNL     1     -29.859  11.222  53.718  1.00  0.00     0.001 C 
HETATM   24  C12 UNL     1     -29.079  10.459  54.769  1.00  0.00     0.004 C 
ATOM     25  H2  UNL     1     -25.614   8.657  53.553  1.00  0.00     0.169 HD
ENDBRANCH  13  14
ENDBRANCH   2  13
BRANCH   1  26
HETATM   26  C2  UNL     1     -25.065   9.530  48.205  1.00  0.00     0.003 C 
HETATM   27  C1  UNL     1     -25.526   8.363  47.767  1.00  0.00     0.012 C 
ENDBRANCH   1  26
BRANCH   3  28
HETATM   28  C15 UNL     1     -21.950   8.946  51.770  1.00  0.00     0.006 C 
BRANCH  28  29
HETATM   29  C16 UNL     1     -21.389   9.399  53.022  1.00  0.00     0.049 C 
BRANCH  29  30
HETATM   30  C17 UNL     1     -22.403  10.300  53.788  1.00  0.00     0.133 C 
BRANCH  30  31
HETATM   31  N3  UNL     1     -21.763  11.606  53.971  1.00  0.00    -0.351 N 
HETATM   32  C18 UNL     1     -20.775  12.158  53.254  1.00  0.00     0.109 A 
HETATM   33  C19 UNL     1     -20.492  13.402  53.788  1.00  0.00     0.117 A 
HETATM   34  N4  UNL     1     -21.315  13.608  54.839  1.00  0.00    -0.295 N 
HETATM   35  C21 UNL     1     -22.073  12.504  54.924  1.00  0.00     0.192 A 
BRANCH  34  36
HETATM   36  C20 UNL     1     -21.373  14.756  55.684  1.00  0.00     0.360 C 
HETATM   37  O1  UNL     1     -22.399  15.473  55.640  1.00  0.00    -0.283 OA
ENDBRANCH  34  36
ENDBRANCH  30  31
ENDBRANCH  29  30
ENDBRANCH  28  29
ENDBRANCH   3  28
BRANCH  11  38
HETATM   38  C25 UNL     1     -23.733  11.015  45.753  1.00  0.00     0.064 C 
BRANCH  38  39
HETATM   39  C26 UNL     1     -23.545  12.154  44.753  1.00  0.00    -0.009 A 
HETATM   40  C27 UNL     1     -24.807  12.889  44.339  1.00  0.00     0.005 A 
HETATM   41  C28 UNL     1     -23.731  13.564  45.117  1.00  0.00     0.005 A 
ENDBRANCH  38  39
ENDBRANCH  11  38
TORSDOF 10
ENDMDL
MODEL 3
REMARK VINA RESULT: -7.309735255      1.357      1.578
REMARK  10 active torsions:
REMARK  status: ('A' for Active; 'I' for Inactive)
REMARK    1  A    between atoms: C2_2  and  C3_3 
REMARK    2  A    between atoms: C4_4  and  C5_5 
REMARK    3  A    between atoms: C5_5  and  C6_6 
REMARK    4  A    between atoms: C14_18  and  C15_19 
REMARK    5  A    between atoms: C15_19  and  C16_20 
REMARK    6  A    between atoms: C16_20  and  C17_21 
REMARK    7  A    between atoms: C17_21  and  N3_22 
REMARK    8  A    between atoms: N4_25  and  C20_26 
REMARK    9  A    between atoms: C24_36  and  C25_37 
REMARK   10  A    between atoms: C25_37  and  C26_38 
ROOT
HETATM    1  C3  UNL     1     -23.862   9.670  48.966  1.00  0.00    -0.008 A 
HETATM    2  C4  UNL     1     -23.629   9.277  50.250  1.00  0.00     0.006 A 
HETATM    3  C14 UNL     1     -22.391   9.490  50.906  1.00  0.00     0.047 A 
HETATM    4  N5  UNL     1     -21.423  10.107  50.212  1.00  0.00    -0.316 N 
HETATM    5  C22 UNL     1     -20.258  10.364  50.672  1.00  0.00     0.130 C 
HETATM    6  C23 UNL     1     -21.618  10.525  48.901  1.00  0.00     0.139 A 
HETATM    7  N6  UNL     1     -20.809  11.151  48.031  1.00  0.00    -0.284 N 
ATOM      8  H6  UNL     1     -19.848  11.441  48.217  1.00  0.00     0.188 HD
HETATM    9  N7  UNL     1     -21.450  11.330  46.907  1.00  0.00    -0.302 N 
ATOM     10  H7  UNL     1     -21.066  11.783  46.077  1.00  0.00     0.186 HD
HETATM   11  C24 UNL     1     -22.712  10.821  47.011  1.00  0.00     0.041 A 
HETATM   12  C29 UNL     1     -22.845  10.295  48.297  1.00  0.00     0.045 A 
ENDROOT
BRANCH   2  13
HETATM   13  C5  UNL     1     -24.694   8.612  51.034  1.00  0.00     0.063 C 
BRANCH  13  14
HETATM   14  C6  UNL     1     -25.519   9.390  51.688  1.00  0.00     0.109 A 
HETATM   15  N1  UNL     1     -26.199  10.522  51.480  1.00  0.00    -0.328 N 
HETATM   16  C7  UNL     1     -26.733  10.493  52.703  1.00  0.00     0.110 A 
ATOM     17  H1  UNL     1     -26.279  11.163  50.690  1.00  0.00     0.169 HD
HETATM   18  C8  UNL     1     -27.568  11.256  53.394  1.00  0.00    -0.036 C 
HETATM   19  N2  UNL     1     -26.053   9.353  52.923  1.00  0.00    -0.328 N 
HETATM   20  C9  UNL     1     -28.159  12.493  52.826  1.00  0.00     0.038 C 
HETATM   21  C13 UNL     1     -27.956  10.899  54.783  1.00  0.00     0.038 C 
HETATM   22  C10 UNL     1     -29.513  12.720  53.465  1.00  0.00     0.004 C 
HETATM   23  C11 UNL     1     -30.160  11.379  53.696  1.00  0.00     0.001 C 
HETATM   24  C12 UNL     1     -29.446  10.595  54.779  1.00  0.00     0.004 C 
ATOM     25  H2  UNL     1     -25.973   8.714  53.714  1.00  0.00     0.169 HD
ENDBRANCH  13  14
ENDBRANCH   2  13
BRANCH   1  26
HETATM   26  C2  UNL     1     -25.147   9.420  48.341  1.00  0.00     0.003 C 
HETATM   27  C1  UNL     1     -25.555   8.226  47.927  1.00  0.00     0.012 C 
ENDBRANCH   1  26
BRANCH   3  28
HETATM   28  C15 UNL     1     -22.264   9.082  52.126  1.00  0.00     0.006 C 
BRANCH  28  29
HETATM   29  C16 UNL     1     -22.478   9.603  53.456  1.00  0.00     0.049 C 
BRANCH  29  30
HETATM   30  C17 UNL     1     -21.120   9.941  54.142  1.00  0.00     0.133 C 
BRANCH  30  31
HETATM   31  N3  UNL     1     -21.287  11.235  54.808  1.00  0.00    -0.351 N 
HETATM   32  C18 UNL     1     -21.358  12.454  54.257  1.00  0.00     0.109 A 
HETATM   33  C19 UNL     1     -21.517  13.383  55.270  1.00  0.00     0.117 A 
HETATM   34  N4  UNL     1     -21.542  12.723  56.447  1.00  0.00    -0.295 N 
HETATM   35  C21 UNL     1     -21.401  11.425  56.135  1.00  0.00     0.192 A 
BRANCH  34  36
HETATM   36  C20 UNL     1     -21.689  13.281  57.752  1.00  0.00     0.360 C 
HETATM   37  O1  UNL     1     -22.461  12.711  58.557  1.00  0.00    -0.283 OA
ENDBRANCH  34  36
ENDBRANCH  30  31
ENDBRANCH  29  30
ENDBRANCH  28  29
ENDBRANCH   3  28
BRANCH  11  38
HETATM   38  C25 UNL     1     -23.681  10.807  45.907  1.00  0.00     0.064 C 
BRANCH  38  39
HETATM   39  C26 UNL     1     -23.502  11.950  44.910  1.00  0.00    -0.009 A 
HETATM   40  C27 UNL     1     -24.767  12.443  44.231  1.00  0.00     0.005 A 
HETATM   41  C28 UNL     1     -23.997  13.308  45.169  1.00  0.00     0.005 A 
ENDBRANCH  38  39
ENDBRANCH  11  38
TORSDOF 10
ENDMDL
MODEL 4
REMARK VINA RESULT: -7.065395053      2.401      3.273
REMARK  10 active torsions:
REMARK  status: ('A' for Active; 'I' for Inactive)
REMARK    1  A    between atoms: C2_2  and  C3_3 
REMARK    2  A    between atoms: C4_4  and  C5_5 
REMARK    3  A    between atoms: C5_5  and  C6_6 
REMARK    4  A    between atoms: C14_18  and  C15_19 
REMARK    5  A    between atoms: C15_19  and  C16_20 
REMARK    6  A    between atoms: C16_20  and  C17_21 
REMARK    7  A    between atoms: C17_21  and  N3_22 
REMARK    8  A    between atoms: N4_25  and  C20_26 
REMARK    9  A    between atoms: C24_36  and  C25_37 
REMARK   10  A    between atoms: C25_37  and  C26_38 
ROOT
HETATM    1  C3  UNL     1     -23.823   9.709  48.922  1.00  0.00    -0.008 A 
HETATM    2  C4  UNL     1     -23.612   9.312  50.209  1.00  0.00     0.006 A 
HETATM    3  C14 UNL     1     -22.382   9.518  50.884  1.00  0.00     0.047 A 
HETATM    4  N5  UNL     1     -21.401  10.131  50.206  1.00  0.00    -0.316 N 
HETATM    5  C22 UNL     1     -20.242  10.381  50.684  1.00  0.00     0.130 C 
HETATM    6  C23 UNL     1     -21.574  10.552  48.892  1.00  0.00     0.139 A 
HETATM    7  N6  UNL     1     -20.749  11.176  48.036  1.00  0.00    -0.284 N 
ATOM      8  H6  UNL     1     -19.789  11.461  48.237  1.00  0.00     0.188 HD
HETATM    9  N7  UNL     1     -21.372  11.361  46.903  1.00  0.00    -0.302 N 
ATOM     10  H7  UNL     1     -20.973  11.813  46.080  1.00  0.00     0.186 HD
HETATM   11  C24 UNL     1     -22.638  10.858  46.987  1.00  0.00     0.041 A 
HETATM   12  C29 UNL     1     -22.793  10.330  48.269  1.00  0.00     0.045 A 
ENDROOT
BRANCH   2  13
HETATM   13  C5  UNL     1     -24.691   8.651  50.975  1.00  0.00     0.063 C 
BRANCH  13  14
HETATM   14  C6  UNL     1     -25.506   9.431  51.640  1.00  0.00     0.109 A 
HETATM   15  N1  UNL     1     -26.193  10.561  51.437  1.00  0.00    -0.328 N 
HETATM   16  C7  UNL     1     -26.705  10.537  52.670  1.00  0.00     0.110 A 
ATOM     17  H1  UNL     1     -26.288  11.197  50.645  1.00  0.00     0.169 HD
HETATM   18  C8  UNL     1     -27.530  11.302  53.370  1.00  0.00    -0.036 C 
HETATM   19  N2  UNL     1     -26.019   9.400  52.884  1.00  0.00    -0.328 N 
HETATM   20  C9  UNL     1     -28.133  12.534  52.806  1.00  0.00     0.038 C 
HETATM   21  C13 UNL     1     -27.892  10.951  54.768  1.00  0.00     0.038 C 
HETATM   22  C10 UNL     1     -29.476  12.763  53.467  1.00  0.00     0.004 C 
HETATM   23  C11 UNL     1     -30.116  11.421  53.717  1.00  0.00     0.001 C 
HETATM   24  C12 UNL     1     -29.382  10.644  54.791  1.00  0.00     0.004 C 
ATOM     25  H2  UNL     1     -25.924   8.765  53.677  1.00  0.00     0.169 HD
ENDBRANCH  13  14
ENDBRANCH   2  13
BRANCH   1  26
HETATM   26  C2  UNL     1     -25.099   9.467  48.277  1.00  0.00     0.003 C 
HETATM   27  C1  UNL     1     -25.536   8.266  47.914  1.00  0.00     0.012 C 
ENDBRANCH   1  26
BRANCH   3  28
HETATM   28  C15 UNL     1     -22.275   9.107  52.104  1.00  0.00     0.006 C 
BRANCH  28  29
HETATM   29  C16 UNL     1     -22.338   9.671  53.432  1.00  0.00     0.049 C 
BRANCH  29  30
HETATM   30  C17 UNL     1     -22.039   8.585  54.509  1.00  0.00     0.133 C 
BRANCH  30  31
HETATM   31  N3  UNL     1     -23.332   8.089  54.988  1.00  0.00    -0.351 N 
HETATM   32  C18 UNL     1     -23.949   6.939  54.684  1.00  0.00     0.109 A 
HETATM   33  C19 UNL     1     -25.149   6.892  55.371  1.00  0.00     0.117 A 
HETATM   34  N4  UNL     1     -25.262   8.023  56.099  1.00  0.00    -0.295 N 
HETATM   35  C21 UNL     1     -24.148   8.727  55.847  1.00  0.00     0.192 A 
BRANCH  34  36
HETATM   36  C20 UNL     1     -26.337   8.397  56.959  1.00  0.00     0.360 C 
HETATM   37  O1  UNL     1     -26.215   9.440  57.642  1.00  0.00    -0.283 OA
ENDBRANCH  34  36
ENDBRANCH  30  31
ENDBRANCH  29  30
ENDBRANCH  28  29
ENDBRANCH   3  28
BRANCH  11  38
HETATM   38  C25 UNL     1     -23.591  10.851  45.868  1.00  0.00     0.064 C 
BRANCH  38  39
HETATM   39  C26 UNL     1     -23.469  12.059  44.943  1.00  0.00    -0.009 A 
HETATM   40  C27 UNL     1     -24.747  12.496  44.248  1.00  0.00     0.005 A 
HETATM   41  C28 UNL     1     -24.073  13.360  45.258  1.00  0.00     0.005 A 
ENDBRANCH  38  39
ENDBRANCH  11  38
TORSDOF 10
ENDMDL
MODEL 5
REMARK VINA RESULT: -7.038348667      1.960      2.176
REMARK  10 active torsions:
REMARK  status: ('A' for Active; 'I' for Inactive)
REMARK    1  A    between atoms: C2_2  and  C3_3 
REMARK    2  A    between atoms: C4_4  and  C5_5 
REMARK    3  A    between atoms: C5_5  and  C6_6 
REMARK    4  A    between atoms: C14_18  and  C15_19 
REMARK    5  A    between atoms: C15_19  and  C16_20 
REMARK    6  A    between atoms: C16_20  and  C17_21 
REMARK    7  A    between atoms: C17_21  and  N3_22 
REMARK    8  A    between atoms: N4_25  and  C20_26 
REMARK    9  A    between atoms: C24_36  and  C25_37 
REMARK   10  A    between atoms: C25_37  and  C26_38 
ROOT
HETATM    1  C3  UNL     1     -23.859   9.679  48.882  1.00  0.00    -0.008 A 
HETATM    2  C4  UNL     1     -23.631   9.276  50.164  1.00  0.00     0.006 A 
HETATM    3  C14 UNL     1     -22.394   9.483  50.825  1.00  0.00     0.047 A 
HETATM    4  N5  UNL     1     -21.423  10.103  50.138  1.00  0.00    -0.316 N 
HETATM    5  C22 UNL     1     -20.259  10.354  50.603  1.00  0.00     0.130 C 
HETATM    6  C23 UNL     1     -21.613  10.529  48.829  1.00  0.00     0.139 A 
HETATM    7  N6  UNL     1     -20.800  11.159  47.965  1.00  0.00    -0.284 N 
ATOM      8  H6  UNL     1     -19.839  11.445  48.156  1.00  0.00     0.188 HD
HETATM    9  N7  UNL     1     -21.438  11.347  46.841  1.00  0.00    -0.302 N 
ATOM     10  H7  UNL     1     -21.050  11.803  46.015  1.00  0.00     0.186 HD
HETATM   11  C24 UNL     1     -22.701  10.839  46.938  1.00  0.00     0.041 A 
HETATM   12  C29 UNL     1     -22.839  10.305  48.220  1.00  0.00     0.045 A 
ENDROOT
BRANCH   2  13
HETATM   13  C5  UNL     1     -24.698   8.609  50.941  1.00  0.00     0.063 C 
BRANCH  13  14
HETATM   14  C6  UNL     1     -25.512   9.383  51.614  1.00  0.00     0.109 A 
HETATM   15  N1  UNL     1     -26.192  10.520  51.426  1.00  0.00    -0.328 N 
HETATM   16  C7  UNL     1     -26.707  10.481  52.657  1.00  0.00     0.110 A 
ATOM     17  H1  UNL     1     -26.282  11.167  50.642  1.00  0.00     0.169 HD
HETATM   18  C8  UNL     1     -27.530  11.241  53.366  1.00  0.00    -0.036 C 
HETATM   19  N2  UNL     1     -26.027   9.338  52.857  1.00  0.00    -0.328 N 
HETATM   20  C9  UNL     1     -28.126  12.484  52.818  1.00  0.00     0.038 C 
HETATM   21  C13 UNL     1     -27.897  10.873  54.758  1.00  0.00     0.038 C 
HETATM   22  C10 UNL     1     -29.469  12.709  53.479  1.00  0.00     0.004 C 
HETATM   23  C11 UNL     1     -30.116  11.368  53.709  1.00  0.00     0.001 C 
HETATM   24  C12 UNL     1     -29.389  10.573  54.774  1.00  0.00     0.004 C 
ATOM     25  H2  UNL     1     -25.938   8.692  53.641  1.00  0.00     0.169 HD
ENDBRANCH  13  14
ENDBRANCH   2  13
BRANCH   1  26
HETATM   26  C2  UNL     1     -25.142   9.435  48.252  1.00  0.00     0.003 C 
HETATM   27  C1  UNL     1     -25.619   8.227  47.972  1.00  0.00     0.012 C 
ENDBRANCH   1  26
BRANCH   3  28
HETATM   28  C15 UNL     1     -22.271   9.068  52.043  1.00  0.00     0.006 C 
BRANCH  28  29
HETATM   29  C16 UNL     1     -22.260   9.635  53.371  1.00  0.00     0.049 C 
BRANCH  29  30
HETATM   30  C17 UNL     1     -22.716   8.582  54.425  1.00  0.00     0.133 C 
BRANCH  30  31
HETATM   31  N3  UNL     1     -22.635   9.228  55.739  1.00  0.00    -0.351 N 
HETATM   32  C18 UNL     1     -23.057   8.764  56.923  1.00  0.00     0.109 A 
HETATM   33  C19 UNL     1     -22.773   9.713  57.889  1.00  0.00     0.117 A 
HETATM   34  N4  UNL     1     -22.174  10.762  57.287  1.00  0.00    -0.295 N 
HETATM   35  C21 UNL     1     -22.104  10.439  55.986  1.00  0.00     0.192 A 
BRANCH  34  36
HETATM   36  C20 UNL     1     -21.709  11.964  57.898  1.00  0.00     0.360 C 
HETATM   37  O1  UNL     1     -22.524  12.649  58.557  1.00  0.00    -0.283 OA
ENDBRANCH  34  36
ENDBRANCH  30  31
ENDBRANCH  29  30
ENDBRANCH  28  29
ENDBRANCH   3  28
BRANCH  11  38
HETATM   38  C25 UNL     1     -23.667  10.834  45.831  1.00  0.00     0.064 C 
BRANCH  38  39
HETATM   39  C26 UNL     1     -23.523  12.018  44.877  1.00  0.00    -0.009 A 
HETATM   40  C27 UNL     1     -24.808  12.520  44.243  1.00  0.00     0.005 A 
HETATM   41  C28 UNL     1     -24.031  13.358  45.199  1.00  0.00     0.005 A 
ENDBRANCH  38  39
ENDBRANCH  11  38
TORSDOF 10
ENDMDL
