MODEL 1
REMARK VINA RESULT: -4.986946166      0.000      0.000
REMARK  8 active torsions:
REMARK  status: ('A' for Active; 'I' for Inactive)
REMARK    1  A    between atoms: C3_3  and  C4_4 
REMARK    2  A    between atoms: C6_9  and  C7_10 
REMARK    3  A    between atoms: C7_10  and  C8_11 
REMARK    4  A    between atoms: C12_18  and  C13_19 
REMARK    5  A    between atoms: C13_19  and  C14_20 
REMARK    6  A    between atoms: C14_20  and  N3_21 
REMARK    7  A    between atoms: C19_29  and  C20_30 
REMARK    8  A    between atoms: C22_32  and  C23_33 
ROOT
HETATM    1  C4  UNL     1     -25.369   9.859  53.527  1.00  0.00     0.199 C 
HETATM    2  N1  UNL     1     -26.064   8.685  53.026  1.00  0.00    -0.343 N 
ATOM      3  H1  UNL     1     -27.000   8.537  53.402  1.00  0.00     0.163 HD
HETATM    4  C5  UNL     1     -25.634   7.739  52.113  1.00  0.00     0.241 C 
HETATM    5  O1  UNL     1     -25.571   6.524  52.552  1.00  0.00    -0.271 OA
HETATM    6  C6  UNL     1     -25.228   7.899  50.695  1.00  0.00     0.177 C 
HETATM    7  N2  UNL     1     -24.869   9.243  50.326  1.00  0.00    -0.346 N 
ATOM      8  H2  UNL     1     -25.629   9.919  50.238  1.00  0.00     0.163 HD
HETATM    9  C11 UNL     1     -23.557   9.714  50.074  1.00  0.00     0.241 C 
HETATM   10  O2  UNL     1     -23.457  10.741  49.364  1.00  0.00    -0.271 OA
HETATM   11  C12 UNL     1     -22.334   9.098  50.578  1.00  0.00     0.178 C 
HETATM   12  N4  UNL     1     -21.614  10.140  51.287  1.00  0.00    -0.347 N 
ATOM     13  H4  UNL     1     -21.082  10.795  50.715  1.00  0.00     0.163 HD
HETATM   14  C18 UNL     1     -21.572  10.341  52.668  1.00  0.00     0.224 C 
HETATM   15  O3  UNL     1     -21.832  11.535  53.087  1.00  0.00    -0.273 OA
HETATM   16  C19 UNL     1     -21.272   9.389  53.738  1.00  0.00     0.100 C 
HETATM   17  C22 UNL     1     -22.403   8.723  54.402  1.00  0.00     0.099 C 
HETATM   18  N5  UNL     1     -23.349   9.516  55.130  1.00  0.00    -0.349 N 
HETATM   19  C25 UNL     1     -22.854  10.265  56.265  1.00  0.00     0.153 C 
HETATM   20  C26 UNL     1     -24.734   9.622  54.858  1.00  0.00     0.246 C 
HETATM   21  O4  UNL     1     -25.596   9.513  55.809  1.00  0.00    -0.271 OA
ENDROOT
BRANCH  11  22
HETATM   22  C13 UNL     1     -21.509   8.535  49.475  1.00  0.00     0.063 C 
BRANCH  22  23
HETATM   23  C14 UNL     1     -20.238   9.259  49.189  1.00  0.00     0.238 C 
BRANCH  23  24
HETATM   24  N3  UNL     1     -20.179   9.634  47.773  1.00  0.00    -0.079 N 
HETATM   25  C15 UNL     1     -18.899   9.287  47.184  1.00  0.00     0.271 C 
HETATM   26  C16 UNL     1     -20.371  11.063  47.600  1.00  0.00     0.271 C 
HETATM   27  C17 UNL     1     -21.205   8.960  47.012  1.00  0.00     0.271 C 
ENDBRANCH  23  24
ENDBRANCH  22  23
ENDBRANCH  11  22
BRANCH   6  28
HETATM   28  C7  UNL     1     -26.349   7.510  49.738  1.00  0.00     0.038 C 
BRANCH  28  29
HETATM   29  C8  UNL     1     -25.970   6.508  48.707  1.00  0.00    -0.020 C 
HETATM   30  C9  UNL     1     -26.889   5.309  48.641  1.00  0.00     0.009 C 
HETATM   31  C10 UNL     1     -24.591   5.931  49.065  1.00  0.00     0.009 C 
ENDBRANCH  28  29
ENDBRANCH   6  28
BRANCH  16  32
HETATM   32  C20 UNL     1     -20.255  10.055  54.637  1.00  0.00     0.012 C 
HETATM   33  C21 UNL     1     -18.864   9.744  54.056  1.00  0.00     0.006 C 
ENDBRANCH  16  32
BRANCH  17  34
HETATM   34  C23 UNL     1     -21.833   7.601  55.294  1.00  0.00     0.022 C 
HETATM   35  C24 UNL     1     -21.395   6.501  54.345  1.00  0.00     0.007 C 
ENDBRANCH  17  34
BRANCH   1  36
HETATM   36  C3  UNL     1     -26.414  10.929  53.793  1.00  0.00     0.003 C 
HETATM   37  C2  UNL     1     -27.165  11.370  52.814  1.00  0.00    -0.033 C 
HETATM   38  C1  UNL     1     -28.204  12.407  52.986  1.00  0.00     0.036 C 
ENDBRANCH   1  36
TORSDOF 8
ENDMDL
MODEL 2
REMARK VINA RESULT: -4.880065873      3.156      8.242
REMARK  8 active torsions:
REMARK  status: ('A' for Active; 'I' for Inactive)
REMARK    1  A    between atoms: C3_3  and  C4_4 
REMARK    2  A    between atoms: C6_9  and  C7_10 
REMARK    3  A    between atoms: C7_10  and  C8_11 
REMARK    4  A    between atoms: C12_18  and  C13_19 
REMARK    5  A    between atoms: C13_19  and  C14_20 
REMARK    6  A    between atoms: C14_20  and  N3_21 
REMARK    7  A    between atoms: C19_29  and  C20_30 
REMARK    8  A    between atoms: C22_32  and  C23_33 
ROOT
HETATM    1  C4  UNL     1     -25.758   7.434  49.896  1.00  0.00     0.199 C 
HETATM    2  N1  UNL     1     -24.527   7.427  50.670  1.00  0.00    -0.343 N 
ATOM      3  H1  UNL     1     -23.672   7.287  50.131  1.00  0.00     0.163 HD
HETATM    4  C5  UNL     1     -24.352   7.583  52.033  1.00  0.00     0.241 C 
HETATM    5  O1  UNL     1     -23.796   6.588  52.644  1.00  0.00    -0.271 OA
HETATM    6  C6  UNL     1     -24.704   8.724  52.914  1.00  0.00     0.177 C 
HETATM    7  N2  UNL     1     -25.689   9.619  52.367  1.00  0.00    -0.346 N 
ATOM      8  H2  UNL     1     -25.389  10.232  51.608  1.00  0.00     0.163 HD
HETATM    9  C11 UNL     1     -27.039   9.725  52.784  1.00  0.00     0.241 C 
HETATM   10  O2  UNL     1     -27.621  10.806  52.529  1.00  0.00    -0.271 OA
HETATM   11  C12 UNL     1     -27.788   8.681  53.475  1.00  0.00     0.178 C 
HETATM   12  N4  UNL     1     -28.982   8.444  52.685  1.00  0.00    -0.347 N 
ATOM     13  H4  UNL     1     -29.745   9.109  52.804  1.00  0.00     0.163 HD
HETATM   14  C18 UNL     1     -29.198   7.402  51.781  1.00  0.00     0.224 C 
HETATM   15  O3  UNL     1     -29.620   7.734  50.606  1.00  0.00    -0.273 OA
HETATM   16  C19 UNL     1     -29.015   5.961  51.961  1.00  0.00     0.100 C 
HETATM   17  C22 UNL     1     -27.741   5.370  51.525  1.00  0.00     0.099 C 
HETATM   18  N5  UNL     1     -27.387   5.422  50.138  1.00  0.00    -0.349 N 
HETATM   19  C25 UNL     1     -28.260   4.744  49.204  1.00  0.00     0.153 C 
HETATM   20  C26 UNL     1     -26.248   6.058  49.590  1.00  0.00     0.246 C 
HETATM   21  O4  UNL     1     -25.508   5.444  48.732  1.00  0.00    -0.271 OA
ENDROOT
BRANCH  11  22
HETATM   22  C13 UNL     1     -28.138   9.086  54.864  1.00  0.00     0.063 C 
BRANCH  22  23
HETATM   23  C14 UNL     1     -29.596   9.203  55.151  1.00  0.00     0.238 C 
BRANCH  23  24
HETATM   24  N3  UNL     1     -29.920  10.571  55.565  1.00  0.00    -0.079 N 
HETATM   25  C15 UNL     1     -30.280  11.399  54.429  1.00  0.00     0.271 C 
HETATM   26  C16 UNL     1     -28.792  11.200  56.229  1.00  0.00     0.271 C 
HETATM   27  C17 UNL     1     -31.033  10.589  56.486  1.00  0.00     0.271 C 
ENDBRANCH  23  24
ENDBRANCH  22  23
ENDBRANCH  11  22
BRANCH   6  28
HETATM   28  C7  UNL     1     -23.494   9.601  53.216  1.00  0.00     0.038 C 
BRANCH  28  29
HETATM   29  C8  UNL     1     -23.617  10.434  54.441  1.00  0.00    -0.020 C 
HETATM   30  C9  UNL     1     -22.367  11.211  54.790  1.00  0.00     0.009 C 
HETATM   31  C10 UNL     1     -23.856   9.507  55.644  1.00  0.00     0.009 C 
ENDBRANCH  28  29
ENDBRANCH   6  28
BRANCH  16  32
HETATM   32  C20 UNL     1     -30.277   5.299  51.456  1.00  0.00     0.012 C 
HETATM   33  C21 UNL     1     -31.245   5.198  52.649  1.00  0.00     0.006 C 
ENDBRANCH  16  32
BRANCH  17  34
HETATM   34  C23 UNL     1     -27.691   3.919  52.046  1.00  0.00     0.022 C 
HETATM   35  C24 UNL     1     -27.477   4.025  53.544  1.00  0.00     0.007 C 
ENDBRANCH  17  34
BRANCH   1  36
HETATM   36  C3  UNL     1     -25.438   8.032  48.536  1.00  0.00     0.003 C 
HETATM   37  C2  UNL     1     -24.539   8.979  48.431  1.00  0.00    -0.033 C 
HETATM   38  C1  UNL     1     -24.168   9.614  47.148  1.00  0.00     0.036 C 
ENDBRANCH   1  36
TORSDOF 8
ENDMDL
MODEL 3
REMARK VINA RESULT: -4.830547895      3.899      6.444
REMARK  8 active torsions:
REMARK  status: ('A' for Active; 'I' for Inactive)
REMARK    1  A    between atoms: C3_3  and  C4_4 
REMARK    2  A    between atoms: C6_9  and  C7_10 
REMARK    3  A    between atoms: C7_10  and  C8_11 
REMARK    4  A    between atoms: C12_18  and  C13_19 
REMARK    5  A    between atoms: C13_19  and  C14_20 
REMARK    6  A    between atoms: C14_20  and  N3_21 
REMARK    7  A    between atoms: C19_29  and  C20_30 
REMARK    8  A    between atoms: C22_32  and  C23_33 
ROOT
HETATM    1  C4  UNL     1     -21.767   9.847  49.552  1.00  0.00     0.199 C 
HETATM    2  N1  UNL     1     -23.059  10.132  48.950  1.00  0.00    -0.343 N 
ATOM      3  H1  UNL     1     -23.781  10.452  49.595  1.00  0.00     0.163 HD
HETATM    4  C5  UNL     1     -23.446  10.031  47.627  1.00  0.00     0.241 C 
HETATM    5  O1  UNL     1     -24.418   9.211  47.389  1.00  0.00    -0.271 OA
HETATM    6  C6  UNL     1     -22.920  10.721  46.423  1.00  0.00     0.177 C 
HETATM    7  N2  UNL     1     -21.601  11.274  46.583  1.00  0.00    -0.346 N 
ATOM      8  H2  UNL     1     -21.515  12.109  47.163  1.00  0.00     0.163 HD
HETATM    9  C11 UNL     1     -20.410  10.763  46.010  1.00  0.00     0.241 C 
HETATM   10  O2  UNL     1     -19.459  11.569  45.881  1.00  0.00    -0.271 OA
HETATM   11  C12 UNL     1     -20.215   9.386  45.569  1.00  0.00     0.178 C 
HETATM   12  N4  UNL     1     -19.036   8.899  46.261  1.00  0.00    -0.347 N 
ATOM     13  H4  UNL     1     -18.135   9.179  45.876  1.00  0.00     0.163 HD
HETATM   14  C18 UNL     1     -19.003   8.087  47.396  1.00  0.00     0.224 C 
HETATM   15  O3  UNL     1     -18.263   8.490  48.374  1.00  0.00    -0.273 OA
HETATM   16  C19 UNL     1     -19.693   6.823  47.656  1.00  0.00     0.100 C 
HETATM   17  C22 UNL     1     -20.974   6.874  48.377  1.00  0.00     0.099 C 
HETATM   18  N5  UNL     1     -20.997   7.369  49.721  1.00  0.00    -0.349 N 
HETATM   19  C25 UNL     1     -20.232   6.640  50.710  1.00  0.00     0.153 C 
HETATM   20  C26 UNL     1     -21.718   8.495  50.184  1.00  0.00     0.246 C 
HETATM   21  O4  UNL     1     -22.429   8.420  51.256  1.00  0.00    -0.271 OA
ENDROOT
BRANCH  11  22
HETATM   22  C13 UNL     1     -20.041   9.302  44.093  1.00  0.00     0.063 C 
BRANCH  22  23
HETATM   23  C14 UNL     1     -18.745   8.731  43.630  1.00  0.00     0.238 C 
BRANCH  23  24
HETATM   24  N3  UNL     1     -18.003   9.730  42.855  1.00  0.00    -0.079 N 
HETATM   25  C15 UNL     1     -18.858  10.827  42.444  1.00  0.00     0.271 C 
HETATM   26  C16 UNL     1     -17.430   9.145  41.656  1.00  0.00     0.271 C 
HETATM   27  C17 UNL     1     -16.919  10.291  43.628  1.00  0.00     0.271 C 
ENDBRANCH  23  24
ENDBRANCH  22  23
ENDBRANCH  11  22
BRANCH   6  28
HETATM   28  C7  UNL     1     -23.797  11.899  46.016  1.00  0.00     0.038 C 
BRANCH  28  29
HETATM   29  C8  UNL     1     -24.024  12.033  44.553  1.00  0.00    -0.020 C 
HETATM   30  C9  UNL     1     -22.762  11.972  43.723  1.00  0.00     0.009 C 
HETATM   31  C10 UNL     1     -24.615  13.424  44.272  1.00  0.00     0.009 C 
ENDBRANCH  28  29
ENDBRANCH   6  28
BRANCH  16  32
HETATM   32  C20 UNL     1     -18.653   5.864  48.190  1.00  0.00     0.012 C 
HETATM   33  C21 UNL     1     -17.978   5.204  46.974  1.00  0.00     0.006 C 
ENDBRANCH  16  32
BRANCH  17  34
HETATM   34  C23 UNL     1     -21.615   5.473  48.301  1.00  0.00     0.022 C 
HETATM   35  C24 UNL     1     -23.091   5.678  48.587  1.00  0.00     0.007 C 
ENDBRANCH  17  34
BRANCH   1  36
HETATM   36  C3  UNL     1     -21.581  10.812  50.711  1.00  0.00     0.003 C 
HETATM   37  C2  UNL     1     -20.375  11.126  51.116  1.00  0.00    -0.033 C 
HETATM   38  C1  UNL     1     -20.104  12.055  52.234  1.00  0.00     0.036 C 
ENDBRANCH   1  36
TORSDOF 8
ENDMDL
MODEL 4
REMARK VINA RESULT: -4.740083356      2.371      3.988
REMARK  8 active torsions:
REMARK  status: ('A' for Active; 'I' for Inactive)
REMARK    1  A    between atoms: C3_3  and  C4_4 
REMARK    2  A    between atoms: C6_9  and  C7_10 
REMARK    3  A    between atoms: C7_10  and  C8_11 
REMARK    4  A    between atoms: C12_18  and  C13_19 
REMARK    5  A    between atoms: C13_19  and  C14_20 
REMARK    6  A    between atoms: C14_20  and  N3_21 
REMARK    7  A    between atoms: C19_29  and  C20_30 
REMARK    8  A    between atoms: C22_32  and  C23_33 
ROOT
HETATM    1  C4  UNL     1     -25.495   9.102  51.043  1.00  0.00     0.199 C 
HETATM    2  N1  UNL     1     -25.805   9.230  49.629  1.00  0.00    -0.343 N 
ATOM      3  H1  UNL     1     -26.784   9.411  49.409  1.00  0.00     0.163 HD
HETATM    4  C5  UNL     1     -24.958   9.139  48.539  1.00  0.00     0.241 C 
HETATM    5  O1  UNL     1     -25.235   8.201  47.692  1.00  0.00    -0.271 OA
HETATM    6  C6  UNL     1     -23.772   9.955  48.182  1.00  0.00     0.177 C 
HETATM    7  N2  UNL     1     -23.196  10.681  49.284  1.00  0.00    -0.346 N 
ATOM      8  H2  UNL     1     -23.714  11.491  49.626  1.00  0.00     0.163 HD
HETATM    9  C11 UNL     1     -21.976  10.374  49.936  1.00  0.00     0.241 C 
HETATM   10  O2  UNL     1     -21.416  11.313  50.549  1.00  0.00    -0.271 OA
HETATM   11  C12 UNL     1     -21.338   9.062  49.946  1.00  0.00     0.178 C 
HETATM   12  N4  UNL     1     -21.142   8.714  51.341  1.00  0.00    -0.347 N 
ATOM     13  H4  UNL     1     -20.341   9.139  51.807  1.00  0.00     0.163 HD
HETATM   14  C18 UNL     1     -21.932   7.861  52.114  1.00  0.00     0.224 C 
HETATM   15  O3  UNL     1     -22.332   8.317  53.254  1.00  0.00    -0.273 OA
HETATM   16  C19 UNL     1     -22.387   6.500  51.827  1.00  0.00     0.100 C 
HETATM   17  C22 UNL     1     -23.721   6.333  51.229  1.00  0.00     0.099 C 
HETATM   18  N5  UNL     1     -24.873   6.753  51.970  1.00  0.00    -0.349 N 
HETATM   19  C25 UNL     1     -25.127   6.094  53.233  1.00  0.00     0.153 C 
HETATM   20  C26 UNL     1     -25.805   7.742  51.575  1.00  0.00     0.246 C 
HETATM   21  O4  UNL     1     -27.071   7.513  51.653  1.00  0.00    -0.271 OA
ENDROOT
BRANCH  11  22
HETATM   22  C13 UNL     1     -20.044   9.076  49.212  1.00  0.00     0.063 C 
BRANCH  22  23
HETATM   23  C14 UNL     1     -20.048   8.388  47.889  1.00  0.00     0.238 C 
BRANCH  23  24
HETATM   24  N3  UNL     1     -18.846   8.747  47.131  1.00  0.00    -0.079 N 
HETATM   25  C15 UNL     1     -17.703   7.953  47.540  1.00  0.00     0.271 C 
HETATM   26  C16 UNL     1     -18.502  10.145  47.322  1.00  0.00     0.271 C 
HETATM   27  C17 UNL     1     -19.039   8.534  45.715  1.00  0.00     0.271 C 
ENDBRANCH  23  24
ENDBRANCH  22  23
ENDBRANCH  11  22
BRANCH   6  28
HETATM   28  C7  UNL     1     -24.105  11.014  47.138  1.00  0.00     0.038 C 
BRANCH  28  29
HETATM   29  C8  UNL     1     -23.420  10.840  45.831  1.00  0.00    -0.020 C 
HETATM   30  C9  UNL     1     -21.918  11.001  45.892  1.00  0.00     0.009 C 
HETATM   31  C10 UNL     1     -23.898  11.944  44.874  1.00  0.00     0.009 C 
ENDBRANCH  28  29
ENDBRANCH   6  28
BRANCH  16  32
HETATM   32  C20 UNL     1     -22.087   5.675  53.057  1.00  0.00     0.012 C 
HETATM   33  C21 UNL     1     -20.629   5.194  52.937  1.00  0.00     0.006 C 
ENDBRANCH  16  32
BRANCH  17  34
HETATM   34  C23 UNL     1     -23.862   4.861  50.792  1.00  0.00     0.022 C 
HETATM   35  C24 UNL     1     -24.063   4.894  49.289  1.00  0.00     0.007 C 
ENDBRANCH  17  34
BRANCH   1  36
HETATM   36  C3  UNL     1     -26.434  10.026  51.801  1.00  0.00     0.003 C 
HETATM   37  C2  UNL     1     -26.221  10.283  53.068  1.00  0.00    -0.033 C 
HETATM   38  C1  UNL     1     -27.084  11.168  53.878  1.00  0.00     0.036 C 
ENDBRANCH   1  36
TORSDOF 8
ENDMDL
MODEL 5
REMARK VINA RESULT: -4.713794251      3.818      7.159
REMARK  8 active torsions:
REMARK  status: ('A' for Active; 'I' for Inactive)
REMARK    1  A    between atoms: C3_3  and  C4_4 
REMARK    2  A    between atoms: C6_9  and  C7_10 
REMARK    3  A    between atoms: C7_10  and  C8_11 
REMARK    4  A    between atoms: C12_18  and  C13_19 
REMARK    5  A    between atoms: C13_19  and  C14_20 
REMARK    6  A    between atoms: C14_20  and  N3_21 
REMARK    7  A    between atoms: C19_29  and  C20_30 
REMARK    8  A    between atoms: C22_32  and  C23_33 
ROOT
HETATM    1  C4  UNL     1     -27.042   9.458  52.746  1.00  0.00     0.199 C 
HETATM    2  N1  UNL     1     -27.576   9.037  54.030  1.00  0.00    -0.343 N 
ATOM      3  H1  UNL     1     -27.511   9.727  54.779  1.00  0.00     0.163 HD
HETATM    4  C5  UNL     1     -28.161   7.834  54.380  1.00  0.00     0.241 C 
HETATM    5  O1  UNL     1     -27.564   7.173  55.319  1.00  0.00    -0.271 OA
HETATM    6  C6  UNL     1     -29.377   7.173  53.846  1.00  0.00     0.177 C 
HETATM    7  N2  UNL     1     -29.789   7.644  52.549  1.00  0.00    -0.346 N 
ATOM      8  H2  UNL     1     -30.211   8.571  52.505  1.00  0.00     0.163 HD
HETATM    9  C11 UNL     1     -29.661   6.935  51.328  1.00  0.00     0.241 C 
HETATM   10  O2  UNL     1     -30.433   7.273  50.401  1.00  0.00    -0.271 OA
HETATM   11  C12 UNL     1     -28.706   5.861  51.079  1.00  0.00     0.178 C 
HETATM   12  N4  UNL     1     -27.951   6.251  49.903  1.00  0.00    -0.347 N 
ATOM     13  H4  UNL     1     -28.401   6.098  49.001  1.00  0.00     0.163 HD
HETATM   14  C18 UNL     1     -26.673   6.813  49.873  1.00  0.00     0.224 C 
HETATM   15  O3  UNL     1     -26.529   7.887  49.171  1.00  0.00    -0.273 OA
HETATM   16  C19 UNL     1     -25.444   6.363  50.528  1.00  0.00     0.100 C 
HETATM   17  C22 UNL     1     -25.101   6.960  51.829  1.00  0.00     0.099 C 
HETATM   18  N5  UNL     1     -24.837   8.366  51.902  1.00  0.00    -0.349 N 
HETATM   19  C25 UNL     1     -23.716   8.872  51.139  1.00  0.00     0.153 C 
HETATM   20  C26 UNL     1     -25.558   9.312  52.669  1.00  0.00     0.246 C 
HETATM   21  O4  UNL     1     -24.934  10.166  53.405  1.00  0.00    -0.271 OA
ENDROOT
BRANCH  11  22
HETATM   22  C13 UNL     1     -29.392   4.557  50.865  1.00  0.00     0.063 C 
BRANCH  22  23
HETATM   23  C14 UNL     1     -29.391   4.053  49.462  1.00  0.00     0.238 C 
BRANCH  23  24
HETATM   24  N3  UNL     1     -30.635   3.329  49.186  1.00  0.00    -0.079 N 
HETATM   25  C15 UNL     1     -30.714   2.097  49.947  1.00  0.00     0.271 C 
HETATM   26  C16 UNL     1     -30.742   2.986  47.779  1.00  0.00     0.271 C 
HETATM   27  C17 UNL     1     -31.790   4.127  49.529  1.00  0.00     0.271 C 
ENDBRANCH  23  24
ENDBRANCH  22  23
ENDBRANCH  11  22
BRANCH   6  28
HETATM   28  C7  UNL     1     -30.585   7.392  54.750  1.00  0.00     0.038 C 
BRANCH  28  29
HETATM   29  C8  UNL     1     -31.349   6.160  55.079  1.00  0.00    -0.020 C 
HETATM   30  C9  UNL     1     -30.623   4.874  54.753  1.00  0.00     0.009 C 
HETATM   31  C10 UNL     1     -32.622   6.125  54.217  1.00  0.00     0.009 C 
ENDBRANCH  28  29
ENDBRANCH   6  28
BRANCH  16  32
HETATM   32  C20 UNL     1     -24.362   6.372  49.472  1.00  0.00     0.012 C 
HETATM   33  C21 UNL     1     -24.308   4.958  48.867  1.00  0.00     0.006 C 
ENDBRANCH  16  32
BRANCH  17  34
HETATM   34  C23 UNL     1     -23.927   6.154  52.423  1.00  0.00     0.022 C 
HETATM   35  C24 UNL     1     -24.519   4.830  52.869  1.00  0.00     0.007 C 
ENDBRANCH  17  34
BRANCH   1  36
HETATM   36  C3  UNL     1     -27.280  10.953  52.620  1.00  0.00     0.003 C 
HETATM   37  C2  UNL     1     -28.381  11.484  53.093  1.00  0.00    -0.033 C 
HETATM   38  C1  UNL     1     -28.692  12.927  53.013  1.00  0.00     0.036 C 
ENDBRANCH   1  36
TORSDOF 8
ENDMDL
