MODEL 1
REMARK VINA RESULT: -6.713409309      0.000      0.000
REMARK  12 active torsions:
REMARK  status: ('A' for Active; 'I' for Inactive)
REMARK    1  A    between atoms: C2_2  and  C3_3 
REMARK    2  A    between atoms: C4_4  and  C5_5 
REMARK    3  A    between atoms: C5_5  and  O1_7 
REMARK    4  A    between atoms: C5_5  and  C7_9 
REMARK    5  A    between atoms: C8_10  and  C9_11 
REMARK    6  A    between atoms: C9_11  and  N1_12 
REMARK    7  A    between atoms: C10_13  and  C11_14 
REMARK    8  A    between atoms: C13_19  and  C14_20 
REMARK    9  A    between atoms: C21_27  and  C22_28 
REMARK   10  A    between atoms: C22_28  and  C23_29 
REMARK   11  A    between atoms: C23_29  and  C24_30 
REMARK   12  A    between atoms: C24_30  and  N3_31 
ROOT
HETATM    1  N1  UNL     1     -23.707   8.393  50.601  1.00  0.00    -0.324 N 
HETATM    2  C10 UNL     1     -22.954   8.976  51.468  1.00  0.00     0.147 A 
HETATM    3  N2  UNL     1     -23.542   9.623  52.633  1.00  0.00    -0.340 N 
ATOM      4  H2  UNL     1     -22.936  10.081  53.314  1.00  0.00     0.167 HD
HETATM    5  C12 UNL     1     -24.938   9.625  52.832  1.00  0.00     0.037 A 
HETATM    6  C13 UNL     1     -25.457  10.228  53.846  1.00  0.00     0.059 C 
HETATM    7  C27 UNL     1     -25.709   8.953  51.816  1.00  0.00     0.054 A 
HETATM    8  C28 UNL     1     -25.156   8.366  50.758  1.00  0.00     0.012 A 
HETATM    9  C29 UNL     1     -26.029   7.673  49.771  1.00  0.00     0.068 C 
ENDROOT
BRANCH   6  10
HETATM   10  C14 UNL     1     -26.816  10.369  54.268  1.00  0.00     0.043 A 
HETATM   11  C15 UNL     1     -27.654  11.304  53.732  1.00  0.00    -0.029 A 
HETATM   12  C16 UNL     1     -27.231  12.177  52.617  1.00  0.00     0.051 C 
HETATM   13  C17 UNL     1     -28.951  11.446  54.178  1.00  0.00    -0.046 A 
HETATM   14  C18 UNL     1     -29.840  12.458  53.572  1.00  0.00     0.049 C 
HETATM   15  C19 UNL     1     -29.409  10.611  55.203  1.00  0.00    -0.033 A 
HETATM   16  C20 UNL     1     -30.785  10.910  55.676  1.00  0.00     0.050 C 
HETATM   17  C21 UNL     1     -28.577   9.670  55.742  1.00  0.00     0.018 A 
HETATM   18  N6  UNL     1     -27.299   9.581  55.257  1.00  0.00    -0.354 N 
HETATM   19  C26 UNL     1     -26.408   8.623  55.819  1.00  0.00     0.156 C 
BRANCH  17  20
HETATM   20  C22 UNL     1     -29.023   8.681  56.750  1.00  0.00     0.059 C 
BRANCH  20  21
HETATM   21  C23 UNL     1     -29.937   7.665  56.153  1.00  0.00     0.026 C 
BRANCH  21  22
HETATM   22  C24 UNL     1     -29.673   7.034  54.866  1.00  0.00     0.122 C 
BRANCH  22  23
HETATM   23  N3  UNL     1     -30.690   7.142  53.846  1.00  0.00    -0.367 N 
HETATM   24  C25 UNL     1     -30.401   7.696  52.694  1.00  0.00     0.196 C 
HETATM   25  N4  UNL     1     -29.088   8.194  52.438  1.00  0.00    -0.067 NA
HETATM   26  N5  UNL     1     -31.417   7.790  51.715  1.00  0.00    -0.067 NA
ATOM     27  H3  UNL     1     -31.630   6.789  54.021  1.00  0.00     0.161 HD
ENDBRANCH  22  23
ENDBRANCH  21  22
ENDBRANCH  20  21
ENDBRANCH  17  20
ENDBRANCH   6  10
BRANCH   2  28
HETATM   28  C11 UNL     1     -21.513   9.052  51.307  1.00  0.00     0.307 C 
HETATM   29  O2  UNL     1     -20.808  10.042  51.144  1.00  0.00    -0.298 OA
ENDBRANCH   2  28
BRANCH   1  30
HETATM   30  C9  UNL     1     -23.192   7.764  49.403  1.00  0.00     0.224 C 
BRANCH  30  31
HETATM   31  C8  UNL     1     -22.665   8.729  48.428  1.00  0.00    -0.082 C 
HETATM   32  C7  UNL     1     -22.202   9.526  47.636  1.00  0.00    -0.053 C 
BRANCH  32  33
HETATM   33  C5  UNL     1     -21.614  10.479  46.677  1.00  0.00     0.181 C 
HETATM   34  C6  UNL     1     -20.748   9.673  45.729  1.00  0.00     0.075 C 
BRANCH  33  35
HETATM   35  C4  UNL     1     -22.687  11.080  45.849  1.00  0.00    -0.055 C 
HETATM   36  C3  UNL     1     -23.550  11.590  45.181  1.00  0.00    -0.103 C 
BRANCH  36  37
HETATM   37  C2  UNL     1     -24.604  12.245  44.368  1.00  0.00     0.089 C 
HETATM   38  C1  UNL     1     -24.352  13.760  44.347  1.00  0.00     0.018 C 
ENDBRANCH  36  37
ENDBRANCH  33  35
BRANCH  33  39
HETATM   39  O1  UNL     1     -20.882  11.439  47.337  1.00  0.00    -0.367 OA
ATOM     40  H1  UNL     1     -19.965  11.199  47.401  1.00  0.00     0.212 HD
ENDBRANCH  33  39
ENDBRANCH  32  33
ENDBRANCH  30  31
ENDBRANCH   1  30
TORSDOF 12
ENDMDL
MODEL 2
REMARK VINA RESULT: -6.252549444      0.967      1.192
REMARK  12 active torsions:
REMARK  status: ('A' for Active; 'I' for Inactive)
REMARK    1  A    between atoms: C2_2  and  C3_3 
REMARK    2  A    between atoms: C4_4  and  C5_5 
REMARK    3  A    between atoms: C5_5  and  O1_7 
REMARK    4  A    between atoms: C5_5  and  C7_9 
REMARK    5  A    between atoms: C8_10  and  C9_11 
REMARK    6  A    between atoms: C9_11  and  N1_12 
REMARK    7  A    between atoms: C10_13  and  C11_14 
REMARK    8  A    between atoms: C13_19  and  C14_20 
REMARK    9  A    between atoms: C21_27  and  C22_28 
REMARK   10  A    between atoms: C22_28  and  C23_29 
REMARK   11  A    between atoms: C23_29  and  C24_30 
REMARK   12  A    between atoms: C24_30  and  N3_31 
ROOT
HETATM    1  N1  UNL     1     -23.806   8.225  50.399  1.00  0.00    -0.324 N 
HETATM    2  C10 UNL     1     -23.045   8.761  51.289  1.00  0.00     0.147 A 
HETATM    3  N2  UNL     1     -23.626   9.394  52.466  1.00  0.00    -0.340 N 
ATOM      4  H2  UNL     1     -23.015   9.814  53.166  1.00  0.00     0.167 HD
HETATM    5  C12 UNL     1     -25.024   9.433  52.650  1.00  0.00     0.037 A 
HETATM    6  C13 UNL     1     -25.536  10.023  53.674  1.00  0.00     0.059 C 
HETATM    7  C27 UNL     1     -25.804   8.813  51.607  1.00  0.00     0.054 A 
HETATM    8  C28 UNL     1     -25.256   8.238  50.540  1.00  0.00     0.012 A 
HETATM    9  C29 UNL     1     -26.139   7.599  49.525  1.00  0.00     0.068 C 
ENDROOT
BRANCH   6  10
HETATM   10  C14 UNL     1     -26.895  10.195  54.087  1.00  0.00     0.043 A 
HETATM   11  C15 UNL     1     -27.666  11.232  53.647  1.00  0.00    -0.029 A 
HETATM   12  C16 UNL     1     -27.167  12.202  52.649  1.00  0.00     0.051 C 
HETATM   13  C17 UNL     1     -28.963  11.397  54.084  1.00  0.00    -0.046 A 
HETATM   14  C18 UNL     1     -29.779  12.523  53.584  1.00  0.00     0.049 C 
HETATM   15  C19 UNL     1     -29.492  10.478  54.997  1.00  0.00    -0.033 A 
HETATM   16  C20 UNL     1     -30.860  10.802  55.477  1.00  0.00     0.050 C 
HETATM   17  C21 UNL     1     -28.728   9.435  55.438  1.00  0.00     0.018 A 
HETATM   18  N6  UNL     1     -27.445   9.328  54.968  1.00  0.00    -0.354 N 
HETATM   19  C26 UNL     1     -26.623   8.260  55.431  1.00  0.00     0.156 C 
BRANCH  17  20
HETATM   20  C22 UNL     1     -29.253   8.364  56.316  1.00  0.00     0.059 C 
BRANCH  20  21
HETATM   21  C23 UNL     1     -29.777   7.214  55.523  1.00  0.00     0.026 C 
BRANCH  21  22
HETATM   22  C24 UNL     1     -31.175   7.109  55.123  1.00  0.00     0.122 C 
BRANCH  22  23
HETATM   23  N3  UNL     1     -31.485   6.278  53.984  1.00  0.00    -0.367 N 
HETATM   24  C25 UNL     1     -32.733   6.115  53.617  1.00  0.00     0.196 C 
HETATM   25  N4  UNL     1     -33.789   6.753  54.333  1.00  0.00    -0.067 NA
HETATM   26  N5  UNL     1     -33.006   5.293  52.498  1.00  0.00    -0.067 NA
ATOM     27  H3  UNL     1     -30.736   5.818  53.467  1.00  0.00     0.161 HD
ENDBRANCH  22  23
ENDBRANCH  21  22
ENDBRANCH  20  21
ENDBRANCH  17  20
ENDBRANCH   6  10
BRANCH   2  28
HETATM   28  C11 UNL     1     -21.600   8.797  51.146  1.00  0.00     0.307 C 
HETATM   29  O2  UNL     1     -20.839   9.752  51.261  1.00  0.00    -0.298 OA
ENDBRANCH   2  28
BRANCH   1  30
HETATM   30  C9  UNL     1     -23.296   7.614  49.190  1.00  0.00     0.224 C 
BRANCH  30  31
HETATM   31  C8  UNL     1     -22.711   8.586  48.256  1.00  0.00    -0.082 C 
HETATM   32  C7  UNL     1     -22.228   9.411  47.506  1.00  0.00    -0.053 C 
BRANCH  32  33
HETATM   33  C5  UNL     1     -21.625  10.423  46.619  1.00  0.00     0.181 C 
HETATM   34  C6  UNL     1     -20.720   9.682  45.655  1.00  0.00     0.075 C 
BRANCH  33  35
HETATM   35  C4  UNL     1     -22.682  11.056  45.793  1.00  0.00    -0.055 C 
HETATM   36  C3  UNL     1     -23.537  11.591  45.135  1.00  0.00    -0.103 C 
BRANCH  36  37
HETATM   37  C2  UNL     1     -24.589  12.272  44.341  1.00  0.00     0.089 C 
HETATM   38  C1  UNL     1     -24.320  13.784  44.348  1.00  0.00     0.018 C 
ENDBRANCH  36  37
ENDBRANCH  33  35
BRANCH  33  39
HETATM   39  O1  UNL     1     -20.927  11.354  47.353  1.00  0.00    -0.367 OA
ATOM     40  H1  UNL     1     -20.296  11.821  46.818  1.00  0.00     0.212 HD
ENDBRANCH  33  39
ENDBRANCH  32  33
ENDBRANCH  30  31
ENDBRANCH   1  30
TORSDOF 12
ENDMDL
MODEL 3
REMARK VINA RESULT: -6.239063730      3.675      9.593
REMARK  12 active torsions:
REMARK  status: ('A' for Active; 'I' for Inactive)
REMARK    1  A    between atoms: C2_2  and  C3_3 
REMARK    2  A    between atoms: C4_4  and  C5_5 
REMARK    3  A    between atoms: C5_5  and  O1_7 
REMARK    4  A    between atoms: C5_5  and  C7_9 
REMARK    5  A    between atoms: C8_10  and  C9_11 
REMARK    6  A    between atoms: C9_11  and  N1_12 
REMARK    7  A    between atoms: C10_13  and  C11_14 
REMARK    8  A    between atoms: C13_19  and  C14_20 
REMARK    9  A    between atoms: C21_27  and  C22_28 
REMARK   10  A    between atoms: C22_28  and  C23_29 
REMARK   11  A    between atoms: C23_29  and  C24_30 
REMARK   12  A    between atoms: C24_30  and  N3_31 
ROOT
HETATM    1  N1  UNL     1     -28.392   6.460  52.638  1.00  0.00    -0.324 N 
HETATM    2  C10 UNL     1     -28.989   6.755  51.535  1.00  0.00     0.147 A 
HETATM    3  N2  UNL     1     -28.214   7.051  50.338  1.00  0.00    -0.340 N 
ATOM      4  H2  UNL     1     -28.697   7.282  49.469  1.00  0.00     0.167 HD
HETATM    5  C12 UNL     1     -26.804   7.024  50.364  1.00  0.00     0.037 A 
HETATM    6  C13 UNL     1     -26.122   7.321  49.313  1.00  0.00     0.059 C 
HETATM    7  C27 UNL     1     -26.215   6.688  51.636  1.00  0.00     0.054 A 
HETATM    8  C28 UNL     1     -26.938   6.419  52.719  1.00  0.00     0.012 A 
HETATM    9  C29 UNL     1     -26.244   6.056  53.986  1.00  0.00     0.068 C 
ENDROOT
BRANCH   6  10
HETATM   10  C14 UNL     1     -24.710   7.363  49.081  1.00  0.00     0.043 A 
HETATM   11  C15 UNL     1     -23.968   6.233  48.891  1.00  0.00    -0.029 A 
HETATM   12  C16 UNL     1     -24.593   4.895  48.830  1.00  0.00     0.051 C 
HETATM   13  C17 UNL     1     -22.603   6.294  48.704  1.00  0.00    -0.046 A 
HETATM   14  C18 UNL     1     -21.826   5.057  48.489  1.00  0.00     0.049 C 
HETATM   15  C19 UNL     1     -21.974   7.544  48.710  1.00  0.00    -0.033 A 
HETATM   16  C20 UNL     1     -20.494   7.492  48.598  1.00  0.00     0.050 C 
HETATM   17  C21 UNL     1     -22.711   8.679  48.895  1.00  0.00     0.018 A 
HETATM   18  N6  UNL     1     -24.064   8.551  49.079  1.00  0.00    -0.354 N 
HETATM   19  C26 UNL     1     -24.848   9.720  49.296  1.00  0.00     0.156 C 
BRANCH  17  20
HETATM   20  C22 UNL     1     -22.134  10.040  48.806  1.00  0.00     0.059 C 
BRANCH  20  21
HETATM   21  C23 UNL     1     -21.899  10.443  47.389  1.00  0.00     0.026 C 
BRANCH  21  22
HETATM   22  C24 UNL     1     -22.964  10.467  46.393  1.00  0.00     0.122 C 
BRANCH  22  23
HETATM   23  N3  UNL     1     -23.659  11.715  46.186  1.00  0.00    -0.367 N 
HETATM   24  C25 UNL     1     -23.727  12.231  44.983  1.00  0.00     0.196 C 
HETATM   25  N4  UNL     1     -23.120  11.569  43.875  1.00  0.00    -0.067 NA
HETATM   26  N5  UNL     1     -24.413  13.456  44.811  1.00  0.00    -0.067 NA
ATOM     27  H3  UNL     1     -24.095  12.195  46.973  1.00  0.00     0.161 HD
ENDBRANCH  22  23
ENDBRANCH  21  22
ENDBRANCH  20  21
ENDBRANCH  17  20
ENDBRANCH   6  10
BRANCH   2  28
HETATM   28  C11 UNL     1     -30.436   6.844  51.443  1.00  0.00     0.307 C 
HETATM   29  O2  UNL     1     -31.128   7.148  50.478  1.00  0.00    -0.298 OA
ENDBRANCH   2  28
BRANCH   1  30
HETATM   30  C9  UNL     1     -29.100   6.191  53.871  1.00  0.00     0.224 C 
BRANCH  30  31
HETATM   31  C8  UNL     1     -29.520   7.413  54.571  1.00  0.00    -0.082 C 
HETATM   32  C7  UNL     1     -29.843   8.438  55.141  1.00  0.00    -0.053 C 
BRANCH  32  33
HETATM   33  C5  UNL     1     -30.221   9.696  55.810  1.00  0.00     0.181 C 
HETATM   34  C6  UNL     1     -29.398   9.786  57.080  1.00  0.00     0.075 C 
BRANCH  33  35
HETATM   35  C4  UNL     1     -29.817  10.849  54.970  1.00  0.00    -0.055 C 
HETATM   36  C3  UNL     1     -29.510  11.785  54.277  1.00  0.00    -0.103 C 
BRANCH  36  37
HETATM   37  C2  UNL     1     -29.157  12.936  53.410  1.00  0.00     0.089 C 
HETATM   38  C1  UNL     1     -27.872  12.604  52.638  1.00  0.00     0.018 C 
ENDBRANCH  36  37
ENDBRANCH  33  35
BRANCH  33  39
HETATM   39  O1  UNL     1     -31.570   9.712  56.080  1.00  0.00    -0.367 OA
ATOM     40  H1  UNL     1     -31.741   9.846  57.005  1.00  0.00     0.212 HD
ENDBRANCH  33  39
ENDBRANCH  32  33
ENDBRANCH  30  31
ENDBRANCH   1  30
TORSDOF 12
ENDMDL
MODEL 4
REMARK VINA RESULT: -6.121363679      3.536     10.090
REMARK  12 active torsions:
REMARK  status: ('A' for Active; 'I' for Inactive)
REMARK    1  A    between atoms: C2_2  and  C3_3 
REMARK    2  A    between atoms: C4_4  and  C5_5 
REMARK    3  A    between atoms: C5_5  and  O1_7 
REMARK    4  A    between atoms: C5_5  and  C7_9 
REMARK    5  A    between atoms: C8_10  and  C9_11 
REMARK    6  A    between atoms: C9_11  and  N1_12 
REMARK    7  A    between atoms: C10_13  and  C11_14 
REMARK    8  A    between atoms: C13_19  and  C14_20 
REMARK    9  A    between atoms: C21_27  and  C22_28 
REMARK   10  A    between atoms: C22_28  and  C23_29 
REMARK   11  A    between atoms: C23_29  and  C24_30 
REMARK   12  A    between atoms: C24_30  and  N3_31 
ROOT
HETATM    1  N1  UNL     1     -28.091   7.176  52.632  1.00  0.00    -0.324 N 
HETATM    2  C10 UNL     1     -28.706   7.142  51.501  1.00  0.00     0.147 A 
HETATM    3  N2  UNL     1     -27.952   7.186  50.255  1.00  0.00    -0.340 N 
ATOM      4  H2  UNL     1     -28.448   7.157  49.365  1.00  0.00     0.167 HD
HETATM    5  C12 UNL     1     -26.544   7.268  50.265  1.00  0.00     0.037 A 
HETATM    6  C13 UNL     1     -25.883   7.342  49.161  1.00  0.00     0.059 C 
HETATM    7  C27 UNL     1     -25.934   7.305  51.570  1.00  0.00     0.054 A 
HETATM    8  C28 UNL     1     -26.638   7.262  52.698  1.00  0.00     0.012 A 
HETATM    9  C29 UNL     1     -25.922   7.279  54.004  1.00  0.00     0.068 C 
ENDROOT
BRANCH   6  10
HETATM   10  C14 UNL     1     -24.478   7.426  48.904  1.00  0.00     0.043 A 
HETATM   11  C15 UNL     1     -23.687   6.319  48.797  1.00  0.00    -0.029 A 
HETATM   12  C16 UNL     1     -24.251   4.954  48.860  1.00  0.00     0.051 C 
HETATM   13  C17 UNL     1     -22.329   6.424  48.583  1.00  0.00    -0.046 A 
HETATM   14  C18 UNL     1     -21.499   5.209  48.461  1.00  0.00     0.049 C 
HETATM   15  C19 UNL     1     -21.758   7.697  48.474  1.00  0.00    -0.033 A 
HETATM   16  C20 UNL     1     -20.279   7.701  48.342  1.00  0.00     0.050 C 
HETATM   17  C21 UNL     1     -22.544   8.810  48.575  1.00  0.00     0.018 A 
HETATM   18  N6  UNL     1     -23.887   8.638  48.791  1.00  0.00    -0.354 N 
HETATM   19  C26 UNL     1     -24.721   9.785  48.922  1.00  0.00     0.156 C 
BRANCH  17  20
HETATM   20  C22 UNL     1     -22.031  10.183  48.361  1.00  0.00     0.059 C 
BRANCH  20  21
HETATM   21  C23 UNL     1     -21.795  10.460  46.915  1.00  0.00     0.026 C 
BRANCH  21  22
HETATM   22  C24 UNL     1     -22.882  10.573  45.950  1.00  0.00     0.122 C 
BRANCH  22  23
HETATM   23  N3  UNL     1     -23.644  11.799  45.940  1.00  0.00    -0.367 N 
HETATM   24  C25 UNL     1     -23.588  12.592  44.898  1.00  0.00     0.196 C 
HETATM   25  N4  UNL     1     -22.780  12.254  43.772  1.00  0.00    -0.067 NA
HETATM   26  N5  UNL     1     -24.344  13.787  44.917  1.00  0.00    -0.067 NA
ATOM     27  H3  UNL     1     -24.223  12.048  46.741  1.00  0.00     0.161 HD
ENDBRANCH  22  23
ENDBRANCH  21  22
ENDBRANCH  20  21
ENDBRANCH  17  20
ENDBRANCH   6  10
BRANCH   2  28
HETATM   28  C11 UNL     1     -30.155   7.101  51.413  1.00  0.00     0.307 C 
HETATM   29  O2  UNL     1     -30.868   7.171  50.418  1.00  0.00    -0.298 OA
ENDBRANCH   2  28
BRANCH   1  30
HETATM   30  C9  UNL     1     -28.780   7.173  53.905  1.00  0.00     0.224 C 
BRANCH  30  31
HETATM   31  C8  UNL     1     -29.144   8.521  54.366  1.00  0.00    -0.082 C 
HETATM   32  C7  UNL     1     -29.421   9.647  54.731  1.00  0.00    -0.053 C 
BRANCH  32  33
HETATM   33  C5  UNL     1     -29.748  11.023  55.147  1.00  0.00     0.181 C 
HETATM   34  C6  UNL     1     -30.172  11.773  53.899  1.00  0.00     0.075 C 
BRANCH  33  35
HETATM   35  C4  UNL     1     -30.929  11.006  56.043  1.00  0.00    -0.055 C 
HETATM   36  C3  UNL     1     -31.894  11.014  56.764  1.00  0.00    -0.103 C 
BRANCH  36  37
HETATM   37  C2  UNL     1     -33.086  11.053  57.646  1.00  0.00     0.089 C 
HETATM   38  C1  UNL     1     -33.666  12.475  57.642  1.00  0.00     0.018 C 
ENDBRANCH  36  37
ENDBRANCH  33  35
BRANCH  33  39
HETATM   39  O1  UNL     1     -28.662  11.616  55.748  1.00  0.00    -0.367 OA
ATOM     40  H1  UNL     1     -28.164  12.142  55.133  1.00  0.00     0.212 HD
ENDBRANCH  33  39
ENDBRANCH  32  33
ENDBRANCH  30  31
ENDBRANCH   1  30
TORSDOF 12
ENDMDL
MODEL 5
REMARK VINA RESULT: -5.927113248      1.808      2.380
REMARK  12 active torsions:
REMARK  status: ('A' for Active; 'I' for Inactive)
REMARK    1  A    between atoms: C2_2  and  C3_3 
REMARK    2  A    between atoms: C4_4  and  C5_5 
REMARK    3  A    between atoms: C5_5  and  O1_7 
REMARK    4  A    between atoms: C5_5  and  C7_9 
REMARK    5  A    between atoms: C8_10  and  C9_11 
REMARK    6  A    between atoms: C9_11  and  N1_12 
REMARK    7  A    between atoms: C10_13  and  C11_14 
REMARK    8  A    between atoms: C13_19  and  C14_20 
REMARK    9  A    between atoms: C21_27  and  C22_28 
REMARK   10  A    between atoms: C22_28  and  C23_29 
REMARK   11  A    between atoms: C23_29  and  C24_30 
REMARK   12  A    between atoms: C24_30  and  N3_31 
ROOT
HETATM    1  N1  UNL     1     -23.842   8.891  49.184  1.00  0.00    -0.324 N 
HETATM    2  C10 UNL     1     -23.102   9.484  50.056  1.00  0.00     0.147 A 
HETATM    3  N2  UNL     1     -23.635   9.807  51.373  1.00  0.00    -0.340 N 
ATOM      4  H2  UNL     1     -23.041  10.274  52.057  1.00  0.00     0.167 HD
HETATM    5  C12 UNL     1     -24.965   9.481  51.714  1.00  0.00     0.037 A 
HETATM    6  C13 UNL     1     -25.444   9.799  52.867  1.00  0.00     0.059 C 
HETATM    7  C27 UNL     1     -25.726   8.822  50.682  1.00  0.00     0.054 A 
HETATM    8  C28 UNL     1     -25.222   8.534  49.485  1.00  0.00     0.012 A 
HETATM    9  C29 UNL     1     -26.074   7.828  48.488  1.00  0.00     0.068 C 
ENDROOT
BRANCH   6  10
HETATM   10  C14 UNL     1     -26.733   9.582  53.449  1.00  0.00     0.043 A 
HETATM   11  C15 UNL     1     -27.710  10.535  53.434  1.00  0.00    -0.029 A 
HETATM   12  C16 UNL     1     -27.523  11.828  52.741  1.00  0.00     0.051 C 
HETATM   13  C17 UNL     1     -28.934  10.318  54.031  1.00  0.00    -0.046 A 
HETATM   14  C18 UNL     1     -29.977  11.363  53.991  1.00  0.00     0.049 C 
HETATM   15  C19 UNL     1     -29.170   9.092  54.662  1.00  0.00    -0.033 A 
HETATM   16  C20 UNL     1     -30.480   8.996  55.356  1.00  0.00     0.050 C 
HETATM   17  C21 UNL     1     -28.199   8.131  54.677  1.00  0.00     0.018 A 
HETATM   18  N6  UNL     1     -27.003   8.410  54.068  1.00  0.00    -0.354 N 
HETATM   19  C26 UNL     1     -25.968   7.432  54.091  1.00  0.00     0.156 C 
BRANCH  17  20
HETATM   20  C22 UNL     1     -28.414   6.774  55.228  1.00  0.00     0.059 C 
BRANCH  20  21
HETATM   21  C23 UNL     1     -29.354   5.983  54.382  1.00  0.00     0.026 C 
BRANCH  21  22
HETATM   22  C24 UNL     1     -29.093   5.696  52.976  1.00  0.00     0.122 C 
BRANCH  22  23
HETATM   23  N3  UNL     1     -30.199   5.802  52.054  1.00  0.00    -0.367 N 
HETATM   24  C25 UNL     1     -30.244   6.797  51.202  1.00  0.00     0.196 C 
HETATM   25  N4  UNL     1     -29.209   7.778  51.176  1.00  0.00    -0.067 NA
HETATM   26  N5  UNL     1     -31.341   6.875  50.313  1.00  0.00    -0.067 NA
ATOM     27  H3  UNL     1     -30.943   5.105  52.066  1.00  0.00     0.161 HD
ENDBRANCH  22  23
ENDBRANCH  21  22
ENDBRANCH  20  21
ENDBRANCH  17  20
ENDBRANCH   6  10
BRANCH   2  28
HETATM   28  C11 UNL     1     -21.738   9.888  49.762  1.00  0.00     0.307 C 
HETATM   29  O2  UNL     1     -21.319  10.989  49.422  1.00  0.00    -0.298 OA
ENDBRANCH   2  28
BRANCH   1  30
HETATM   30  C9  UNL     1     -23.387   8.575  47.847  1.00  0.00     0.224 C 
BRANCH  30  31
HETATM   31  C8  UNL     1     -23.458   9.721  46.929  1.00  0.00    -0.082 C 
HETATM   32  C7  UNL     1     -23.488  10.668  46.167  1.00  0.00    -0.053 C 
BRANCH  32  33
HETATM   33  C5  UNL     1     -23.501  11.804  45.228  1.00  0.00     0.181 C 
HETATM   34  C6  UNL     1     -24.010  13.007  45.998  1.00  0.00     0.075 C 
BRANCH  33  35
HETATM   35  C4  UNL     1     -22.114  12.129  44.818  1.00  0.00    -0.055 C 
HETATM   36  C3  UNL     1     -20.978  12.379  44.504  1.00  0.00    -0.103 C 
BRANCH  36  37
HETATM   37  C2  UNL     1     -19.571  12.676  44.141  1.00  0.00     0.089 C 
HETATM   38  C1  UNL     1     -18.640  12.012  45.165  1.00  0.00     0.018 C 
ENDBRANCH  36  37
ENDBRANCH  33  35
BRANCH  33  39
HETATM   39  O1  UNL     1     -24.300  11.524  44.143  1.00  0.00    -0.367 OA
ATOM     40  H1  UNL     1     -24.562  12.315  43.687  1.00  0.00     0.212 HD
ENDBRANCH  33  39
ENDBRANCH  32  33
ENDBRANCH  30  31
ENDBRANCH   1  30
TORSDOF 12
ENDMDL
