MODEL 1
REMARK VINA RESULT: -11.135236891      0.000      0.000
REMARK  7 active torsions:
REMARK  status: ('A' for Active; 'I' for Inactive)
REMARK    1  A    between atoms: C4_12  and  N5_13 
REMARK    2  A    between atoms: N5_13  and  C5_15 
REMARK    3  A    between atoms: C5_15  and  C6_16 
REMARK    4  A    between atoms: N8_22  and  C8_23 
REMARK    5  A    between atoms: C8_23  and  C9_24 
REMARK    6  A    between atoms: C9_24  and  N9_25 
REMARK    7  A    between atoms: C10_29  and  C11_30 
ROOT
HETATM    1  C6  UNL     1      13.370   9.204   2.737  1.00  0.00     0.155 A 
HETATM    2  N6  UNL     1      12.827   9.329   3.941  1.00  0.00    -0.271 N 
ATOM      3  H6  UNL     1      11.831   9.342   4.157  1.00  0.00     0.189 HD
HETATM    4  N7  UNL     1      13.818   9.433   4.807  1.00  0.00    -0.128 N 
ATOM      5  H7  UNL     1      13.702   9.540   5.815  1.00  0.00     0.205 HD
HETATM    6  C7  UNL     1      15.000   9.377   4.174  1.00  0.00     0.737 A 
HETATM    7  N8  UNL     1      16.334   9.405   4.303  1.00  0.00    -0.008 N 
HETATM    8  C15 UNL     1      16.898   9.277   3.066  1.00  0.00     0.708 A 
HETATM    9  N14 UNL     1      18.138   9.258   2.775  1.00  0.00    -0.233 N 
ATOM     10 1H14 UNL     1      18.560   9.163   1.852  1.00  0.00     0.174 HD
ATOM     11 2H14 UNL     1      18.929   9.335   3.415  1.00  0.00     0.174 HD
HETATM   12  N15 UNL     1      15.856   9.175   2.221  1.00  0.00    -0.109 N 
ATOM     13  H15 UNL     1      15.939   9.067   1.211  1.00  0.00     0.207 HD
HETATM   14  N16 UNL     1      14.721   9.233   2.870  1.00  0.00    -0.054 N 
ENDROOT
BRANCH   1  15
HETATM   15  C5  UNL     1      12.693   9.053   1.405  1.00  0.00     0.201 C 
BRANCH  15  16
HETATM   16  N5  UNL     1      12.969  10.229   0.650  1.00  0.00    -0.368 N 
ATOM     17  H5  UNL     1      12.574  11.102   0.999  1.00  0.00     0.161 HD
BRANCH  16  18
HETATM   18  C4  UNL     1      13.661  10.301  -0.420  1.00  0.00     0.118 A 
HETATM   19  N4  UNL     1      14.925  10.791  -0.293  1.00  0.00    -0.284 N 
HETATM   20  N3  UNL     1      15.729  10.910  -1.336  1.00  0.00    -0.282 N 
ATOM     21  H4  UNL     1      15.259  11.073   0.628  1.00  0.00     0.188 HD
HETATM   22  C3  UNL     1      15.343  10.554  -2.578  1.00  0.00     0.151 A 
ATOM     23  H3  UNL     1      16.668  11.281  -1.197  1.00  0.00     0.188 HD
HETATM   24  N2  UNL     1      15.924  10.563  -3.782  1.00  0.00    -0.291 N 
HETATM   25  C17 UNL     1      14.069  10.053  -2.754  1.00  0.00     0.087 A 
HETATM   26  C2  UNL     1      15.047  10.086  -4.675  1.00  0.00     0.328 A 
ATOM     27  H2  UNL     1      16.872  10.879  -3.985  1.00  0.00     0.172 HD
HETATM   28  N1  UNL     1      13.891   9.760  -4.074  1.00  0.00    -0.300 N 
HETATM   29  O1  UNL     1      15.242   9.945  -5.918  1.00  0.00    -0.246 OA
HETATM   30  C1  UNL     1      12.679   9.212  -4.653  1.00  0.00     0.161 C 
HETATM   31  C16 UNL     1      13.244   9.934  -1.661  1.00  0.00     0.083 A 
ENDBRANCH  16  18
ENDBRANCH  15  16
ENDBRANCH   1  15
BRANCH   7  32
HETATM   32  C8  UNL     1      17.112   9.541   5.494  1.00  0.00     0.190 C 
BRANCH  32  33
HETATM   33  C9  UNL     1      17.033   8.271   6.343  1.00  0.00     0.188 C 
BRANCH  33  34
HETATM   34  N9  UNL     1      16.112   8.593   7.439  1.00  0.00    -0.215 N 
HETATM   35  N10 UNL     1      15.615   7.732   8.323  1.00  0.00    -0.003 NA
HETATM   36  N11 UNL     1      14.818   8.369   9.172  1.00  0.00    -0.265 N 
HETATM   37  C10 UNL     1      14.797   9.674   8.829  1.00  0.00     0.161 A 
ATOM     38  H11 UNL     1      14.309   7.945   9.947  1.00  0.00     0.186 HD
HETATM   39  N13 UNL     1      15.605   9.768   7.762  1.00  0.00    -0.268 N 
ATOM     40  H13 UNL     1      15.801  10.636   7.264  1.00  0.00     0.190 HD
BRANCH  37  41
HETATM   41  C11 UNL     1      14.044  10.721   9.505  1.00  0.00     0.079 A 
HETATM   42  C12 UNL     1      14.268  11.144  10.793  1.00  0.00     0.035 A 
HETATM   43  C13 UNL     1      13.372  12.141  11.093  1.00  0.00     0.019 A 
HETATM   44  C14 UNL     1      12.590  12.332   9.981  1.00  0.00     0.088 A 
HETATM   45  N12 UNL     1      13.024  11.465   9.054  1.00  0.00    -0.363 N 
ATOM     46  H12 UNL     1      12.626  11.382   8.118  1.00  0.00     0.165 HD
ENDBRANCH  37  41
ENDBRANCH  33  34
ENDBRANCH  32  33
ENDBRANCH   7  32
TORSDOF 7
ENDMDL
MODEL 2
REMARK VINA RESULT: -10.921343042      1.794      3.165
REMARK  7 active torsions:
REMARK  status: ('A' for Active; 'I' for Inactive)
REMARK    1  A    between atoms: C4_12  and  N5_13 
REMARK    2  A    between atoms: N5_13  and  C5_15 
REMARK    3  A    between atoms: C5_15  and  C6_16 
REMARK    4  A    between atoms: N8_22  and  C8_23 
REMARK    5  A    between atoms: C8_23  and  C9_24 
REMARK    6  A    between atoms: C9_24  and  N9_25 
REMARK    7  A    between atoms: C10_29  and  C11_30 
ROOT
HETATM    1  C6  UNL     1      18.866  10.030   0.682  1.00  0.00     0.155 A 
HETATM    2  N6  UNL     1      19.509   8.909   0.985  1.00  0.00    -0.271 N 
ATOM      3  H6  UNL     1      20.062   8.337   0.348  1.00  0.00     0.189 HD
HETATM    4  N7  UNL     1      19.299   8.675   2.268  1.00  0.00    -0.128 N 
ATOM      5  H7  UNL     1      19.673   7.877   2.782  1.00  0.00     0.205 HD
HETATM    6  C7  UNL     1      18.525   9.634   2.799  1.00  0.00     0.737 A 
HETATM    7  N8  UNL     1      17.916  10.088   3.902  1.00  0.00    -0.008 N 
HETATM    8  C15 UNL     1      17.253  11.242   3.595  1.00  0.00     0.708 A 
HETATM    9  N14 UNL     1      16.558  11.971   4.375  1.00  0.00    -0.233 N 
ATOM     10 1H14 UNL     1      16.062  12.832   4.146  1.00  0.00     0.174 HD
ATOM     11 2H14 UNL     1      16.375  11.822   5.367  1.00  0.00     0.174 HD
HETATM   12  N15 UNL     1      17.494  11.440   2.286  1.00  0.00    -0.109 N 
ATOM     13  H15 UNL     1      17.135  12.226   1.744  1.00  0.00     0.207 HD
HETATM   14  N16 UNL     1      18.251  10.488   1.801  1.00  0.00    -0.054 N 
ENDROOT
BRANCH   1  15
HETATM   15  C5  UNL     1      18.777  10.740  -0.638  1.00  0.00     0.201 C 
BRANCH  15  16
HETATM   16  N5  UNL     1      17.531  11.429  -0.669  1.00  0.00    -0.368 N 
ATOM     17  H5  UNL     1      17.497  12.337  -0.206  1.00  0.00     0.161 HD
BRANCH  16  18
HETATM   18  C4  UNL     1      16.451  11.025  -1.217  1.00  0.00     0.118 A 
HETATM   19  N4  UNL     1      15.383  10.847  -0.393  1.00  0.00    -0.284 N 
HETATM   20  N3  UNL     1      14.215  10.431  -0.855  1.00  0.00    -0.282 N 
ATOM     21  H4  UNL     1      15.485  11.037   0.603  1.00  0.00     0.188 HD
HETATM   22  C3  UNL     1      14.020  10.162  -2.161  1.00  0.00     0.151 A 
ATOM     23  H3  UNL     1      13.440  10.311  -0.203  1.00  0.00     0.188 HD
HETATM   24  N2  UNL     1      12.981   9.740  -2.890  1.00  0.00    -0.291 N 
HETATM   25  C17 UNL     1      15.076  10.329  -3.034  1.00  0.00     0.087 A 
HETATM   26  C2  UNL     1      13.373   9.648  -4.167  1.00  0.00     0.328 A 
ATOM     27  H2  UNL     1      12.050   9.526  -2.534  1.00  0.00     0.172 HD
HETATM   28  N1  UNL     1      14.662  10.005  -4.292  1.00  0.00    -0.300 N 
HETATM   29  O1  UNL     1      12.661   9.280  -5.147  1.00  0.00    -0.246 OA
HETATM   30  C1  UNL     1      15.489  10.052  -5.483  1.00  0.00     0.161 C 
HETATM   31  C16 UNL     1      16.284  10.762  -2.541  1.00  0.00     0.083 A 
ENDBRANCH  16  18
ENDBRANCH  15  16
ENDBRANCH   1  15
BRANCH   7  32
HETATM   32  C8  UNL     1      17.912   9.524   5.215  1.00  0.00     0.190 C 
BRANCH  32  33
HETATM   33  C9  UNL     1      16.783   8.504   5.364  1.00  0.00     0.188 C 
BRANCH  33  34
HETATM   34  N9  UNL     1      15.712   9.212   6.074  1.00  0.00    -0.215 N 
HETATM   35  N10 UNL     1      14.526   9.547   5.570  1.00  0.00    -0.003 NA
HETATM   36  N11 UNL     1      13.808  10.176   6.492  1.00  0.00    -0.265 N 
HETATM   37  C10 UNL     1      14.544  10.250   7.620  1.00  0.00     0.161 A 
ATOM     38  H11 UNL     1      12.864  10.541   6.368  1.00  0.00     0.186 HD
HETATM   39  N13 UNL     1      15.704   9.646   7.320  1.00  0.00    -0.268 N 
ATOM     40  H13 UNL     1      16.481   9.537   7.972  1.00  0.00     0.190 HD
BRANCH  37  41
HETATM   41  C11 UNL     1      14.127  10.864   8.872  1.00  0.00     0.079 A 
HETATM   42  C12 UNL     1      14.805  10.761  10.063  1.00  0.00     0.035 A 
HETATM   43  C13 UNL     1      14.121  11.464  11.024  1.00  0.00     0.019 A 
HETATM   44  C14 UNL     1      13.013  12.004  10.420  1.00  0.00     0.088 A 
HETATM   45  N12 UNL     1      13.053  11.623   9.134  1.00  0.00    -0.363 N 
ATOM     46  H12 UNL     1      12.351  11.879   8.440  1.00  0.00     0.165 HD
ENDBRANCH  37  41
ENDBRANCH  33  34
ENDBRANCH  32  33
ENDBRANCH   7  32
TORSDOF 7
ENDMDL
MODEL 3
REMARK VINA RESULT: -10.893722751      2.664      4.310
REMARK  7 active torsions:
REMARK  status: ('A' for Active; 'I' for Inactive)
REMARK    1  A    between atoms: C4_12  and  N5_13 
REMARK    2  A    between atoms: N5_13  and  C5_15 
REMARK    3  A    between atoms: C5_15  and  C6_16 
REMARK    4  A    between atoms: N8_22  and  C8_23 
REMARK    5  A    between atoms: C8_23  and  C9_24 
REMARK    6  A    between atoms: C9_24  and  N9_25 
REMARK    7  A    between atoms: C10_29  and  C11_30 
ROOT
HETATM    1  C6  UNL     1      14.040   8.898  -0.883  1.00  0.00     0.155 A 
HETATM    2  N6  UNL     1      14.383   7.675  -0.498  1.00  0.00    -0.271 N 
ATOM      3  H6  UNL     1      14.764   6.939  -1.091  1.00  0.00     0.189 HD
HETATM    4  N7  UNL     1      14.140   7.591   0.797  1.00  0.00    -0.128 N 
ATOM      5  H7  UNL     1      14.308   6.763   1.369  1.00  0.00     0.205 HD
HETATM    6  C7  UNL     1      13.641   8.750   1.256  1.00  0.00     0.737 A 
HETATM    7  N8  UNL     1      13.183   9.420   2.322  1.00  0.00    -0.008 N 
HETATM    8  C15 UNL     1      12.828  10.679   1.932  1.00  0.00     0.708 A 
HETATM    9  N14 UNL     1      12.351  11.613   2.656  1.00  0.00    -0.233 N 
ATOM     10 1H14 UNL     1      12.086  12.553   2.364  1.00  0.00     0.174 HD
ATOM     11 2H14 UNL     1      12.151  11.584   3.655  1.00  0.00     0.174 HD
HETATM   12  N15 UNL     1      13.092  10.717   0.613  1.00  0.00    -0.109 N 
ATOM     13  H15 UNL     1      12.935  11.529   0.015  1.00  0.00     0.207 HD
HETATM   14  N16 UNL     1      13.576   9.574   0.199  1.00  0.00    -0.054 N 
ENDROOT
BRANCH   1  15
HETATM   15  C5  UNL     1      14.113   9.514  -2.250  1.00  0.00     0.201 C 
BRANCH  15  16
HETATM   16  N5  UNL     1      14.837  10.735  -2.131  1.00  0.00    -0.368 N 
ATOM     17  H5  UNL     1      14.371  11.578  -2.465  1.00  0.00     0.161 HD
BRANCH  16  18
HETATM   18  C4  UNL     1      16.009  10.880  -1.648  1.00  0.00     0.118 A 
HETATM   19  N4  UNL     1      17.047  10.689  -2.508  1.00  0.00    -0.284 N 
HETATM   20  N3  UNL     1      18.303  10.815  -2.115  1.00  0.00    -0.282 N 
ATOM     21  H4  UNL     1      16.850  10.444  -3.478  1.00  0.00     0.188 HD
HETATM   22  C3  UNL     1      18.625  11.136  -0.846  1.00  0.00     0.151 A 
ATOM     23  H3  UNL     1      19.050  10.663  -2.792  1.00  0.00     0.188 HD
HETATM   24  N2  UNL     1      19.771  11.325  -0.185  1.00  0.00    -0.291 N 
HETATM   25  C17 UNL     1      17.604  11.339   0.061  1.00  0.00     0.087 A 
HETATM   26  C2  UNL     1      19.478  11.634   1.085  1.00  0.00     0.328 A 
ATOM     27  H2  UNL     1      20.708  11.248  -0.580  1.00  0.00     0.172 HD
HETATM   28  N1  UNL     1      18.148  11.652   1.272  1.00  0.00    -0.300 N 
HETATM   29  O1  UNL     1      20.308  11.881   2.009  1.00  0.00    -0.246 OA
HETATM   30  C1  UNL     1      17.396  11.934   2.480  1.00  0.00     0.161 C 
HETATM   31  C16 UNL     1      16.302  11.206  -0.361  1.00  0.00     0.083 A 
ENDBRANCH  16  18
ENDBRANCH  15  16
ENDBRANCH   1  15
BRANCH   7  32
HETATM   32  C8  UNL     1      13.057   8.968   3.673  1.00  0.00     0.190 C 
BRANCH  32  33
HETATM   33  C9  UNL     1      14.337   9.249   4.461  1.00  0.00     0.188 C 
BRANCH  33  34
HETATM   34  N9  UNL     1      13.918   9.334   5.864  1.00  0.00    -0.215 N 
HETATM   35  N10 UNL     1      13.340   8.364   6.569  1.00  0.00    -0.003 NA
HETATM   36  N11 UNL     1      13.099   8.788   7.803  1.00  0.00    -0.265 N 
HETATM   37  C10 UNL     1      13.531  10.063   7.901  1.00  0.00     0.161 A 
ATOM     38  H11 UNL     1      12.663   8.244   8.548  1.00  0.00     0.186 HD
HETATM   39  N13 UNL     1      14.027  10.358   6.690  1.00  0.00    -0.268 N 
ATOM     40  H13 UNL     1      14.434  11.258   6.439  1.00  0.00     0.190 HD
BRANCH  37  41
HETATM   41  C11 UNL     1      13.454  10.900   9.090  1.00  0.00     0.079 A 
HETATM   42  C12 UNL     1      14.292  10.802  10.175  1.00  0.00     0.035 A 
HETATM   43  C13 UNL     1      13.925  11.746  11.102  1.00  0.00     0.019 A 
HETATM   44  C14 UNL     1      12.853  12.430  10.584  1.00  0.00     0.088 A 
HETATM   45  N12 UNL     1      12.603  11.894   9.380  1.00  0.00    -0.363 N 
ATOM     46  H12 UNL     1      11.855  12.205   8.760  1.00  0.00     0.165 HD
ENDBRANCH  37  41
ENDBRANCH  33  34
ENDBRANCH  32  33
ENDBRANCH   7  32
TORSDOF 7
ENDMDL
MODEL 4
REMARK VINA RESULT: -10.818818439      3.709      5.998
REMARK  7 active torsions:
REMARK  status: ('A' for Active; 'I' for Inactive)
REMARK    1  A    between atoms: C4_12  and  N5_13 
REMARK    2  A    between atoms: N5_13  and  C5_15 
REMARK    3  A    between atoms: C5_15  and  C6_16 
REMARK    4  A    between atoms: N8_22  and  C8_23 
REMARK    5  A    between atoms: C8_23  and  C9_24 
REMARK    6  A    between atoms: C9_24  and  N9_25 
REMARK    7  A    between atoms: C10_29  and  C11_30 
ROOT
HETATM    1  C6  UNL     1      16.904  10.500  -0.389  1.00  0.00     0.155 A 
HETATM    2  N6  UNL     1      15.797   9.815  -0.647  1.00  0.00    -0.271 N 
ATOM      3  H6  UNL     1      15.564   9.349  -1.523  1.00  0.00     0.189 HD
HETATM    4  N7  UNL     1      15.053   9.852   0.443  1.00  0.00    -0.128 N 
ATOM      5  H7  UNL     1      14.139   9.408   0.540  1.00  0.00     0.205 HD
HETATM    6  C7  UNL     1      15.669  10.555   1.407  1.00  0.00     0.737 A 
HETATM    7  N8  UNL     1      15.603  11.014   2.664  1.00  0.00    -0.008 N 
HETATM    8  C15 UNL     1      16.741  11.720   2.934  1.00  0.00     0.708 A 
HETATM    9  N14 UNL     1      17.050  12.309   4.020  1.00  0.00    -0.233 N 
ATOM     10 1H14 UNL     1      17.900  12.836   4.222  1.00  0.00     0.174 HD
ATOM     11 2H14 UNL     1      16.504  12.358   4.879  1.00  0.00     0.174 HD
HETATM   12  N15 UNL     1      17.463  11.655   1.801  1.00  0.00    -0.109 N 
ATOM     13  H15 UNL     1      18.378  12.087   1.673  1.00  0.00     0.207 HD
HETATM   14  N16 UNL     1      16.835  10.964   0.884  1.00  0.00    -0.054 N 
ENDROOT
BRANCH   1  15
HETATM   15  C5  UNL     1      18.080  10.768  -1.284  1.00  0.00     0.201 C 
BRANCH  15  16
HETATM   16  N5  UNL     1      19.144   9.923  -0.857  1.00  0.00    -0.368 N 
ATOM     17  H5  UNL     1      19.279   9.056  -1.378  1.00  0.00     0.161 HD
BRANCH  16  18
HETATM   18  C4  UNL     1      19.945  10.140   0.112  1.00  0.00     0.118 A 
HETATM   19  N4  UNL     1      20.570  11.349   0.124  1.00  0.00    -0.284 N 
HETATM   20  N3  UNL     1      21.420  11.679   1.081  1.00  0.00    -0.282 N 
ATOM     21  H4  UNL     1      20.377  12.016  -0.623  1.00  0.00     0.188 HD
HETATM   22  C3  UNL     1      21.716  10.840   2.093  1.00  0.00     0.151 A 
ATOM     23  H3  UNL     1      21.866  12.596   1.052  1.00  0.00     0.188 HD
HETATM   24  N2  UNL     1      22.513  10.902   3.165  1.00  0.00    -0.291 N 
HETATM   25  C17 UNL     1      21.106   9.601   2.122  1.00  0.00     0.087 A 
HETATM   26  C2  UNL     1      22.404   9.748   3.836  1.00  0.00     0.328 A 
ATOM     27  H2  UNL     1      23.102  11.692   3.426  1.00  0.00     0.172 HD
HETATM   28  N1  UNL     1      21.543   8.922   3.220  1.00  0.00    -0.300 N 
HETATM   29  O1  UNL     1      23.011   9.441   4.905  1.00  0.00    -0.246 OA
HETATM   30  C1  UNL     1      21.129   7.582   3.595  1.00  0.00     0.161 C 
HETATM   31  C16 UNL     1      20.223   9.271   1.121  1.00  0.00     0.083 A 
ENDBRANCH  16  18
ENDBRANCH  15  16
ENDBRANCH   1  15
BRANCH   7  32
HETATM   32  C8  UNL     1      14.558  10.840   3.623  1.00  0.00     0.190 C 
BRANCH  32  33
HETATM   33  C9  UNL     1      14.373   9.360   3.961  1.00  0.00     0.188 C 
BRANCH  33  34
HETATM   34  N9  UNL     1      14.071   9.324   5.396  1.00  0.00    -0.215 N 
HETATM   35  N10 UNL     1      13.655   8.263   6.084  1.00  0.00    -0.003 NA
HETATM   36  N11 UNL     1      13.481   8.592   7.357  1.00  0.00    -0.265 N 
HETATM   37  C10 UNL     1      13.791   9.898   7.500  1.00  0.00     0.161 A 
ATOM     38  H11 UNL     1      13.167   7.967   8.099  1.00  0.00     0.186 HD
HETATM   39  N13 UNL     1      14.148  10.308   6.273  1.00  0.00    -0.268 N 
ATOM     40  H13 UNL     1      14.442  11.258   6.047  1.00  0.00     0.190 HD
BRANCH  37  41
HETATM   41  C11 UNL     1      13.735  10.657   8.741  1.00  0.00     0.079 A 
HETATM   42  C12 UNL     1      14.628  10.534   9.778  1.00  0.00     0.035 A 
HETATM   43  C13 UNL     1      14.265  11.402  10.779  1.00  0.00     0.019 A 
HETATM   44  C14 UNL     1      13.140  12.063  10.355  1.00  0.00     0.088 A 
HETATM   45  N12 UNL     1      12.856  11.590   9.132  1.00  0.00    -0.363 N 
ATOM     46  H12 UNL     1      12.065  11.902   8.567  1.00  0.00     0.165 HD
ENDBRANCH  37  41
ENDBRANCH  33  34
ENDBRANCH  32  33
ENDBRANCH   7  32
TORSDOF 7
ENDMDL
MODEL 5
REMARK VINA RESULT: -10.579738820      5.905      7.260
REMARK  7 active torsions:
REMARK  status: ('A' for Active; 'I' for Inactive)
REMARK    1  A    between atoms: C4_12  and  N5_13 
REMARK    2  A    between atoms: N5_13  and  C5_15 
REMARK    3  A    between atoms: C5_15  and  C6_16 
REMARK    4  A    between atoms: N8_22  and  C8_23 
REMARK    5  A    between atoms: C8_23  and  C9_24 
REMARK    6  A    between atoms: C9_24  and  N9_25 
REMARK    7  A    between atoms: C10_29  and  C11_30 
ROOT
HETATM    1  C6  UNL     1      19.117  11.654   0.528  1.00  0.00     0.155 A 
HETATM    2  N6  UNL     1      19.614  12.382   1.520  1.00  0.00    -0.271 N 
ATOM      3  H6  UNL     1      19.283  13.297   1.824  1.00  0.00     0.189 HD
HETATM    4  N7  UNL     1      20.618  11.699   2.040  1.00  0.00    -0.128 N 
ATOM      5  H7  UNL     1      21.192  12.013   2.823  1.00  0.00     0.205 HD
HETATM    6  C7  UNL     1      20.776  10.534   1.392  1.00  0.00     0.737 A 
HETATM    7  N8  UNL     1      21.480   9.397   1.303  1.00  0.00    -0.008 N 
HETATM    8  C15 UNL     1      20.972   8.644   0.283  1.00  0.00     0.708 A 
HETATM    9  N14 UNL     1      21.370   7.501  -0.113  1.00  0.00    -0.233 N 
ATOM     10 1H14 UNL     1      20.991   6.939  -0.874  1.00  0.00     0.174 HD
ATOM     11 2H14 UNL     1      22.138   6.945   0.263  1.00  0.00     0.174 HD
HETATM   12  N15 UNL     1      19.958   9.377  -0.213  1.00  0.00    -0.109 N 
ATOM     13  H15 UNL     1      19.366   9.092  -0.994  1.00  0.00     0.207 HD
HETATM   14  N16 UNL     1      19.832  10.504   0.440  1.00  0.00    -0.054 N 
ENDROOT
BRANCH   1  15
HETATM   15  C5  UNL     1      17.970  11.966  -0.389  1.00  0.00     0.201 C 
BRANCH  15  16
HETATM   16  N5  UNL     1      16.879  11.133  -0.008  1.00  0.00    -0.368 N 
ATOM     17  H5  UNL     1      16.886  10.780   0.949  1.00  0.00     0.161 HD
BRANCH  16  18
HETATM   18  C4  UNL     1      15.894  10.785  -0.741  1.00  0.00     0.118 A 
HETATM   19  N4  UNL     1      14.719  10.539  -0.101  1.00  0.00    -0.284 N 
HETATM   20  N3  UNL     1      13.634  10.172  -0.762  1.00  0.00    -0.282 N 
ATOM     21  H4  UNL     1      14.673  10.641   0.913  1.00  0.00     0.188 HD
HETATM   22  C3  UNL     1      13.633  10.020  -2.102  1.00  0.00     0.151 A 
ATOM     23  H3  UNL     1      12.774   9.999  -0.244  1.00  0.00     0.188 HD
HETATM   24  N2  UNL     1      12.715   9.670  -3.008  1.00  0.00    -0.291 N 
HETATM   25  C17 UNL     1      14.805  10.258  -2.793  1.00  0.00     0.087 A 
HETATM   26  C2  UNL     1      13.291   9.688  -4.217  1.00  0.00     0.328 A 
ATOM     27  H2  UNL     1      11.744   9.429  -2.812  1.00  0.00     0.172 HD
HETATM   28  N1  UNL     1      14.581  10.048  -4.121  1.00  0.00    -0.300 N 
HETATM   29  O1  UNL     1      12.731   9.412  -5.320  1.00  0.00    -0.246 OA
HETATM   30  C1  UNL     1      15.572  10.196  -5.171  1.00  0.00     0.161 C 
HETATM   31  C16 UNL     1      15.924  10.640  -2.092  1.00  0.00     0.083 A 
ENDBRANCH  16  18
ENDBRANCH  15  16
ENDBRANCH   1  15
BRANCH   7  32
HETATM   32  C8  UNL     1      22.586   8.968   2.100  1.00  0.00     0.190 C 
BRANCH  32  33
HETATM   33  C9  UNL     1      22.123   8.571   3.502  1.00  0.00     0.188 C 
BRANCH  33  34
HETATM   34  N9  UNL     1      22.005   7.109   3.472  1.00  0.00    -0.215 N 
HETATM   35  N10 UNL     1      22.878   6.242   3.979  1.00  0.00    -0.003 NA
HETATM   36  N11 UNL     1      22.452   5.002   3.773  1.00  0.00    -0.265 N 
HETATM   37  C10 UNL     1      21.275   5.066   3.118  1.00  0.00     0.161 A 
ATOM     38  H11 UNL     1      22.932   4.150   4.060  1.00  0.00     0.186 HD
HETATM   39  N13 UNL     1      21.037   6.377   2.954  1.00  0.00    -0.268 N 
ATOM     40  H13 UNL     1      20.214   6.758   2.487  1.00  0.00     0.190 HD
BRANCH  37  41
HETATM   41  C11 UNL     1      20.469   3.929   2.698  1.00  0.00     0.079 A 
HETATM   42  C12 UNL     1      19.695   3.162   3.536  1.00  0.00     0.035 A 
HETATM   43  C13 UNL     1      19.081   2.182   2.796  1.00  0.00     0.019 A 
HETATM   44  C14 UNL     1      19.479   2.346   1.493  1.00  0.00     0.088 A 
HETATM   45  N12 UNL     1      20.308   3.401   1.476  1.00  0.00    -0.363 N 
ATOM     46  H12 UNL     1      20.762   3.758   0.635  1.00  0.00     0.165 HD
ENDBRANCH  37  41
ENDBRANCH  33  34
ENDBRANCH  32  33
ENDBRANCH   7  32
TORSDOF 7
ENDMDL
