MODEL 1
REMARK VINA RESULT: -9.606215741      0.000      0.000
REMARK  10 active torsions:
REMARK  status: ('A' for Active; 'I' for Inactive)
REMARK    1  A    between atoms: C2_5  and  C3_6 
REMARK    2  A    between atoms: C3_6  and  O1_7 
REMARK    3  A    between atoms: O1_7  and  C4_8 
REMARK    4  A    between atoms: C4_8  and  C5_9 
REMARK    5  A    between atoms: C6_10  and  C7_11 
REMARK    6  A    between atoms: C10_16  and  N4_17 
REMARK    7  A    between atoms: N6_27  and  N7_29 
REMARK    8  A    between atoms: C17_34  and  C18_35 
REMARK    9  A    between atoms: C18_35  and  N10_36 
REMARK   10  A    between atoms: C18_35  and  N11_40 
ROOT
HETATM    1  C4  UNL     1      20.729   9.622   1.989  1.00  0.00     0.157 C 
HETATM    2  N6  UNL     1      21.865   9.593   1.313  1.00  0.00    -0.278 N 
ATOM      3  H6  UNL     1      22.765   9.575   1.795  1.00  0.00     0.189 HD
ENDROOT
BRANCH   1   4
HETATM    4  O1  UNL     1      20.847   9.611   3.265  1.00  0.00    -0.329 OA
BRANCH   4   5
HETATM    5  C3  UNL     1      20.783   8.892   4.382  1.00  0.00     0.238 C 
BRANCH   5   6
HETATM    6  C2  UNL     1      20.204   7.526   4.198  1.00  0.00     0.079 A 
HETATM    7  N2  UNL     1      20.927   6.448   3.951  1.00  0.00    -0.284 N 
HETATM    8  N1  UNL     1      20.155   5.359   4.090  1.00  0.00    -0.238 N 
ATOM      9  H2  UNL     1      21.915   6.445   3.695  1.00  0.00     0.188 HD
HETATM   10  C1  UNL     1      20.525   3.963   3.886  1.00  0.00     0.200 C 
HETATM   11  N12 UNL     1      18.938   5.813   4.438  1.00  0.00    -0.283 N 
HETATM   12  C17 UNL     1      18.945   7.112   4.502  1.00  0.00     0.110 A 
ATOM     13  H12 UNL     1      18.127   5.223   4.625  1.00  0.00     0.188 HD
BRANCH  12  14
HETATM   14  C18 UNL     1      17.845   8.149   4.656  1.00  0.00     0.430 C 
BRANCH  14  15
HETATM   15  N10 UNL     1      16.972   8.064   3.524  1.00  0.00    -0.045 N 
ATOM     16 3H10 UNL     1      17.070   7.181   3.022  1.00  0.00     0.277 HD
ATOM     17 2H10 UNL     1      15.993   7.965   3.792  1.00  0.00     0.277 HD
ATOM     18 1H10 UNL     1      17.133   8.873   2.926  1.00  0.00     0.277 HD
ENDBRANCH  14  15
BRANCH  14  19
HETATM   19  N11 UNL     1      17.231   8.275   5.895  1.00  0.00    -0.045 N 
ATOM     20 3H11 UNL     1      17.424   7.439   6.448  1.00  0.00     0.277 HD
ATOM     21 2H11 UNL     1      17.720   8.986   6.438  1.00  0.00     0.277 HD
ATOM     22 1H11 UNL     1      16.230   8.467   5.919  1.00  0.00     0.277 HD
ENDBRANCH  14  19
ENDBRANCH  12  14
ENDBRANCH   5   6
ENDBRANCH   4   5
ENDBRANCH   1   4
BRANCH   1  23
HETATM   23  C5  UNL     1      19.459   9.639   1.292  1.00  0.00     0.060 C 
HETATM   24  C6  UNL     1      18.497  10.470   1.563  1.00  0.00     0.039 C 
BRANCH  24  25
HETATM   25  C7  UNL     1      17.201  10.538   0.892  1.00  0.00     0.101 A 
HETATM   26  N3  UNL     1      17.191  10.508  -0.486  1.00  0.00    -0.350 N 
HETATM   27  C8  UNL     1      16.027  10.480  -1.113  1.00  0.00     0.062 A 
ATOM     28  H3  UNL     1      18.065  10.506  -1.012  1.00  0.00     0.166 HD
HETATM   29  C9  UNL     1      16.004  10.403  -2.479  1.00  0.00     0.068 A 
HETATM   30  C13 UNL     1      14.845  10.488  -0.423  1.00  0.00     0.064 A 
HETATM   31  C10 UNL     1      14.845  10.299  -3.204  1.00  0.00     0.105 A 
HETATM   32  C11 UNL     1      13.646  10.295  -2.496  1.00  0.00     0.038 A 
HETATM   33  C12 UNL     1      13.620  10.389  -1.131  1.00  0.00     0.034 A 
HETATM   34  N5  UNL     1      14.797  10.531   0.890  1.00  0.00    -0.315 N 
HETATM   35  C14 UNL     1      13.617  10.540   1.712  1.00  0.00     0.160 C 
HETATM   36  C15 UNL     1      16.006  10.555   1.521  1.00  0.00     0.274 A 
HETATM   37  O4  UNL     1      15.967  10.584   2.778  1.00  0.00    -0.265 OA
BRANCH  31  38
HETATM   38  N4  UNL     1      14.855  10.135  -4.575  1.00  0.00    -0.116 N 
HETATM   39  O2  UNL     1      14.072   9.277  -5.113  1.00  0.00    -0.532 OA
HETATM   40  O3  UNL     1      15.659  10.761  -5.447  1.00  0.00    -0.532 OA
ENDBRANCH  31  38
ENDBRANCH  24  25
ENDBRANCH   1  23
BRANCH   2  41
HETATM   41  N7  UNL     1      21.793   9.587  -0.096  1.00  0.00    -0.274 N 
HETATM   42  C16 UNL     1      22.679   8.802  -0.716  1.00  0.00     0.215 C 
HETATM   43  N8  UNL     1      22.718   8.705  -2.099  1.00  0.00    -0.065 NA
HETATM   44  N9  UNL     1      23.545   8.054   0.121  1.00  0.00    -0.065 NA
ATOM     45  H7  UNL     1      21.110  10.144  -0.608  1.00  0.00     0.189 HD
ENDBRANCH   2  41
TORSDOF 10
ENDMDL
MODEL 2
REMARK VINA RESULT: -9.406419128      1.800      2.734
REMARK  10 active torsions:
REMARK  status: ('A' for Active; 'I' for Inactive)
REMARK    1  A    between atoms: C2_5  and  C3_6 
REMARK    2  A    between atoms: C3_6  and  O1_7 
REMARK    3  A    between atoms: O1_7  and  C4_8 
REMARK    4  A    between atoms: C4_8  and  C5_9 
REMARK    5  A    between atoms: C6_10  and  C7_11 
REMARK    6  A    between atoms: C10_16  and  N4_17 
REMARK    7  A    between atoms: N6_27  and  N7_29 
REMARK    8  A    between atoms: C17_34  and  C18_35 
REMARK    9  A    between atoms: C18_35  and  N10_36 
REMARK   10  A    between atoms: C18_35  and  N11_40 
ROOT
HETATM    1  C4  UNL     1      20.079   9.043   3.182  1.00  0.00     0.157 C 
HETATM    2  N6  UNL     1      21.067   9.922   3.223  1.00  0.00    -0.278 N 
ATOM      3  H6  UNL     1      21.898   9.754   3.789  1.00  0.00     0.189 HD
ENDROOT
BRANCH   1   4
HETATM    4  O1  UNL     1      20.254   7.986   3.883  1.00  0.00    -0.329 OA
BRANCH   4   5
HETATM    5  C3  UNL     1      19.688   7.030   4.616  1.00  0.00     0.238 C 
BRANCH   5   6
HETATM    6  C2  UNL     1      20.019   5.642   4.171  1.00  0.00     0.079 A 
HETATM    7  N2  UNL     1      19.117   4.764   3.768  1.00  0.00    -0.284 N 
HETATM    8  N1  UNL     1      19.742   3.719   3.204  1.00  0.00    -0.238 N 
ATOM      9  H2  UNL     1      18.107   4.866   3.869  1.00  0.00     0.188 HD
HETATM   10  C1  UNL     1      19.147   2.509   2.648  1.00  0.00     0.200 C 
HETATM   11  N12 UNL     1      21.056   3.995   3.272  1.00  0.00    -0.283 N 
HETATM   12  C17 UNL     1      21.243   5.143   3.856  1.00  0.00     0.110 A 
ATOM     13  H12 UNL     1      21.798   3.392   2.917  1.00  0.00     0.188 HD
BRANCH  12  14
HETATM   14  C18 UNL     1      22.484   5.858   4.364  1.00  0.00     0.430 C 
BRANCH  14  15
HETATM   15  N10 UNL     1      23.403   4.881   4.866  1.00  0.00    -0.045 N 
ATOM     16 3H10 UNL     1      22.964   4.230   5.517  1.00  0.00     0.277 HD
ATOM     17 2H10 UNL     1      23.679   4.203   4.156  1.00  0.00     0.277 HD
ATOM     18 1H10 UNL     1      24.202   5.364   5.276  1.00  0.00     0.277 HD
ENDBRANCH  14  15
BRANCH  14  19
HETATM   19  N11 UNL     1      23.029   6.865   3.579  1.00  0.00    -0.045 N 
ATOM     20 3H11 UNL     1      22.406   7.047   2.792  1.00  0.00     0.277 HD
ATOM     21 2H11 UNL     1      22.971   7.749   4.083  1.00  0.00     0.277 HD
ATOM     22 1H11 UNL     1      23.979   6.742   3.229  1.00  0.00     0.277 HD
ENDBRANCH  14  19
ENDBRANCH  12  14
ENDBRANCH   5   6
ENDBRANCH   4   5
ENDBRANCH   1   4
BRANCH   1  23
HETATM   23  C5  UNL     1      18.908   9.292   2.367  1.00  0.00     0.060 C 
HETATM   24  C6  UNL     1      17.794   9.776   2.830  1.00  0.00     0.039 C 
BRANCH  24  25
HETATM   25  C7  UNL     1      16.585  10.052   2.057  1.00  0.00     0.101 A 
HETATM   26  N3  UNL     1      16.694  10.074   0.683  1.00  0.00    -0.350 N 
HETATM   27  C8  UNL     1      15.600  10.235  -0.040  1.00  0.00     0.062 A 
ATOM     28  H3  UNL     1      17.603   9.968   0.233  1.00  0.00     0.166 HD
HETATM   29  C9  UNL     1      15.688  10.212  -1.405  1.00  0.00     0.068 A 
HETATM   30  C13 UNL     1      14.373  10.386   0.549  1.00  0.00     0.064 A 
HETATM   31  C10 UNL     1      14.597  10.301  -2.229  1.00  0.00     0.105 A 
HETATM   32  C11 UNL     1      13.349  10.440  -1.624  1.00  0.00     0.038 A 
HETATM   33  C12 UNL     1      13.214  10.487  -0.263  1.00  0.00     0.034 A 
HETATM   34  N5  UNL     1      14.213  10.387   1.854  1.00  0.00    -0.315 N 
HETATM   35  C14 UNL     1      12.977  10.533   2.573  1.00  0.00     0.160 C 
HETATM   36  C15 UNL     1      15.352  10.216   2.584  1.00  0.00     0.274 A 
HETATM   37  O4  UNL     1      15.205  10.204   3.833  1.00  0.00    -0.265 OA
BRANCH  31  38
HETATM   38  N4  UNL     1      14.707  10.187  -3.600  1.00  0.00    -0.116 N 
HETATM   39  O2  UNL     1      15.784  10.565  -4.180  1.00  0.00    -0.532 OA
HETATM   40  O3  UNL     1      13.758   9.756  -4.443  1.00  0.00    -0.532 OA
ENDBRANCH  31  38
ENDBRANCH  24  25
ENDBRANCH   1  23
BRANCH   2  41
HETATM   41  N7  UNL     1      20.933  11.099   2.455  1.00  0.00    -0.274 N 
HETATM   42  C16 UNL     1      21.764  11.205   1.414  1.00  0.00     0.215 C 
HETATM   43  N8  UNL     1      21.739  12.312   0.578  1.00  0.00    -0.065 NA
HETATM   44  N9  UNL     1      22.639  10.111   1.196  1.00  0.00    -0.065 NA
ATOM     45  H7  UNL     1      20.249  11.820   2.680  1.00  0.00     0.189 HD
ENDBRANCH   2  41
TORSDOF 10
ENDMDL
MODEL 3
REMARK VINA RESULT: -9.281630258      1.556      2.290
REMARK  10 active torsions:
REMARK  status: ('A' for Active; 'I' for Inactive)
REMARK    1  A    between atoms: C2_5  and  C3_6 
REMARK    2  A    between atoms: C3_6  and  O1_7 
REMARK    3  A    between atoms: O1_7  and  C4_8 
REMARK    4  A    between atoms: C4_8  and  C5_9 
REMARK    5  A    between atoms: C6_10  and  C7_11 
REMARK    6  A    between atoms: C10_16  and  N4_17 
REMARK    7  A    between atoms: N6_27  and  N7_29 
REMARK    8  A    between atoms: C17_34  and  C18_35 
REMARK    9  A    between atoms: C18_35  and  N10_36 
REMARK   10  A    between atoms: C18_35  and  N11_40 
ROOT
HETATM    1  C4  UNL     1      20.431   9.858   2.239  1.00  0.00     0.157 C 
HETATM    2  N6  UNL     1      21.577   9.821   1.579  1.00  0.00    -0.278 N 
ATOM      3  H6  UNL     1      22.469   9.875   2.070  1.00  0.00     0.189 HD
ENDROOT
BRANCH   1   4
HETATM    4  O1  UNL     1      20.532   9.951   3.513  1.00  0.00    -0.329 OA
BRANCH   4   5
HETATM    5  C3  UNL     1      20.319   9.371   4.691  1.00  0.00     0.238 C 
BRANCH   5   6
HETATM    6  C2  UNL     1      21.197   8.190   4.959  1.00  0.00     0.079 A 
HETATM    7  N2  UNL     1      21.052   7.018   4.367  1.00  0.00    -0.284 N 
HETATM    8  N1  UNL     1      22.129   6.259   4.624  1.00  0.00    -0.238 N 
ATOM      9  H2  UNL     1      20.249   6.735   3.804  1.00  0.00     0.188 HD
HETATM   10  C1  UNL     1      22.384   4.887   4.200  1.00  0.00     0.200 C 
HETATM   11  N12 UNL     1      22.937   7.015   5.388  1.00  0.00    -0.283 N 
HETATM   12  C17 UNL     1      22.392   8.177   5.606  1.00  0.00     0.110 A 
ATOM     13  H12 UNL     1      23.847   6.720   5.744  1.00  0.00     0.188 HD
BRANCH  12  14
HETATM   14  C18 UNL     1      22.746   9.332   6.526  1.00  0.00     0.430 C 
BRANCH  14  15
HETATM   15  N10 UNL     1      23.136   8.802   7.798  1.00  0.00    -0.045 N 
ATOM     16 3H10 UNL     1      22.537   8.034   8.101  1.00  0.00     0.277 HD
ATOM     17 2H10 UNL     1      24.014   8.285   7.753  1.00  0.00     0.277 HD
ATOM     18 1H10 UNL     1      23.167   9.564   8.474  1.00  0.00     0.277 HD
ENDBRANCH  14  15
BRANCH  14  19
HETATM   19  N11 UNL     1      23.536  10.356   6.020  1.00  0.00    -0.045 N 
ATOM     20 3H11 UNL     1      23.083  11.250   6.210  1.00  0.00     0.277 HD
ATOM     21 2H11 UNL     1      24.378  10.439   6.590  1.00  0.00     0.277 HD
ATOM     22 1H11 UNL     1      23.802  10.318   5.037  1.00  0.00     0.277 HD
ENDBRANCH  14  19
ENDBRANCH  12  14
ENDBRANCH   5   6
ENDBRANCH   4   5
ENDBRANCH   1   4
BRANCH   1  23
HETATM   23  C5  UNL     1      19.171   9.773   1.529  1.00  0.00     0.060 C 
HETATM   24  C6  UNL     1      18.197  10.621   1.680  1.00  0.00     0.039 C 
BRANCH  24  25
HETATM   25  C7  UNL     1      16.910  10.589   0.990  1.00  0.00     0.101 A 
HETATM   26  N3  UNL     1      16.923  10.583  -0.388  1.00  0.00    -0.350 N 
HETATM   27  C8  UNL     1      15.776  10.466  -1.035  1.00  0.00     0.062 A 
ATOM     28  H3  UNL     1      17.801  10.667  -0.900  1.00  0.00     0.166 HD
HETATM   29  C9  UNL     1      15.778  10.413  -2.402  1.00  0.00     0.068 A 
HETATM   30  C13 UNL     1      14.587  10.359  -0.363  1.00  0.00     0.064 A 
HETATM   31  C10 UNL     1      14.644  10.222  -3.148  1.00  0.00     0.105 A 
HETATM   32  C11 UNL     1      13.439  10.101  -2.459  1.00  0.00     0.038 A 
HETATM   33  C12 UNL     1      13.385  10.167  -1.093  1.00  0.00     0.034 A 
HETATM   34  N5  UNL     1      14.516  10.374   0.949  1.00  0.00    -0.315 N 
HETATM   35  C14 UNL     1      13.328  10.264   1.752  1.00  0.00     0.160 C 
HETATM   36  C15 UNL     1      15.709  10.490   1.600  1.00  0.00     0.274 A 
HETATM   37  O4  UNL     1      15.650  10.492   2.856  1.00  0.00    -0.265 OA
BRANCH  31  38
HETATM   38  N4  UNL     1      14.688  10.086  -4.520  1.00  0.00    -0.116 N 
HETATM   39  O2  UNL     1      13.651   9.671  -5.146  1.00  0.00    -0.532 OA
HETATM   40  O3  UNL     1      15.751  10.298  -5.309  1.00  0.00    -0.532 OA
ENDBRANCH  31  38
ENDBRANCH  24  25
ENDBRANCH   1  23
BRANCH   2  41
HETATM   41  N7  UNL     1      21.523   9.703   0.174  1.00  0.00    -0.274 N 
HETATM   42  C16 UNL     1      22.440   8.899  -0.372  1.00  0.00     0.215 C 
HETATM   43  N8  UNL     1      22.500   8.695  -1.743  1.00  0.00    -0.065 NA
HETATM   44  N9  UNL     1      23.316   8.243   0.530  1.00  0.00    -0.065 NA
ATOM     45  H7  UNL     1      20.832  10.199  -0.388  1.00  0.00     0.189 HD
ENDBRANCH   2  41
TORSDOF 10
ENDMDL
MODEL 4
REMARK VINA RESULT: -9.210740699      0.743      2.050
REMARK  10 active torsions:
REMARK  status: ('A' for Active; 'I' for Inactive)
REMARK    1  A    between atoms: C2_5  and  C3_6 
REMARK    2  A    between atoms: C3_6  and  O1_7 
REMARK    3  A    between atoms: O1_7  and  C4_8 
REMARK    4  A    between atoms: C4_8  and  C5_9 
REMARK    5  A    between atoms: C6_10  and  C7_11 
REMARK    6  A    between atoms: C10_16  and  N4_17 
REMARK    7  A    between atoms: N6_27  and  N7_29 
REMARK    8  A    between atoms: C17_34  and  C18_35 
REMARK    9  A    between atoms: C18_35  and  N10_36 
REMARK   10  A    between atoms: C18_35  and  N11_40 
ROOT
HETATM    1  C4  UNL     1      20.628  10.014   1.921  1.00  0.00     0.157 C 
HETATM    2  N6  UNL     1      21.768   9.881   1.265  1.00  0.00    -0.278 N 
ATOM      3  H6  UNL     1      22.664   9.920   1.751  1.00  0.00     0.189 HD
ENDROOT
BRANCH   1   4
HETATM    4  O1  UNL     1      20.737  10.177   3.187  1.00  0.00    -0.329 OA
BRANCH   4   5
HETATM    5  C3  UNL     1      20.778   9.598   4.384  1.00  0.00     0.238 C 
BRANCH   5   6
HETATM    6  C2  UNL     1      19.515   8.897   4.768  1.00  0.00     0.079 A 
HETATM    7  N2  UNL     1      18.455   9.510   5.265  1.00  0.00    -0.284 N 
HETATM    8  N1  UNL     1      17.416   8.661   5.266  1.00  0.00    -0.238 N 
ATOM      9  H2  UNL     1      18.432  10.475   5.595  1.00  0.00     0.188 HD
HETATM   10  C1  UNL     1      16.061   8.900   5.750  1.00  0.00     0.200 C 
HETATM   11  N12 UNL     1      17.879   7.511   4.745  1.00  0.00    -0.283 N 
HETATM   12  C17 UNL     1      19.140   7.630   4.445  1.00  0.00     0.110 A 
ATOM     13  H12 UNL     1      17.322   6.668   4.605  1.00  0.00     0.188 HD
BRANCH  12  14
HETATM   14  C18 UNL     1      20.203   6.633   4.016  1.00  0.00     0.430 C 
BRANCH  14  15
HETATM   15  N10 UNL     1      19.687   5.309   4.196  1.00  0.00    -0.045 N 
ATOM     16 3H10 UNL     1      19.229   5.187   5.099  1.00  0.00     0.277 HD
ATOM     17 2H10 UNL     1      18.880   5.120   3.602  1.00  0.00     0.277 HD
ATOM     18 1H10 UNL     1      20.444   4.641   4.048  1.00  0.00     0.277 HD
ENDBRANCH  14  15
BRANCH  14  19
HETATM   19  N11 UNL     1      20.885   6.870   2.831  1.00  0.00    -0.045 N 
ATOM     20 3H11 UNL     1      20.506   6.263   2.103  1.00  0.00     0.277 HD
ATOM     21 2H11 UNL     1      20.623   7.789   2.474  1.00  0.00     0.277 HD
ATOM     22 1H11 UNL     1      21.901   6.791   2.835  1.00  0.00     0.277 HD
ENDBRANCH  14  19
ENDBRANCH  12  14
ENDBRANCH   5   6
ENDBRANCH   4   5
ENDBRANCH   1   4
BRANCH   1  23
HETATM   23  C5  UNL     1      19.363   9.950   1.217  1.00  0.00     0.060 C 
HETATM   24  C6  UNL     1      18.305  10.620   1.568  1.00  0.00     0.039 C 
BRANCH  24  25
HETATM   25  C7  UNL     1      17.008  10.599   0.896  1.00  0.00     0.101 A 
HETATM   26  N3  UNL     1      17.001  10.603  -0.482  1.00  0.00    -0.350 N 
HETATM   27  C8  UNL     1      15.844  10.496  -1.113  1.00  0.00     0.062 A 
ATOM     28  H3  UNL     1      17.872  10.686  -1.006  1.00  0.00     0.166 HD
HETATM   29  C9  UNL     1      15.827  10.453  -2.480  1.00  0.00     0.068 A 
HETATM   30  C13 UNL     1      14.665  10.390  -0.425  1.00  0.00     0.064 A 
HETATM   31  C10 UNL     1      14.681  10.273  -3.211  1.00  0.00     0.105 A 
HETATM   32  C11 UNL     1      13.486  10.152  -2.505  1.00  0.00     0.038 A 
HETATM   33  C12 UNL     1      13.452  10.209  -1.138  1.00  0.00     0.034 A 
HETATM   34  N5  UNL     1      14.613  10.395   0.888  1.00  0.00    -0.315 N 
HETATM   35  C14 UNL     1      13.436  10.286   1.707  1.00  0.00     0.160 C 
HETATM   36  C15 UNL     1      15.816  10.502   1.523  1.00  0.00     0.274 A 
HETATM   37  O4  UNL     1      15.775  10.495   2.779  1.00  0.00    -0.265 OA
BRANCH  31  38
HETATM   38  N4  UNL     1      14.705  10.146  -4.585  1.00  0.00    -0.116 N 
HETATM   39  O2  UNL     1      13.645   9.778  -5.202  1.00  0.00    -0.532 OA
HETATM   40  O3  UNL     1      15.767  10.321  -5.383  1.00  0.00    -0.532 OA
ENDBRANCH  31  38
ENDBRANCH  24  25
ENDBRANCH   1  23
BRANCH   2  41
HETATM   41  N7  UNL     1      21.705   9.683  -0.132  1.00  0.00    -0.274 N 
HETATM   42  C16 UNL     1      22.641   8.878  -0.642  1.00  0.00     0.215 C 
HETATM   43  N8  UNL     1      22.694   8.600  -2.000  1.00  0.00    -0.065 NA
HETATM   44  N9  UNL     1      23.545   8.301   0.285  1.00  0.00    -0.065 NA
ATOM     45  H7  UNL     1      20.992  10.125  -0.712  1.00  0.00     0.189 HD
ENDBRANCH   2  41
TORSDOF 10
ENDMDL
MODEL 5
REMARK VINA RESULT: -9.189982838      3.126      7.031
REMARK  10 active torsions:
REMARK  status: ('A' for Active; 'I' for Inactive)
REMARK    1  A    between atoms: C2_5  and  C3_6 
REMARK    2  A    between atoms: C3_6  and  O1_7 
REMARK    3  A    between atoms: O1_7  and  C4_8 
REMARK    4  A    between atoms: C4_8  and  C5_9 
REMARK    5  A    between atoms: C6_10  and  C7_11 
REMARK    6  A    between atoms: C10_16  and  N4_17 
REMARK    7  A    between atoms: N6_27  and  N7_29 
REMARK    8  A    between atoms: C17_34  and  C18_35 
REMARK    9  A    between atoms: C18_35  and  N10_36 
REMARK   10  A    between atoms: C18_35  and  N11_40 
ROOT
HETATM    1  C4  UNL     1      16.404  10.479  -1.988  1.00  0.00     0.157 C 
HETATM    2  N6  UNL     1      15.828  10.612  -3.170  1.00  0.00    -0.278 N 
ATOM      3  H6  UNL     1      16.332  11.016  -3.960  1.00  0.00     0.189 HD
ENDROOT
BRANCH   1   4
HETATM    4  O1  UNL     1      17.620  10.875  -1.920  1.00  0.00    -0.329 OA
BRANCH   4   5
HETATM    5  C3  UNL     1      18.561  11.458  -1.183  1.00  0.00     0.238 C 
BRANCH   5   6
HETATM    6  C2  UNL     1      19.361  10.510  -0.348  1.00  0.00     0.079 A 
HETATM    7  N2  UNL     1      20.146   9.573  -0.850  1.00  0.00    -0.284 N 
HETATM    8  N1  UNL     1      20.907   9.066   0.133  1.00  0.00    -0.238 N 
ATOM      9  H2  UNL     1      20.169   9.282  -1.827  1.00  0.00     0.188 HD
HETATM   10  C1  UNL     1      21.893   7.994   0.043  1.00  0.00     0.200 C 
HETATM   11  N12 UNL     1      20.562   9.733   1.248  1.00  0.00    -0.283 N 
HETATM   12  C17 UNL     1      19.629  10.600   0.981  1.00  0.00     0.110 A 
ATOM     13  H12 UNL     1      20.972   9.581   2.169  1.00  0.00     0.188 HD
BRANCH  12  14
HETATM   14  C18 UNL     1      18.746  11.475   1.854  1.00  0.00     0.430 C 
BRANCH  14  15
HETATM   15  N10 UNL     1      18.805  10.988   3.200  1.00  0.00    -0.045 N 
ATOM     16 3H10 UNL     1      17.893  10.696   3.550  1.00  0.00     0.277 HD
ATOM     17 2H10 UNL     1      19.276  10.086   3.268  1.00  0.00     0.277 HD
ATOM     18 1H10 UNL     1      19.239  11.700   3.786  1.00  0.00     0.277 HD
ENDBRANCH  14  15
BRANCH  14  19
HETATM   19  N11 UNL     1      18.826  12.852   1.697  1.00  0.00    -0.045 N 
ATOM     20 3H11 UNL     1      19.622  13.202   2.231  1.00  0.00     0.277 HD
ATOM     21 2H11 UNL     1      19.122  13.062   0.744  1.00  0.00     0.277 HD
ATOM     22 1H11 UNL     1      18.003  13.411   1.921  1.00  0.00     0.277 HD
ENDBRANCH  14  19
ENDBRANCH  12  14
ENDBRANCH   5   6
ENDBRANCH   4   5
ENDBRANCH   1   4
BRANCH   1  23
HETATM   23  C5  UNL     1      15.677   9.896  -0.878  1.00  0.00     0.060 C 
HETATM   24  C6  UNL     1      15.597  10.441   0.300  1.00  0.00     0.039 C 
BRANCH  24  25
HETATM   25  C7  UNL     1      14.877   9.904   1.452  1.00  0.00     0.101 A 
HETATM   26  N3  UNL     1      15.572   9.770   2.635  1.00  0.00    -0.350 N 
HETATM   27  C8  UNL     1      14.921   9.369   3.714  1.00  0.00     0.062 A 
ATOM     28  H3  UNL     1      16.570   9.976   2.678  1.00  0.00     0.166 HD
HETATM   29  C9  UNL     1      15.588   9.276   4.904  1.00  0.00     0.068 A 
HETATM   30  C13 UNL     1      13.583   9.082   3.672  1.00  0.00     0.064 A 
HETATM   31  C10 UNL     1      14.976   8.938   6.083  1.00  0.00     0.105 A 
HETATM   32  C11 UNL     1      13.611   8.659   6.037  1.00  0.00     0.038 A 
HETATM   33  C12 UNL     1      12.906   8.721   4.866  1.00  0.00     0.034 A 
HETATM   34  N5  UNL     1      12.875   9.179   2.568  1.00  0.00    -0.315 N 
HETATM   35  C14 UNL     1      11.472   8.907   2.414  1.00  0.00     0.160 C 
HETATM   36  C15 UNL     1      13.562   9.598   1.467  1.00  0.00     0.274 A 
HETATM   37  O4  UNL     1      12.889   9.705   0.410  1.00  0.00    -0.265 OA
BRANCH  31  38
HETATM   38  N4  UNL     1      15.656   8.936   7.284  1.00  0.00    -0.116 N 
HETATM   39  O2  UNL     1      16.478   7.989   7.542  1.00  0.00    -0.532 OA
HETATM   40  O3  UNL     1      15.516   9.822   8.280  1.00  0.00    -0.532 OA
ENDBRANCH  31  38
ENDBRANCH  24  25
ENDBRANCH   1  23
BRANCH   2  41
HETATM   41  N7  UNL     1      14.492  10.177  -3.305  1.00  0.00    -0.274 N 
HETATM   42  C16 UNL     1      14.137   9.775  -4.529  1.00  0.00     0.215 C 
HETATM   43  N8  UNL     1      12.853   9.324  -4.799  1.00  0.00    -0.065 NA
HETATM   44  N9  UNL     1      15.154   9.803  -5.517  1.00  0.00    -0.065 NA
ATOM     45  H7  UNL     1      13.841  10.168  -2.520  1.00  0.00     0.189 HD
ENDBRANCH   2  41
TORSDOF 10
ENDMDL
