MODEL 1
REMARK VINA RESULT: -9.636287962      0.000      0.000
REMARK  9 active torsions:
REMARK  status: ('A' for Active; 'I' for Inactive)
REMARK    1  A    between atoms: C2_2  and  N1_3 
REMARK    2  A    between atoms: N2_6  and  C5_7 
REMARK    3  A    between atoms: C5_7  and  C6_8 
REMARK    4  A    between atoms: C7_9  and  C8_10 
REMARK    5  A    between atoms: C8_10  and  O1_11 
REMARK    6  A    between atoms: C8_10  and  N3_13 
REMARK    7  A    between atoms: N3_13  and  C9_15 
REMARK    8  A    between atoms: C10_16  and  O2_17 
REMARK    9  A    between atoms: N8_31  and  C14_32 
ROOT
HETATM    1  C6  UNL     1      14.859   9.941   4.932  1.00  0.00     0.087 A 
HETATM    2  C7  UNL     1      14.209   9.759   3.773  1.00  0.00     0.126 A 
HETATM    3  N6  UNL     1      13.036   9.089   4.148  1.00  0.00    -0.280 N 
ATOM      4  H6  UNL     1      12.303   8.776   3.512  1.00  0.00     0.189 HD
HETATM    5  N7  UNL     1      13.033   8.928   5.456  1.00  0.00    -0.234 N 
ATOM      6  H7  UNL     1      12.303   8.464   5.997  1.00  0.00     0.209 HD
HETATM    7  N8  UNL     1      14.134   9.467   5.949  1.00  0.00    -0.221 N 
ENDROOT
BRANCH   2   8
HETATM    8  C8  UNL     1      14.298  10.400   2.442  1.00  0.00     0.171 C 
BRANCH   8   9
HETATM    9  O1  UNL     1      13.192  10.915   1.977  1.00  0.00    -0.344 OA
ATOM     10  H1  UNL     1      13.291  11.612   1.339  1.00  0.00     0.219 HD
ENDBRANCH   8   9
BRANCH   8  11
HETATM   11  N3  UNL     1      15.396  10.475   1.600  1.00  0.00    -0.327 N 
ATOM     12  H3  UNL     1      16.320  10.712   1.961  1.00  0.00     0.168 HD
BRANCH  11  13
HETATM   13  C9  UNL     1      15.187  10.207   0.188  1.00  0.00     0.154 A 
HETATM   14  C10 UNL     1      16.164  10.968  -0.534  1.00  0.00     0.177 A 
HETATM   15  N4  UNL     1      16.137  11.053  -1.863  1.00  0.00    -0.287 N 
HETATM   16  C11 UNL     1      15.186  10.426  -2.563  1.00  0.00     0.331 A 
ATOM     17  H4  UNL     1      16.847  11.600  -2.350  1.00  0.00     0.172 HD
HETATM   18  O3  UNL     1      15.191  10.538  -3.823  1.00  0.00    -0.246 OA
HETATM   19  N5  UNL     1      14.267   9.709  -1.891  1.00  0.00    -0.269 N 
HETATM   20  C12 UNL     1      13.240   9.084  -2.680  1.00  0.00     0.164 C 
HETATM   21  C13 UNL     1      14.256   9.590  -0.513  1.00  0.00     0.282 A 
HETATM   22  O4  UNL     1      13.352   8.884   0.038  1.00  0.00    -0.265 OA
BRANCH  14  23
HETATM   23  O2  UNL     1      17.174  11.632   0.161  1.00  0.00    -0.344 OA
ATOM     24  H2  UNL     1      16.950  12.189   0.898  1.00  0.00     0.219 HD
ENDBRANCH  14  23
ENDBRANCH  11  13
ENDBRANCH   8  11
ENDBRANCH   2   8
BRANCH   1  25
HETATM   25  C5  UNL     1      16.220  10.563   5.036  1.00  0.00     0.179 C 
BRANCH  25  26
HETATM   26  N2  UNL     1      17.218   9.741   4.456  1.00  0.00    -0.404 N 
HETATM   27  C4  UNL     1      17.589   8.636   5.255  1.00  0.00     0.147 C 
HETATM   28  C3  UNL     1      18.990   8.132   5.218  1.00  0.00     0.291 C 
HETATM   29  N1  UNL     1      19.859   8.635   4.209  1.00  0.00     0.091 N 
HETATM   30  C17 UNL     1      19.075   9.089   3.079  1.00  0.00     0.291 C 
HETATM   31  C16 UNL     1      18.232  10.278   3.632  1.00  0.00     0.147 C 
BRANCH  29  32
HETATM   32  C2  UNL     1      20.748   7.594   3.678  1.00  0.00     0.268 C 
HETATM   33  C1  UNL     1      20.413   6.219   4.130  1.00  0.00     0.037 C 
ENDBRANCH  29  32
ENDBRANCH  25  26
ENDBRANCH   1  25
BRANCH   7  34
HETATM   34  C14 UNL     1      14.318   9.992   7.323  1.00  0.00     0.196 A 
HETATM   35  N9  UNL     1      14.006  10.961   8.059  1.00  0.00    -0.220 N 
HETATM   36  O5  UNL     1      14.403  10.732   9.293  1.00  0.00    -0.153 OA
ATOM     37  H9  UNL     1      13.517  11.800   7.747  1.00  0.00     0.198 HD
HETATM   38  N10 UNL     1      14.981   9.607   9.381  1.00  0.00    -0.222 N 
HETATM   39  C15 UNL     1      14.993   9.034   8.194  1.00  0.00     0.169 A 
ATOM     40  H10 UNL     1      15.373   9.209  10.235  1.00  0.00     0.198 HD
HETATM   41  N11 UNL     1      15.461   7.952   7.795  1.00  0.00    -0.381 N 
ATOM     42 2H11 UNL     1      15.471   7.509   6.876  1.00  0.00     0.157 HD
ATOM     43 1H11 UNL     1      15.933   7.283   8.403  1.00  0.00     0.157 HD
ENDBRANCH   7  34
TORSDOF 9
ENDMDL
MODEL 2
REMARK VINA RESULT: -9.562948539      2.790      6.512
REMARK  9 active torsions:
REMARK  status: ('A' for Active; 'I' for Inactive)
REMARK    1  A    between atoms: C2_2  and  N1_3 
REMARK    2  A    between atoms: N2_6  and  C5_7 
REMARK    3  A    between atoms: C5_7  and  C6_8 
REMARK    4  A    between atoms: C7_9  and  C8_10 
REMARK    5  A    between atoms: C8_10  and  O1_11 
REMARK    6  A    between atoms: C8_10  and  N3_13 
REMARK    7  A    between atoms: N3_13  and  C9_15 
REMARK    8  A    between atoms: C10_16  and  O2_17 
REMARK    9  A    between atoms: N8_31  and  C14_32 
ROOT
HETATM    1  C6  UNL     1      16.781  11.158   2.180  1.00  0.00     0.087 A 
HETATM    2  C7  UNL     1      17.630  12.182   2.008  1.00  0.00     0.126 A 
HETATM    3  N6  UNL     1      17.310  13.062   3.051  1.00  0.00    -0.280 N 
ATOM      4  H6  UNL     1      17.753  13.965   3.222  1.00  0.00     0.189 HD
HETATM    5  N7  UNL     1      16.342  12.537   3.774  1.00  0.00    -0.234 N 
ATOM      6  H7  UNL     1      15.909  12.967   4.592  1.00  0.00     0.209 HD
HETATM    7  N8  UNL     1      16.027  11.359   3.264  1.00  0.00    -0.221 N 
ENDROOT
BRANCH   2   8
HETATM    8  C8  UNL     1      18.911  12.334   1.282  1.00  0.00     0.171 C 
BRANCH   8   9
HETATM    9  O1  UNL     1      18.835  12.853   0.086  1.00  0.00    -0.344 OA
ATOM     10  H1  UNL     1      18.147  13.495  -0.048  1.00  0.00     0.219 HD
ENDBRANCH   8   9
BRANCH   8  11
HETATM   11  N3  UNL     1      20.177  11.945   1.688  1.00  0.00    -0.327 N 
ATOM     12  H3  UNL     1      20.843  12.624   2.056  1.00  0.00     0.168 HD
BRANCH  11  13
HETATM   13  C9  UNL     1      20.524  10.539   1.572  1.00  0.00     0.154 A 
HETATM   14  C10 UNL     1      20.779  10.058   2.898  1.00  0.00     0.177 A 
HETATM   15  N4  UNL     1      21.269   8.838   3.113  1.00  0.00    -0.287 N 
HETATM   16  C11 UNL     1      21.541   8.026   2.087  1.00  0.00     0.331 A 
ATOM     17  H4  UNL     1      21.437   8.521   4.067  1.00  0.00     0.172 HD
HETATM   18  O3  UNL     1      22.012   6.879   2.333  1.00  0.00    -0.246 OA
HETATM   19  N5  UNL     1      21.303   8.473   0.840  1.00  0.00    -0.269 N 
HETATM   20  C12 UNL     1      21.648   7.582  -0.236  1.00  0.00     0.164 C 
HETATM   21  C13 UNL     1      20.794   9.729   0.568  1.00  0.00     0.282 A 
HETATM   22  O4  UNL     1      20.593  10.064  -0.644  1.00  0.00    -0.265 OA
BRANCH  14  23
HETATM   23  O2  UNL     1      20.503  10.874   3.994  1.00  0.00    -0.344 OA
ATOM     24  H2  UNL     1      21.216  11.295   4.459  1.00  0.00     0.219 HD
ENDBRANCH  14  23
ENDBRANCH  11  13
ENDBRANCH   8  11
ENDBRANCH   2   8
BRANCH   1  25
HETATM   25  C5  UNL     1      16.693   9.982   1.253  1.00  0.00     0.179 C 
BRANCH  25  26
HETATM   26  N2  UNL     1      15.819  10.237   0.166  1.00  0.00    -0.404 N 
HETATM   27  C4  UNL     1      14.583   9.556   0.251  1.00  0.00     0.147 C 
HETATM   28  C3  UNL     1      13.899   9.104  -0.992  1.00  0.00     0.291 C 
HETATM   29  N1  UNL     1      14.398   9.570  -2.241  1.00  0.00     0.091 N 
HETATM   30  C17 UNL     1      15.093  10.827  -2.046  1.00  0.00     0.291 C 
HETATM   31  C16 UNL     1      16.308  10.472  -1.138  1.00  0.00     0.147 C 
BRANCH  29  32
HETATM   32  C2  UNL     1      13.318   9.861  -3.193  1.00  0.00     0.268 C 
HETATM   33  C1  UNL     1      13.639   9.517  -4.601  1.00  0.00     0.037 C 
ENDBRANCH  29  32
ENDBRANCH  25  26
ENDBRANCH   1  25
BRANCH   7  34
HETATM   34  C14 UNL     1      15.422  10.218   3.991  1.00  0.00     0.196 A 
HETATM   35  N9  UNL     1      15.716   9.278   4.770  1.00  0.00    -0.220 N 
HETATM   36  O5  UNL     1      14.618   8.673   5.175  1.00  0.00    -0.153 OA
ATOM     37  H9  UNL     1      16.663   9.020   5.048  1.00  0.00     0.198 HD
HETATM   38  N10 UNL     1      13.590   9.212   4.666  1.00  0.00    -0.222 N 
HETATM   39  C15 UNL     1      13.965  10.209   3.890  1.00  0.00     0.169 A 
ATOM     40  H10 UNL     1      12.626   8.920   4.831  1.00  0.00     0.198 HD
HETATM   41  N11 UNL     1      13.320  11.002   3.180  1.00  0.00    -0.381 N 
ATOM     42 2H11 UNL     1      13.610  11.773   2.580  1.00  0.00     0.157 HD
ATOM     43 1H11 UNL     1      12.303  10.996   3.110  1.00  0.00     0.157 HD
ENDBRANCH   7  34
TORSDOF 9
ENDMDL
MODEL 3
REMARK VINA RESULT: -9.559838503      2.542      8.001
REMARK  9 active torsions:
REMARK  status: ('A' for Active; 'I' for Inactive)
REMARK    1  A    between atoms: C2_2  and  N1_3 
REMARK    2  A    between atoms: N2_6  and  C5_7 
REMARK    3  A    between atoms: C5_7  and  C6_8 
REMARK    4  A    between atoms: C7_9  and  C8_10 
REMARK    5  A    between atoms: C8_10  and  O1_11 
REMARK    6  A    between atoms: C8_10  and  N3_13 
REMARK    7  A    between atoms: N3_13  and  C9_15 
REMARK    8  A    between atoms: C10_16  and  O2_17 
REMARK    9  A    between atoms: N8_31  and  C14_32 
ROOT
HETATM    1  C6  UNL     1      18.316   9.919   2.206  1.00  0.00     0.087 A 
HETATM    2  C7  UNL     1      17.889   9.062   3.147  1.00  0.00     0.126 A 
HETATM    3  N6  UNL     1      18.962   8.174   3.303  1.00  0.00    -0.280 N 
ATOM      4  H6  UNL     1      18.982   7.375   3.937  1.00  0.00     0.189 HD
HETATM    5  N7  UNL     1      19.941   8.538   2.500  1.00  0.00    -0.234 N 
ATOM      6  H7  UNL     1      20.840   8.064   2.404  1.00  0.00     0.209 HD
HETATM    7  N8  UNL     1      19.565   9.620   1.840  1.00  0.00    -0.221 N 
ENDROOT
BRANCH   2   8
HETATM    8  C8  UNL     1      16.826   9.124   4.175  1.00  0.00     0.171 C 
BRANCH   8   9
HETATM    9  O1  UNL     1      15.698   8.543   3.868  1.00  0.00    -0.344 OA
ATOM     10  H1  UNL     1      15.172   8.974   3.205  1.00  0.00     0.219 HD
ENDBRANCH   8   9
BRANCH   8  11
HETATM   11  N3  UNL     1      16.857   9.767   5.401  1.00  0.00    -0.327 N 
ATOM     12  H3  UNL     1      17.586  10.446   5.621  1.00  0.00     0.168 HD
BRANCH  11  13
HETATM   13  C9  UNL     1      15.818   9.443   6.363  1.00  0.00     0.154 A 
HETATM   14  C10 UNL     1      14.797  10.441   6.233  1.00  0.00     0.177 A 
HETATM   15  N4  UNL     1      13.776  10.508   7.085  1.00  0.00    -0.287 N 
HETATM   16  C11 UNL     1      13.678   9.638   8.095  1.00  0.00     0.331 A 
ATOM     17  H4  UNL     1      13.063  11.227   6.966  1.00  0.00     0.172 HD
HETATM   18  O3  UNL     1      12.697   9.739   8.886  1.00  0.00    -0.246 OA
HETATM   19  N5  UNL     1      14.633   8.697   8.221  1.00  0.00    -0.269 N 
HETATM   20  C12 UNL     1      14.510   7.807   9.345  1.00  0.00     0.164 C 
HETATM   21  C13 UNL     1      15.710   8.589   7.361  1.00  0.00     0.282 A 
HETATM   22  O4  UNL     1      16.561   7.662   7.553  1.00  0.00    -0.265 OA
BRANCH  14  23
HETATM   23  O2  UNL     1      14.863  11.364   5.189  1.00  0.00    -0.344 OA
ATOM     24  H2  UNL     1      15.081  12.269   5.374  1.00  0.00     0.219 HD
ENDBRANCH  14  23
ENDBRANCH  11  13
ENDBRANCH   8  11
ENDBRANCH   2   8
BRANCH   1  25
HETATM   25  C5  UNL     1      17.475  11.026   1.643  1.00  0.00     0.179 C 
BRANCH  25  26
HETATM   26  N2  UNL     1      16.503  10.536   0.736  1.00  0.00    -0.404 N 
HETATM   27  C4  UNL     1      16.774  10.837  -0.617  1.00  0.00     0.147 C 
HETATM   28  C3  UNL     1      15.650  11.079  -1.564  1.00  0.00     0.291 C 
HETATM   29  N1  UNL     1      14.329  10.775  -1.128  1.00  0.00     0.091 N 
HETATM   30  C17 UNL     1      14.382   9.767  -0.089  1.00  0.00     0.291 C 
HETATM   31  C16 UNL     1      15.137  10.451   1.090  1.00  0.00     0.147 C 
BRANCH  29  32
HETATM   32  C2  UNL     1      13.515  10.191  -2.202  1.00  0.00     0.268 C 
HETATM   33  C1  UNL     1      14.239  10.015  -3.487  1.00  0.00     0.037 C 
ENDBRANCH  29  32
ENDBRANCH  25  26
ENDBRANCH   1  25
BRANCH   7  34
HETATM   34  C14 UNL     1      20.457  10.654   1.265  1.00  0.00     0.196 A 
HETATM   35  N9  UNL     1      20.678  11.287   0.202  1.00  0.00    -0.220 N 
HETATM   36  O5  UNL     1      21.579  12.222   0.417  1.00  0.00    -0.153 OA
ATOM     37  H9  UNL     1      20.226  11.103  -0.694  1.00  0.00     0.198 HD
HETATM   38  N10 UNL     1      21.961  12.215   1.626  1.00  0.00    -0.222 N 
HETATM   39  C15 UNL     1      21.321  11.261   2.274  1.00  0.00     0.169 A 
ATOM     40  H10 UNL     1      22.651  12.846   2.032  1.00  0.00     0.198 HD
HETATM   41  N11 UNL     1      21.380  10.871   3.454  1.00  0.00    -0.381 N 
ATOM     42 2H11 UNL     1      20.886  10.133   3.956  1.00  0.00     0.157 HD
ATOM     43 1H11 UNL     1      21.983  11.294   4.159  1.00  0.00     0.157 HD
ENDBRANCH   7  34
TORSDOF 9
ENDMDL
MODEL 4
REMARK VINA RESULT: -9.558570341      3.377      7.263
REMARK  9 active torsions:
REMARK  status: ('A' for Active; 'I' for Inactive)
REMARK    1  A    between atoms: C2_2  and  N1_3 
REMARK    2  A    between atoms: N2_6  and  C5_7 
REMARK    3  A    between atoms: C5_7  and  C6_8 
REMARK    4  A    between atoms: C7_9  and  C8_10 
REMARK    5  A    between atoms: C8_10  and  O1_11 
REMARK    6  A    between atoms: C8_10  and  N3_13 
REMARK    7  A    between atoms: N3_13  and  C9_15 
REMARK    8  A    between atoms: C10_16  and  O2_17 
REMARK    9  A    between atoms: N8_31  and  C14_32 
ROOT
HETATM    1  C6  UNL     1      16.032  10.419   1.306  1.00  0.00     0.087 A 
HETATM    2  C7  UNL     1      17.358  10.625   1.334  1.00  0.00     0.126 A 
HETATM    3  N6  UNL     1      17.810   9.764   2.343  1.00  0.00    -0.280 N 
ATOM      4  H6  UNL     1      18.779   9.667   2.649  1.00  0.00     0.189 HD
HETATM    5  N7  UNL     1      16.783   9.100   2.833  1.00  0.00    -0.234 N 
ATOM      6  H7  UNL     1      16.824   8.411   3.584  1.00  0.00     0.209 HD
HETATM    7  N8  UNL     1      15.692   9.476   2.189  1.00  0.00    -0.221 N 
ENDROOT
BRANCH   2   8
HETATM    8  C8  UNL     1      18.321  11.201   0.368  1.00  0.00     0.171 C 
BRANCH   8   9
HETATM    9  O1  UNL     1      18.051  12.404  -0.063  1.00  0.00    -0.344 OA
ATOM     10  H1  UNL     1      18.615  12.737  -0.752  1.00  0.00     0.219 HD
ENDBRANCH   8   9
BRANCH   8  11
HETATM   11  N3  UNL     1      19.444  10.604  -0.180  1.00  0.00    -0.327 N 
ATOM     12  H3  UNL     1      19.518  10.444  -1.184  1.00  0.00     0.168 HD
BRANCH  11  13
HETATM   13  C9  UNL     1      20.513  10.213   0.723  1.00  0.00     0.154 A 
HETATM   14  C10 UNL     1      20.772   8.823   0.492  1.00  0.00     0.177 A 
HETATM   15  N4  UNL     1      21.600   8.130   1.272  1.00  0.00    -0.287 N 
HETATM   16  C11 UNL     1      22.212   8.720   2.303  1.00  0.00     0.331 A 
ATOM     17  H4  UNL     1      21.767   7.142   1.082  1.00  0.00     0.172 HD
HETATM   18  O3  UNL     1      22.984   8.025   3.025  1.00  0.00    -0.246 OA
HETATM   19  N5  UNL     1      21.974  10.026   2.525  1.00  0.00    -0.269 N 
HETATM   20  C12 UNL     1      22.622  10.610   3.668  1.00  0.00     0.164 C 
HETATM   21  C13 UNL     1      21.125  10.786   1.741  1.00  0.00     0.282 A 
HETATM   22  O4  UNL     1      20.965  12.017   2.020  1.00  0.00    -0.265 OA
BRANCH  14  23
HETATM   23  O2  UNL     1      20.155   8.174  -0.577  1.00  0.00    -0.344 OA
ATOM     24  H2  UNL     1      20.050   7.230  -0.557  1.00  0.00     0.219 HD
ENDBRANCH  14  23
ENDBRANCH  11  13
ENDBRANCH   8  11
ENDBRANCH   2   8
BRANCH   1  25
HETATM   25  C5  UNL     1      15.088  11.176   0.420  1.00  0.00     0.179 C 
BRANCH  25  26
HETATM   26  N2  UNL     1      14.735  10.428  -0.731  1.00  0.00    -0.404 N 
HETATM   27  C4  UNL     1      15.674  10.516  -1.783  1.00  0.00     0.147 C 
HETATM   28  C3  UNL     1      15.210  10.459  -3.198  1.00  0.00     0.291 C 
HETATM   29  N1  UNL     1      13.858  10.090  -3.446  1.00  0.00     0.091 N 
HETATM   30  C17 UNL     1      13.363   9.293  -2.342  1.00  0.00     0.291 C 
HETATM   31  C16 UNL     1      13.387  10.254  -1.116  1.00  0.00     0.147 C 
BRANCH  29  32
HETATM   32  C2  UNL     1      13.728   9.239  -4.636  1.00  0.00     0.268 C 
HETATM   33  C1  UNL     1      12.889   8.031  -4.431  1.00  0.00     0.037 C 
ENDBRANCH  29  32
ENDBRANCH  25  26
ENDBRANCH   1  25
BRANCH   7  34
HETATM   34  C14 UNL     1      14.457   8.677   2.009  1.00  0.00     0.196 A 
HETATM   35  N9  UNL     1      14.002   7.692   1.376  1.00  0.00    -0.220 N 
HETATM   36  O5  UNL     1      12.794   7.400   1.810  1.00  0.00    -0.153 OA
ATOM     37  H9  UNL     1      14.495   7.193   0.636  1.00  0.00     0.198 HD
HETATM   38  N10 UNL     1      12.441   8.191   2.736  1.00  0.00    -0.222 N 
HETATM   39  C15 UNL     1      13.413   9.054   2.958  1.00  0.00     0.169 A 
ATOM     40  H10 UNL     1      11.549   8.164   3.230  1.00  0.00     0.198 HD
HETATM   41  N11 UNL     1      13.513  10.013   3.745  1.00  0.00    -0.381 N 
ATOM     42 2H11 UNL     1      14.264  10.681   3.918  1.00  0.00     0.157 HD
ATOM     43 1H11 UNL     1      12.784  10.277   4.408  1.00  0.00     0.157 HD
ENDBRANCH   7  34
TORSDOF 9
ENDMDL
MODEL 5
REMARK VINA RESULT: -9.535794201      2.768      6.678
REMARK  9 active torsions:
REMARK  status: ('A' for Active; 'I' for Inactive)
REMARK    1  A    between atoms: C2_2  and  N1_3 
REMARK    2  A    between atoms: N2_6  and  C5_7 
REMARK    3  A    between atoms: C5_7  and  C6_8 
REMARK    4  A    between atoms: C7_9  and  C8_10 
REMARK    5  A    between atoms: C8_10  and  O1_11 
REMARK    6  A    between atoms: C8_10  and  N3_13 
REMARK    7  A    between atoms: N3_13  and  C9_15 
REMARK    8  A    between atoms: C10_16  and  O2_17 
REMARK    9  A    between atoms: N8_31  and  C14_32 
ROOT
HETATM    1  C6  UNL     1      17.070  11.151   2.072  1.00  0.00     0.087 A 
HETATM    2  C7  UNL     1      17.798  12.150   1.548  1.00  0.00     0.126 A 
HETATM    3  N6  UNL     1      17.820  13.117   2.563  1.00  0.00    -0.280 N 
ATOM      4  H6  UNL     1      18.279  14.026   2.505  1.00  0.00     0.189 HD
HETATM    5  N7  UNL     1      17.153  12.662   3.604  1.00  0.00    -0.234 N 
ATOM      6  H7  UNL     1      17.003  13.163   4.480  1.00  0.00     0.209 HD
HETATM    7  N8  UNL     1      16.709  11.449   3.323  1.00  0.00    -0.221 N 
ENDROOT
BRANCH   2   8
HETATM    8  C8  UNL     1      18.768  12.228   0.433  1.00  0.00     0.171 C 
BRANCH   8   9
HETATM    9  O1  UNL     1      18.791  13.354  -0.229  1.00  0.00    -0.344 OA
ATOM     10  H1  UNL     1      17.948  13.695  -0.502  1.00  0.00     0.219 HD
ENDBRANCH   8   9
BRANCH   8  11
HETATM   11  N3  UNL     1      19.617  11.239  -0.035  1.00  0.00    -0.327 N 
ATOM     12  H3  UNL     1      19.642  10.991  -1.023  1.00  0.00     0.168 HD
BRANCH  11  13
HETATM   13  C9  UNL     1      20.471  10.567   0.930  1.00  0.00     0.154 A 
HETATM   14  C10 UNL     1      20.266   9.158   0.763  1.00  0.00     0.177 A 
HETATM   15  N4  UNL     1      20.796   8.274   1.606  1.00  0.00    -0.287 N 
HETATM   16  C11 UNL     1      21.538   8.683   2.640  1.00  0.00     0.331 A 
ATOM     17  H4  UNL     1      20.635   7.277   1.462  1.00  0.00     0.172 HD
HETATM   18  O3  UNL     1      22.017   7.812   3.422  1.00  0.00    -0.246 OA
HETATM   19  N5  UNL     1      21.735  10.004   2.801  1.00  0.00    -0.269 N 
HETATM   20  C12 UNL     1      22.505  10.402   3.948  1.00  0.00     0.164 C 
HETATM   21  C13 UNL     1      21.207  10.959   1.951  1.00  0.00     0.282 A 
HETATM   22  O4  UNL     1      21.452  12.187   2.175  1.00  0.00    -0.265 OA
BRANCH  14  23
HETATM   23  O2  UNL     1      19.502   8.693  -0.306  1.00  0.00    -0.344 OA
ATOM     24  H2  UNL     1      18.558   8.805  -0.294  1.00  0.00     0.219 HD
ENDBRANCH  14  23
ENDBRANCH  11  13
ENDBRANCH   8  11
ENDBRANCH   2   8
BRANCH   1  25
HETATM   25  C5  UNL     1      16.705   9.904   1.324  1.00  0.00     0.179 C 
BRANCH  25  26
HETATM   26  N2  UNL     1      15.849  10.182   0.229  1.00  0.00    -0.404 N 
HETATM   27  C4  UNL     1      14.519   9.741   0.414  1.00  0.00     0.147 C 
HETATM   28  C3  UNL     1      13.723   9.276  -0.757  1.00  0.00     0.291 C 
HETATM   29  N1  UNL     1      14.248   9.504  -2.060  1.00  0.00     0.091 N 
HETATM   30  C17 UNL     1      15.154  10.635  -2.025  1.00  0.00     0.291 C 
HETATM   31  C16 UNL     1      16.323  10.179  -1.102  1.00  0.00     0.147 C 
BRANCH  29  32
HETATM   32  C2  UNL     1      13.200   9.869  -3.021  1.00  0.00     0.268 C 
HETATM   33  C1  UNL     1      13.487   9.459  -4.419  1.00  0.00     0.037 C 
ENDBRANCH  29  32
ENDBRANCH  25  26
ENDBRANCH   1  25
BRANCH   7  34
HETATM   34  C14 UNL     1      16.396  10.379   4.298  1.00  0.00     0.196 A 
HETATM   35  N9  UNL     1      16.946   9.580   5.097  1.00  0.00    -0.220 N 
HETATM   36  O5  UNL     1      16.031   8.958   5.809  1.00  0.00    -0.153 OA
ATOM     37  H9  UNL     1      17.952   9.436   5.183  1.00  0.00     0.198 HD
HETATM   38  N10 UNL     1      14.866   9.341   5.486  1.00  0.00    -0.222 N 
HETATM   39  C15 UNL     1      14.961  10.247   4.532  1.00  0.00     0.169 A 
ATOM     40  H10 UNL     1      13.996   9.004   5.897  1.00  0.00     0.198 HD
HETATM   41  N11 UNL     1      14.099  10.881   3.896  1.00  0.00    -0.381 N 
ATOM     42 2H11 UNL     1      14.172  11.581   3.159  1.00  0.00     0.157 HD
ATOM     43 1H11 UNL     1      13.097  10.789   4.059  1.00  0.00     0.157 HD
ENDBRANCH   7  34
TORSDOF 9
ENDMDL
