MODEL 1
REMARK VINA RESULT: -10.202186009      0.000      0.000
REMARK  6 active torsions:
REMARK  status: ('A' for Active; 'I' for Inactive)
REMARK    1  A    between atoms: C4_5  and  C5_6 
REMARK    2  A    between atoms: N4_14  and  C9_15 
REMARK    3  A    between atoms: C9_15  and  C10_16 
REMARK    4  A    between atoms: C11_17  and  C12_18 
REMARK    5  A    between atoms: N8_25  and  C13_26 
REMARK    6  A    between atoms: C16_37  and  C17_38 
ROOT
HETATM    1  C1  UNL     1      20.427  11.390   0.630  1.00  0.00     0.159 C 
HETATM    2  N1  UNL     1      19.531  10.957   1.687  1.00  0.00    -0.327 N 
HETATM    3  C2  UNL     1      19.725   9.821   2.372  1.00  0.00     0.108 A 
HETATM    4  C3  UNL     1      18.869   9.408   3.379  1.00  0.00     0.023 A 
HETATM    5  C4  UNL     1      18.859   8.309   4.208  1.00  0.00     0.037 A 
HETATM    6  C8  UNL     1      17.773   8.445   4.999  1.00  0.00     0.113 A 
HETATM    7  N4  UNL     1      17.067   9.595   4.720  1.00  0.00    -0.328 N 
HETATM    8  C15 UNL     1      17.760  10.192   3.704  1.00  0.00     0.073 A 
HETATM    9  C16 UNL     1      17.586  11.351   2.985  1.00  0.00     0.136 A 
HETATM   10  C18 UNL     1      18.483  11.710   1.984  1.00  0.00     0.266 A 
HETATM   11  O5  UNL     1      18.273  12.789   1.355  1.00  0.00    -0.267 OA
ENDROOT
BRANCH   7  12
HETATM   12  C9  UNL     1      15.942  10.018   5.408  1.00  0.00     0.131 C 
BRANCH  12  13
HETATM   13  C10 UNL     1      14.571   9.539   5.248  1.00  0.00     0.109 A 
HETATM   14  C11 UNL     1      13.773   9.149   4.240  1.00  0.00     0.144 A 
HETATM   15  N6  UNL     1      12.551   8.825   4.841  1.00  0.00    -0.279 N 
HETATM   16  N7  UNL     1      12.659   9.022   6.115  1.00  0.00    -0.233 N 
ATOM     17  H6  UNL     1      11.717   8.491   4.357  1.00  0.00     0.189 HD
HETATM   18  N8  UNL     1      13.840   9.451   6.450  1.00  0.00    -0.217 N 
ATOM     19  H7  UNL     1      11.903   8.860   6.781  1.00  0.00     0.209 HD
BRANCH  14  20
HETATM   20  C12 UNL     1      13.957   9.025   2.819  1.00  0.00     0.285 C 
HETATM   21  N5  UNL     1      12.956   9.608   1.924  1.00  0.00    -0.056 NA
HETATM   22  O1  UNL     1      14.870   8.480   2.238  1.00  0.00    -0.269 OA
ENDBRANCH  14  20
BRANCH  18  23
HETATM   23  C13 UNL     1      14.334   9.778   7.757  1.00  0.00     0.196 A 
HETATM   24  N9  UNL     1      14.135  10.885   8.492  1.00  0.00    -0.220 N 
HETATM   25  O2  UNL     1      14.777  10.768   9.637  1.00  0.00    -0.153 OA
ATOM     26  H9  UNL     1      13.576  11.689   8.208  1.00  0.00     0.198 HD
HETATM   27  N10 UNL     1      15.393   9.624   9.688  1.00  0.00    -0.222 N 
HETATM   28  C14 UNL     1      15.142   8.965   8.521  1.00  0.00     0.169 A 
ATOM     29  H10 UNL     1      15.962   9.282  10.462  1.00  0.00     0.198 HD
HETATM   30  N11 UNL     1      15.604   7.798   8.244  1.00  0.00    -0.381 N 
ATOM     31 2H11 UNL     1      15.417   7.305   7.371  1.00  0.00     0.157 HD
ATOM     32 1H11 UNL     1      16.202   7.196   8.810  1.00  0.00     0.157 HD
ENDBRANCH  18  23
ENDBRANCH  12  13
ENDBRANCH   7  12
BRANCH   5  33
HETATM   33  C5  UNL     1      19.828   7.197   4.220  1.00  0.00     0.109 C 
HETATM   34  N2  UNL     1      21.061   7.324   4.576  1.00  0.00    -0.374 N 
HETATM   35  C6  UNL     1      21.810   6.094   4.503  1.00  0.00     0.141 C 
ATOM     36  H2  UNL     1      21.467   8.208   4.881  1.00  0.00     0.161 HD
HETATM   37  C7  UNL     1      20.955   5.260   3.548  1.00  0.00     0.141 C 
HETATM   38  N3  UNL     1      19.640   5.844   3.891  1.00  0.00    -0.374 N 
ATOM     39  H3  UNL     1      18.748   5.349   3.890  1.00  0.00     0.161 HD
ENDBRANCH   5  33
BRANCH   9  40
HETATM   40  C17 UNL     1      16.486  12.257   3.235  1.00  0.00     0.217 C 
HETATM   41  O3  UNL     1      15.340  11.964   2.862  1.00  0.00    -0.644 OA
HETATM   42  O4  UNL     1      16.713  13.439   3.891  1.00  0.00    -0.644 OA
ENDBRANCH   9  40
TORSDOF 6
ENDMDL
MODEL 2
REMARK VINA RESULT: -10.016390278      2.545      6.203
REMARK  6 active torsions:
REMARK  status: ('A' for Active; 'I' for Inactive)
REMARK    1  A    between atoms: C4_5  and  C5_6 
REMARK    2  A    between atoms: N4_14  and  C9_15 
REMARK    3  A    between atoms: C9_15  and  C10_16 
REMARK    4  A    between atoms: C11_17  and  C12_18 
REMARK    5  A    between atoms: N8_25  and  C13_26 
REMARK    6  A    between atoms: C16_37  and  C17_38 
ROOT
HETATM    1  C1  UNL     1      15.676   8.750   7.510  1.00  0.00     0.159 C 
HETATM    2  N1  UNL     1      16.044   9.121   6.156  1.00  0.00    -0.327 N 
HETATM    3  C2  UNL     1      17.180   8.700   5.579  1.00  0.00     0.108 A 
HETATM    4  C3  UNL     1      17.530   9.055   4.287  1.00  0.00     0.023 A 
HETATM    5  C4  UNL     1      18.615   8.754   3.496  1.00  0.00     0.037 A 
HETATM    6  C8  UNL     1      18.409   9.386   2.320  1.00  0.00     0.113 A 
HETATM    7  N4  UNL     1      17.226  10.092   2.311  1.00  0.00    -0.328 N 
HETATM    8  C15 UNL     1      16.682   9.880   3.547  1.00  0.00     0.073 A 
HETATM    9  C16 UNL     1      15.526  10.297   4.162  1.00  0.00     0.136 A 
HETATM   10  C18 UNL     1      15.231   9.905   5.465  1.00  0.00     0.266 A 
HETATM   11  O5  UNL     1      14.152  10.319   5.982  1.00  0.00    -0.267 OA
ENDROOT
BRANCH   7  12
HETATM   12  C9  UNL     1      16.733  10.792   1.222  1.00  0.00     0.131 C 
BRANCH  12  13
HETATM   13  C10 UNL     1      17.226  10.758  -0.154  1.00  0.00     0.109 A 
HETATM   14  C11 UNL     1      18.412  10.828  -0.778  1.00  0.00     0.144 A 
HETATM   15  N6  UNL     1      18.118  10.737  -2.143  1.00  0.00    -0.279 N 
HETATM   16  N7  UNL     1      16.836  10.620  -2.276  1.00  0.00    -0.233 N 
ATOM     17  H6  UNL     1      18.797  10.758  -2.904  1.00  0.00     0.189 HD
HETATM   18  N8  UNL     1      16.219  10.623  -1.130  1.00  0.00    -0.217 N 
ATOM     19  H7  UNL     1      16.363  10.536  -3.175  1.00  0.00     0.209 HD
BRANCH  14  20
HETATM   20  C12 UNL     1      19.769  10.963  -0.319  1.00  0.00     0.285 C 
HETATM   21  N5  UNL     1      20.222  12.267   0.168  1.00  0.00    -0.056 NA
HETATM   22  O1  UNL     1      20.623  10.105  -0.280  1.00  0.00    -0.269 OA
ENDBRANCH  14  20
BRANCH  18  23
HETATM   23  C13 UNL     1      14.811  10.514  -0.874  1.00  0.00     0.196 A 
HETATM   24  N9  UNL     1      13.865  11.468  -0.891  1.00  0.00    -0.220 N 
HETATM   25  O2  UNL     1      12.699  10.928  -0.596  1.00  0.00    -0.153 OA
ATOM     26  H9  UNL     1      14.024  12.453  -1.099  1.00  0.00     0.198 HD
HETATM   27  N10 UNL     1      12.838   9.653  -0.385  1.00  0.00    -0.222 N 
HETATM   28  C14 UNL     1      14.157   9.346  -0.549  1.00  0.00     0.169 A 
ATOM     29  H10 UNL     1      12.095   8.999  -0.140  1.00  0.00     0.198 HD
HETATM   30  N11 UNL     1      14.639   8.162  -0.412  1.00  0.00    -0.381 N 
ATOM     31 2H11 UNL     1      15.625   7.933  -0.535  1.00  0.00     0.157 HD
ATOM     32 1H11 UNL     1      14.154   7.298  -0.172  1.00  0.00     0.157 HD
ENDBRANCH  18  23
ENDBRANCH  12  13
ENDBRANCH   7  12
BRANCH   5  33
HETATM   33  C5  UNL     1      19.778   7.923   3.861  1.00  0.00     0.109 C 
HETATM   34  N2  UNL     1      19.766   6.633   3.862  1.00  0.00    -0.374 N 
HETATM   35  C6  UNL     1      21.023   6.047   4.257  1.00  0.00     0.141 C 
ATOM     36  H2  UNL     1      18.947   6.081   3.610  1.00  0.00     0.161 HD
HETATM   37  C7  UNL     1      21.694   7.205   4.997  1.00  0.00     0.141 C 
HETATM   38  N3  UNL     1      21.072   8.315   4.241  1.00  0.00    -0.374 N 
ATOM     39  H3  UNL     1      21.509   9.213   4.031  1.00  0.00     0.161 HD
ENDBRANCH   5  33
BRANCH   9  40
HETATM   40  C17 UNL     1      14.558  11.141   3.497  1.00  0.00     0.217 C 
HETATM   41  O3  UNL     1      14.647  12.376   3.579  1.00  0.00    -0.644 OA
HETATM   42  O4  UNL     1      13.543  10.574   2.772  1.00  0.00    -0.644 OA
ENDBRANCH   9  40
TORSDOF 6
ENDMDL
MODEL 3
REMARK VINA RESULT: -9.935817951      2.210      6.030
REMARK  6 active torsions:
REMARK  status: ('A' for Active; 'I' for Inactive)
REMARK    1  A    between atoms: C4_5  and  C5_6 
REMARK    2  A    between atoms: N4_14  and  C9_15 
REMARK    3  A    between atoms: C9_15  and  C10_16 
REMARK    4  A    between atoms: C11_17  and  C12_18 
REMARK    5  A    between atoms: N8_25  and  C13_26 
REMARK    6  A    between atoms: C16_37  and  C17_38 
ROOT
HETATM    1  C1  UNL     1      15.480   8.757   7.505  1.00  0.00     0.159 C 
HETATM    2  N1  UNL     1      16.012   9.176   6.221  1.00  0.00    -0.327 N 
HETATM    3  C2  UNL     1      17.061   8.572   5.646  1.00  0.00     0.108 A 
HETATM    4  C3  UNL     1      17.567   8.973   4.420  1.00  0.00     0.023 A 
HETATM    5  C4  UNL     1      18.609   8.519   3.644  1.00  0.00     0.037 A 
HETATM    6  C8  UNL     1      18.627   9.303   2.544  1.00  0.00     0.113 A 
HETATM    7  N4  UNL     1      17.634  10.257   2.570  1.00  0.00    -0.328 N 
HETATM    8  C15 UNL     1      16.975  10.043   3.749  1.00  0.00     0.073 A 
HETATM    9  C16 UNL     1      15.901  10.645   4.362  1.00  0.00     0.136 A 
HETATM   10  C18 UNL     1      15.440  10.194   5.595  1.00  0.00     0.266 A 
HETATM   11  O5  UNL     1      14.447  10.785   6.113  1.00  0.00    -0.267 OA
ENDROOT
BRANCH   7  12
HETATM   12  C9  UNL     1      17.381  11.162   1.553  1.00  0.00     0.131 C 
BRANCH  12  13
HETATM   13  C10 UNL     1      17.164  10.870   0.137  1.00  0.00     0.109 A 
HETATM   14  C11 UNL     1      16.124  10.585  -0.663  1.00  0.00     0.144 A 
HETATM   15  N6  UNL     1      16.677  10.406  -1.937  1.00  0.00    -0.279 N 
HETATM   16  N7  UNL     1      17.956  10.582  -1.854  1.00  0.00    -0.233 N 
ATOM     17  H6  UNL     1      16.159  10.177  -2.786  1.00  0.00     0.189 HD
HETATM   18  N8  UNL     1      18.338  10.865  -0.642  1.00  0.00    -0.217 N 
ATOM     19  H7  UNL     1      18.592  10.507  -2.647  1.00  0.00     0.209 HD
BRANCH  14  20
HETATM   20  C12 UNL     1      14.709  10.455  -0.443  1.00  0.00     0.285 C 
HETATM   21  N5  UNL     1      13.788  11.148  -1.345  1.00  0.00    -0.056 NA
HETATM   22  O1  UNL     1      14.153   9.820   0.426  1.00  0.00    -0.269 OA
ENDBRANCH  14  20
BRANCH  18  23
HETATM   23  C13 UNL     1      19.665  11.125  -0.163  1.00  0.00     0.196 A 
HETATM   24  N9  UNL     1      20.223  12.287   0.217  1.00  0.00    -0.220 N 
HETATM   25  O2  UNL     1      21.469  12.070   0.588  1.00  0.00    -0.153 OA
ATOM     26  H9  UNL     1      19.756  13.193   0.217  1.00  0.00     0.198 HD
HETATM   27  N10 UNL     1      21.757  10.808   0.469  1.00  0.00    -0.222 N 
HETATM   28  C14 UNL     1      20.647  10.171  -0.003  1.00  0.00     0.169 A 
ATOM     29  H10 UNL     1      22.652  10.372   0.688  1.00  0.00     0.198 HD
HETATM   30  N11 UNL     1      20.590   8.908  -0.236  1.00  0.00    -0.381 N 
ATOM     31 2H11 UNL     1      19.760   8.433  -0.589  1.00  0.00     0.157 HD
ATOM     32 1H11 UNL     1      21.317   8.203  -0.118  1.00  0.00     0.157 HD
ENDBRANCH  18  23
ENDBRANCH  12  13
ENDBRANCH   7  12
BRANCH   5  33
HETATM   33  C5  UNL     1      19.532   7.411   3.955  1.00  0.00     0.109 C 
HETATM   34  N2  UNL     1      20.815   7.540   4.009  1.00  0.00    -0.374 N 
HETATM   35  C6  UNL     1      21.502   6.315   4.331  1.00  0.00     0.141 C 
ATOM     36  H2  UNL     1      21.296   8.423   3.840  1.00  0.00     0.161 HD
HETATM   37  C7  UNL     1      20.453   5.260   3.976  1.00  0.00     0.141 C 
HETATM   38  N3  UNL     1      19.248   6.070   4.262  1.00  0.00    -0.374 N 
ATOM     39  H3  UNL     1      18.362   5.715   4.620  1.00  0.00     0.161 HD
ENDBRANCH   5  33
BRANCH   9  40
HETATM   40  C17 UNL     1      15.190  11.753   3.763  1.00  0.00     0.217 C 
HETATM   41  O3  UNL     1      14.115  11.560   3.175  1.00  0.00    -0.644 OA
HETATM   42  O4  UNL     1      15.706  13.020   3.851  1.00  0.00    -0.644 OA
ENDBRANCH   9  40
TORSDOF 6
ENDMDL
MODEL 4
REMARK VINA RESULT: -9.832270526      2.122      6.828
REMARK  6 active torsions:
REMARK  status: ('A' for Active; 'I' for Inactive)
REMARK    1  A    between atoms: C4_5  and  C5_6 
REMARK    2  A    between atoms: N4_14  and  C9_15 
REMARK    3  A    between atoms: C9_15  and  C10_16 
REMARK    4  A    between atoms: C11_17  and  C12_18 
REMARK    5  A    between atoms: N8_25  and  C13_26 
REMARK    6  A    between atoms: C16_37  and  C17_38 
ROOT
HETATM    1  C1  UNL     1      12.998  10.580   2.011  1.00  0.00     0.159 C 
HETATM    2  N1  UNL     1      14.300  10.342   2.608  1.00  0.00    -0.327 N 
HETATM    3  C2  UNL     1      14.444   9.913   3.871  1.00  0.00     0.108 A 
HETATM    4  C3  UNL     1      15.687   9.686   4.438  1.00  0.00     0.023 A 
HETATM    5  C4  UNL     1      16.081   9.253   5.684  1.00  0.00     0.037 A 
HETATM    6  C8  UNL     1      17.431   9.220   5.659  1.00  0.00     0.113 A 
HETATM    7  N4  UNL     1      17.938   9.616   4.441  1.00  0.00    -0.328 N 
HETATM    8  C15 UNL     1      16.839   9.907   3.682  1.00  0.00     0.073 A 
HETATM    9  C16 UNL     1      16.662  10.346   2.392  1.00  0.00     0.136 A 
HETATM   10  C18 UNL     1      15.385  10.556   1.879  1.00  0.00     0.266 A 
HETATM   11  O5  UNL     1      15.282  10.960   0.684  1.00  0.00    -0.267 OA
ENDROOT
BRANCH   7  12
HETATM   12  C9  UNL     1      19.284   9.630   4.113  1.00  0.00     0.131 C 
BRANCH  12  13
HETATM   13  C10 UNL     1      20.093   8.511   3.635  1.00  0.00     0.109 A 
HETATM   14  C11 UNL     1      20.183   7.191   3.863  1.00  0.00     0.144 A 
HETATM   15  N6  UNL     1      21.220   6.743   3.036  1.00  0.00    -0.279 N 
HETATM   16  N7  UNL     1      21.686   7.757   2.382  1.00  0.00    -0.233 N 
ATOM     17  H6  UNL     1      21.552   5.781   2.963  1.00  0.00     0.189 HD
HETATM   18  N8  UNL     1      21.067   8.863   2.679  1.00  0.00    -0.217 N 
ATOM     19  H7  UNL     1      22.451   7.697   1.710  1.00  0.00     0.209 HD
BRANCH  14  20
HETATM   20  C12 UNL     1      19.466   6.279   4.714  1.00  0.00     0.285 C 
HETATM   21  N5  UNL     1      19.036   4.992   4.165  1.00  0.00    -0.056 NA
HETATM   22  O1  UNL     1      19.157   6.441   5.874  1.00  0.00    -0.269 OA
ENDBRANCH  14  20
BRANCH  18  23
HETATM   23  C13 UNL     1      21.298  10.181   2.163  1.00  0.00     0.196 A 
HETATM   24  N9  UNL     1      21.481  11.336   2.824  1.00  0.00    -0.220 N 
HETATM   25  O2  UNL     1      21.659  12.311   1.955  1.00  0.00    -0.153 OA
ATOM     26  H9  UNL     1      21.481  11.442   3.839  1.00  0.00     0.198 HD
HETATM   27  N10 UNL     1      21.602  11.845   0.743  1.00  0.00    -0.222 N 
HETATM   28  C14 UNL     1      21.374  10.502   0.825  1.00  0.00     0.169 A 
ATOM     29  H10 UNL     1      21.707  12.385  -0.115  1.00  0.00     0.198 HD
HETATM   30  N11 UNL     1      21.262   9.731  -0.197  1.00  0.00    -0.381 N 
ATOM     31 2H11 UNL     1      21.092   8.728  -0.136  1.00  0.00     0.157 HD
ATOM     32 1H11 UNL     1      21.319   9.969  -1.187  1.00  0.00     0.157 HD
ENDBRANCH  18  23
ENDBRANCH  12  13
ENDBRANCH   7  12
BRANCH   5  33
HETATM   33  C5  UNL     1      15.209   8.910   6.823  1.00  0.00     0.109 C 
HETATM   34  N2  UNL     1      14.343   9.719   7.332  1.00  0.00    -0.374 N 
HETATM   35  C6  UNL     1      13.611   9.156   8.439  1.00  0.00     0.141 C 
ATOM     36  H2  UNL     1      14.191  10.666   6.986  1.00  0.00     0.161 HD
HETATM   37  C7  UNL     1      14.524   8.007   8.870  1.00  0.00     0.141 C 
HETATM   38  N3  UNL     1      15.113   7.710   7.546  1.00  0.00    -0.374 N 
ATOM     39  H3  UNL     1      15.401   6.789   7.214  1.00  0.00     0.161 HD
ENDBRANCH   5  33
BRANCH   9  40
HETATM   40  C17 UNL     1      17.774  10.597   1.502  1.00  0.00     0.217 C 
HETATM   41  O3  UNL     1      18.172   9.706   0.735  1.00  0.00    -0.644 OA
HETATM   42  O4  UNL     1      18.385  11.823   1.503  1.00  0.00    -0.644 OA
ENDBRANCH   9  40
TORSDOF 6
ENDMDL
MODEL 5
REMARK VINA RESULT: -9.782659312      0.580      1.033
REMARK  6 active torsions:
REMARK  status: ('A' for Active; 'I' for Inactive)
REMARK    1  A    between atoms: C4_5  and  C5_6 
REMARK    2  A    between atoms: N4_14  and  C9_15 
REMARK    3  A    between atoms: C9_15  and  C10_16 
REMARK    4  A    between atoms: C11_17  and  C12_18 
REMARK    5  A    between atoms: N8_25  and  C13_26 
REMARK    6  A    between atoms: C16_37  and  C17_38 
ROOT
HETATM    1  C1  UNL     1      20.143  11.268   0.527  1.00  0.00     0.159 C 
HETATM    2  N1  UNL     1      19.319  10.870   1.654  1.00  0.00    -0.327 N 
HETATM    3  C2  UNL     1      19.567   9.763   2.370  1.00  0.00     0.108 A 
HETATM    4  C3  UNL     1      18.780   9.384   3.445  1.00  0.00     0.023 A 
HETATM    5  C4  UNL     1      18.834   8.319   4.314  1.00  0.00     0.037 A 
HETATM    6  C8  UNL     1      17.798   8.477   5.166  1.00  0.00     0.113 A 
HETATM    7  N4  UNL     1      17.065   9.610   4.888  1.00  0.00    -0.328 N 
HETATM    8  C15 UNL     1      17.687  10.172   3.808  1.00  0.00     0.073 A 
HETATM    9  C16 UNL     1      17.456  11.300   3.057  1.00  0.00     0.136 A 
HETATM   10  C18 UNL     1      18.285  11.626   1.987  1.00  0.00     0.266 A 
HETATM   11  O5  UNL     1      18.025  12.677   1.332  1.00  0.00    -0.267 OA
ENDROOT
BRANCH   7  12
HETATM   12  C9  UNL     1      15.981  10.051   5.629  1.00  0.00     0.131 C 
BRANCH  12  13
HETATM   13  C10 UNL     1      14.606   9.560   5.569  1.00  0.00     0.109 A 
HETATM   14  C11 UNL     1      13.748   9.141   4.625  1.00  0.00     0.144 A 
HETATM   15  N6  UNL     1      12.569   8.825   5.311  1.00  0.00    -0.279 N 
HETATM   16  N7  UNL     1      12.757   9.056   6.571  1.00  0.00    -0.233 N 
ATOM     17  H6  UNL     1      11.709   8.474   4.890  1.00  0.00     0.189 HD
HETATM   18  N8  UNL     1      13.955   9.500   6.818  1.00  0.00    -0.217 N 
ATOM     19  H7  UNL     1      12.047   8.906   7.287  1.00  0.00     0.209 HD
BRANCH  14  20
HETATM   20  C12 UNL     1      13.841   8.982   3.199  1.00  0.00     0.285 C 
HETATM   21  N5  UNL     1      12.707   9.389   2.368  1.00  0.00    -0.056 NA
HETATM   22  O1  UNL     1      14.774   8.537   2.566  1.00  0.00    -0.269 OA
ENDBRANCH  14  20
BRANCH  18  23
HETATM   23  C13 UNL     1      14.529   9.863   8.082  1.00  0.00     0.196 A 
HETATM   24  N9  UNL     1      15.644   9.405   8.675  1.00  0.00    -0.220 N 
HETATM   25  O2  UNL     1      15.800  10.011   9.835  1.00  0.00    -0.153 OA
ATOM     26  H9  UNL     1      16.270   8.698   8.289  1.00  0.00     0.198 HD
HETATM   27  N10 UNL     1      14.830  10.854  10.031  1.00  0.00    -0.222 N 
HETATM   28  C14 UNL     1      14.001  10.794   8.949  1.00  0.00     0.169 A 
ATOM     29  H10 UNL     1      14.709  11.452  10.848  1.00  0.00     0.198 HD
HETATM   30  N11 UNL     1      12.937  11.504   8.821  1.00  0.00    -0.381 N 
ATOM     31 2H11 UNL     1      12.318  11.458   8.012  1.00  0.00     0.157 HD
ATOM     32 1H11 UNL     1      12.547  12.193   9.464  1.00  0.00     0.157 HD
ENDBRANCH  18  23
ENDBRANCH  12  13
ENDBRANCH   7  12
BRANCH   5  33
HETATM   33  C5  UNL     1      19.812   7.215   4.308  1.00  0.00     0.109 C 
HETATM   34  N2  UNL     1      21.039   7.342   4.686  1.00  0.00    -0.374 N 
HETATM   35  C6  UNL     1      21.801   6.122   4.588  1.00  0.00     0.141 C 
ATOM     36  H2  UNL     1      21.433   8.221   5.022  1.00  0.00     0.161 HD
HETATM   37  C7  UNL     1      20.968   5.308   3.597  1.00  0.00     0.141 C 
HETATM   38  N3  UNL     1      19.642   5.871   3.938  1.00  0.00    -0.374 N 
ATOM     39  H3  UNL     1      18.755   5.369   3.909  1.00  0.00     0.161 HD
ENDBRANCH   5  33
BRANCH   9  40
HETATM   40  C17 UNL     1      16.365  12.207   3.341  1.00  0.00     0.217 C 
HETATM   41  O3  UNL     1      15.205  11.907   3.019  1.00  0.00    -0.644 OA
HETATM   42  O4  UNL     1      16.615  13.398   3.971  1.00  0.00    -0.644 OA
ENDBRANCH   9  40
TORSDOF 6
ENDMDL
