MODEL 1
REMARK VINA RESULT: -10.091326114      0.000      0.000
REMARK  8 active torsions:
REMARK  status: ('A' for Active; 'I' for Inactive)
REMARK    1  A    between atoms: C4_4  and  N1_5 
REMARK    2  A    between atoms: N1_5  and  C5_7 
REMARK    3  A    between atoms: C6_10  and  N3_11 
REMARK    4  A    between atoms: C7_14  and  C8_15 
REMARK    5  A    between atoms: C8_15  and  C9_17 
REMARK    6  A    between atoms: C9_17  and  O2_18 
REMARK    7  A    between atoms: N5_22  and  C10_23 
REMARK    8  A    between atoms: C11_26  and  N7_27 
ROOT
HETATM    1  C5  UNL     1      18.850  10.596   0.454  1.00  0.00     0.720 A 
HETATM    2  N2  UNL     1      19.752  10.140  -0.400  1.00  0.00    -0.172 N 
ATOM      3  H2  UNL     1      19.636  10.380  -1.385  1.00  0.00     0.186 HD
HETATM    4  C6  UNL     1      20.833   9.366  -0.056  1.00  0.00     0.147 A 
HETATM    5  C7  UNL     1      20.961   9.061   1.276  1.00  0.00     0.142 A 
HETATM    6  N4  UNL     1      20.005   9.553   2.125  1.00  0.00    -0.258 N 
ATOM      7  H4  UNL     1      20.103   9.324   3.115  1.00  0.00     0.189 HD
HETATM    8  N5  UNL     1      18.991  10.280   1.789  1.00  0.00     0.091 N 
ENDROOT
BRANCH   8   9
HETATM    9  C10 UNL     1      18.017  10.774   2.701  1.00  0.00     0.737 A 
HETATM   10  N6  UNL     1      17.323   9.964   3.522  1.00  0.00    -0.019 N 
HETATM   11  C11 UNL     1      16.400  10.463   4.382  1.00  0.00     0.699 A 
ATOM     12  H6  UNL     1      17.495   8.958   3.498  1.00  0.00     0.203 HD
HETATM   13  N9  UNL     1      16.145  11.786   4.442  1.00  0.00    -0.140 N 
HETATM   14  C17 UNL     1      16.832  12.598   3.627  1.00  0.00     0.352 A 
ATOM     15  H9  UNL     1      15.449  12.158   5.089  1.00  0.00     0.189 HD
HETATM   16  O3  UNL     1      16.594  13.842   3.684  1.00  0.00    -0.246 OA
HETATM   17  N10 UNL     1      17.749  12.091   2.775  1.00  0.00    -0.138 N 
ATOM     18  H10 UNL     1      18.258  12.731   2.165  1.00  0.00     0.189 HD
BRANCH  11  19
HETATM   19  N7  UNL     1      15.652   9.618   5.262  1.00  0.00    -0.214 N 
HETATM   20  C12 UNL     1      14.253   9.312   5.024  1.00  0.00     0.171 C 
HETATM   21  C13 UNL     1      13.578   9.226   6.377  1.00  0.00     0.292 C 
HETATM   22  N8  UNL     1      14.297  10.060   7.299  1.00  0.00     0.087 N 
HETATM   23  C14 UNL     1      13.503  10.458   8.436  1.00  0.00     0.310 C 
HETATM   24  C15 UNL     1      15.495   9.337   7.696  1.00  0.00     0.292 C 
HETATM   25  C16 UNL     1      16.287   9.032   6.443  1.00  0.00     0.171 C 
ENDBRANCH  11  19
ENDBRANCH   8   9
BRANCH   1  26
HETATM   26  N1  UNL     1      17.735  11.395   0.085  1.00  0.00    -0.189 N 
ATOM     27  H1  UNL     1      17.712  12.374   0.370  1.00  0.00     0.184 HD
BRANCH  26  28
HETATM   28  C4  UNL     1      16.665  10.880  -0.662  1.00  0.00     0.056 A 
HETATM   29  C3  UNL     1      16.516  10.849  -2.018  1.00  0.00     0.054 A 
HETATM   30  C2  UNL     1      15.366  10.327  -2.625  1.00  0.00     0.010 A 
HETATM   31  C1  UNL     1      15.222  10.303  -4.101  1.00  0.00     0.068 C 
HETATM   32  N11 UNL     1      14.362   9.836  -1.886  1.00  0.00    -0.328 N 
HETATM   33  C19 UNL     1      14.509   9.866  -0.560  1.00  0.00     0.247 A 
ATOM     34  H11 UNL     1      13.521   9.455  -2.319  1.00  0.00     0.169 HD
HETATM   35  C18 UNL     1      15.600  10.359   0.090  1.00  0.00     0.104 A 
HETATM   36  O4  UNL     1      13.553   9.397   0.130  1.00  0.00    -0.268 OA
ENDBRANCH  26  28
ENDBRANCH   1  26
BRANCH   5  37
HETATM   37  C8  UNL     1      22.047   8.252   1.815  1.00  0.00     0.204 C 
HETATM   38  O1  UNL     1      23.217   8.679   1.774  1.00  0.00    -0.288 OA
BRANCH  37  39
HETATM   39  C9  UNL     1      21.792   6.910   2.423  1.00  0.00     0.249 C 
BRANCH  39  40
HETATM   40  O2  UNL     1      20.620   6.846   3.151  1.00  0.00    -0.393 OA
ATOM     41  H2  UNL     1      20.650   6.221   3.865  1.00  0.00     0.209 HD
ENDBRANCH  39  40
ENDBRANCH  37  39
ENDBRANCH   5  37
BRANCH   4  42
HETATM   42  N3  UNL     1      21.635   8.987  -0.960  1.00  0.00    -0.383 N 
ATOM     43  H32 UNL     1      22.477   9.492  -1.237  1.00  0.00     0.157 HD
ATOM     44  H31 UNL     1      21.445   8.119  -1.460  1.00  0.00     0.157 HD
ENDBRANCH   4  42
TORSDOF 8
ENDMDL
MODEL 2
REMARK VINA RESULT: -9.893955327      2.895      5.008
REMARK  8 active torsions:
REMARK  status: ('A' for Active; 'I' for Inactive)
REMARK    1  A    between atoms: C4_4  and  N1_5 
REMARK    2  A    between atoms: N1_5  and  C5_7 
REMARK    3  A    between atoms: C6_10  and  N3_11 
REMARK    4  A    between atoms: C7_14  and  C8_15 
REMARK    5  A    between atoms: C8_15  and  C9_17 
REMARK    6  A    between atoms: C9_17  and  O2_18 
REMARK    7  A    between atoms: N5_22  and  C10_23 
REMARK    8  A    between atoms: C11_26  and  N7_27 
ROOT
HETATM    1  C5  UNL     1      20.006   8.324   3.644  1.00  0.00     0.720 A 
HETATM    2  N2  UNL     1      21.132   7.754   3.241  1.00  0.00    -0.172 N 
ATOM      3  H2  UNL     1      21.868   8.362   2.881  1.00  0.00     0.186 HD
HETATM    4  C6  UNL     1      21.379   6.403   3.274  1.00  0.00     0.147 A 
HETATM    5  C7  UNL     1      20.369   5.614   3.765  1.00  0.00     0.142 A 
HETATM    6  N4  UNL     1      19.222   6.244   4.170  1.00  0.00    -0.258 N 
ATOM      7  H4  UNL     1      18.474   5.654   4.534  1.00  0.00     0.189 HD
HETATM    8  N5  UNL     1      19.000   7.517   4.134  1.00  0.00     0.091 N 
ENDROOT
BRANCH   8   9
HETATM    9  C10 UNL     1      17.795   8.137   4.564  1.00  0.00     0.737 A 
HETATM   10  N6  UNL     1      16.853   8.558   3.699  1.00  0.00    -0.019 N 
HETATM   11  C11 UNL     1      15.713   9.146   4.139  1.00  0.00     0.699 A 
ATOM     12  H6  UNL     1      17.000   8.433   2.697  1.00  0.00     0.203 HD
HETATM   13  N9  UNL     1      15.483   9.330   5.455  1.00  0.00    -0.140 N 
HETATM   14  C17 UNL     1      16.417   8.913   6.321  1.00  0.00     0.352 A 
ATOM     15  H9  UNL     1      14.624   9.773   5.782  1.00  0.00     0.189 HD
HETATM   16  O3  UNL     1      16.202   9.084   7.559  1.00  0.00    -0.246 OA
HETATM   17  N10 UNL     1      17.549   8.329   5.874  1.00  0.00    -0.138 N 
ATOM     18  H10 UNL     1      18.244   8.021   6.554  1.00  0.00     0.189 HD
BRANCH  11  19
HETATM   19  N7  UNL     1      14.700   9.601   3.235  1.00  0.00    -0.214 N 
HETATM   20  C12 UNL     1      13.421   8.923   3.114  1.00  0.00     0.171 C 
HETATM   21  C13 UNL     1      13.010   9.004   1.659  1.00  0.00     0.292 C 
HETATM   22  N8  UNL     1      14.196   9.099   0.853  1.00  0.00     0.087 N 
HETATM   23  C14 UNL     1      13.984   8.684  -0.512  1.00  0.00     0.310 C 
HETATM   24  C15 UNL     1      14.671  10.471   0.939  1.00  0.00     0.292 C 
HETATM   25  C16 UNL     1      14.929  10.780   2.398  1.00  0.00     0.171 C 
ENDBRANCH  11  19
ENDBRANCH   8   9
BRANCH   1  26
HETATM   26  N1  UNL     1      19.763   9.722   3.604  1.00  0.00    -0.189 N 
ATOM     27  H1  UNL     1      19.613  10.223   4.480  1.00  0.00     0.184 HD
BRANCH  26  28
HETATM   28  C4  UNL     1      19.723  10.436   2.398  1.00  0.00     0.056 A 
HETATM   29  C3  UNL     1      18.682  10.566   1.525  1.00  0.00     0.054 A 
HETATM   30  C2  UNL     1      18.801  11.292   0.332  1.00  0.00     0.010 A 
HETATM   31  C1  UNL     1      17.659  11.420  -0.605  1.00  0.00     0.068 C 
HETATM   32  N11 UNL     1      19.954  11.890   0.005  1.00  0.00    -0.328 N 
HETATM   33  C19 UNL     1      20.972  11.764   0.860  1.00  0.00     0.247 A 
ATOM     34  H11 UNL     1      20.050  12.420  -0.861  1.00  0.00     0.169 HD
HETATM   35  C18 UNL     1      20.919  11.073   2.033  1.00  0.00     0.104 A 
HETATM   36  O4  UNL     1      22.058  12.336   0.540  1.00  0.00    -0.268 OA
ENDBRANCH  26  28
ENDBRANCH   1  26
BRANCH   5  37
HETATM   37  C8  UNL     1      20.462   4.163   3.870  1.00  0.00     0.204 C 
HETATM   38  O1  UNL     1      21.361   3.649   4.562  1.00  0.00    -0.288 OA
BRANCH  37  39
HETATM   39  C9  UNL     1      19.496   3.267   3.164  1.00  0.00     0.249 C 
BRANCH  39  40
HETATM   40  O2  UNL     1      19.664   3.242   1.794  1.00  0.00    -0.393 OA
ATOM     41  H2  UNL     1      20.509   2.904   1.519  1.00  0.00     0.209 HD
ENDBRANCH  39  40
ENDBRANCH  37  39
ENDBRANCH   5  37
BRANCH   4  42
HETATM   42  N3  UNL     1      22.495   5.969   2.863  1.00  0.00    -0.383 N 
ATOM     43  H32 UNL     1      22.675   5.643   1.913  1.00  0.00     0.157 HD
ATOM     44  H31 UNL     1      23.284   5.933   3.508  1.00  0.00     0.157 HD
ENDBRANCH   4  42
TORSDOF 8
ENDMDL
MODEL 3
REMARK VINA RESULT: -9.678561497      2.383      6.027
REMARK  8 active torsions:
REMARK  status: ('A' for Active; 'I' for Inactive)
REMARK    1  A    between atoms: C4_4  and  N1_5 
REMARK    2  A    between atoms: N1_5  and  C5_7 
REMARK    3  A    between atoms: C6_10  and  N3_11 
REMARK    4  A    between atoms: C7_14  and  C8_15 
REMARK    5  A    between atoms: C8_15  and  C9_17 
REMARK    6  A    between atoms: C9_17  and  O2_18 
REMARK    7  A    between atoms: N5_22  and  C10_23 
REMARK    8  A    between atoms: C11_26  and  N7_27 
ROOT
HETATM    1  C5  UNL     1      15.797  10.487  -0.909  1.00  0.00     0.720 A 
HETATM    2  N2  UNL     1      16.148  10.758  -2.156  1.00  0.00    -0.172 N 
ATOM      3  H2  UNL     1      17.022  11.264  -2.303  1.00  0.00     0.186 HD
HETATM    4  C6  UNL     1      15.421  10.406  -3.267  1.00  0.00     0.147 A 
HETATM    5  C7  UNL     1      14.251   9.727  -3.035  1.00  0.00     0.142 A 
HETATM    6  N4  UNL     1      13.925   9.468  -1.730  1.00  0.00    -0.258 N 
ATOM      7  H4  UNL     1      13.055   8.963  -1.561  1.00  0.00     0.189 HD
HETATM    8  N5  UNL     1      14.618   9.804  -0.692  1.00  0.00     0.091 N 
ENDROOT
BRANCH   8   9
HETATM    9  C10 UNL     1      14.248   9.518   0.651  1.00  0.00     0.737 A 
HETATM   10  N6  UNL     1      15.059   9.778   1.693  1.00  0.00    -0.019 N 
HETATM   11  C11 UNL     1      14.680   9.494   2.964  1.00  0.00     0.699 A 
ATOM     12  H6  UNL     1      15.975  10.197   1.524  1.00  0.00     0.203 HD
HETATM   13  N9  UNL     1      13.478   8.940   3.227  1.00  0.00    -0.140 N 
HETATM   14  C17 UNL     1      12.666   8.678   2.194  1.00  0.00     0.352 A 
ATOM     15  H9  UNL     1      13.197   8.728   4.184  1.00  0.00     0.189 HD
HETATM   16  O3  UNL     1      11.536   8.158   2.440  1.00  0.00    -0.246 OA
HETATM   17  N10 UNL     1      13.053   8.965   0.933  1.00  0.00    -0.138 N 
ATOM     18  H10 UNL     1      12.417   8.755   0.164  1.00  0.00     0.189 HD
BRANCH  11  19
HETATM   19  N7  UNL     1      15.528   9.763   4.085  1.00  0.00    -0.214 N 
HETATM   20  C12 UNL     1      16.746   9.008   4.322  1.00  0.00     0.171 C 
HETATM   21  C13 UNL     1      16.895   8.862   5.822  1.00  0.00     0.292 C 
HETATM   22  N8  UNL     1      15.588   8.905   6.417  1.00  0.00     0.087 N 
HETATM   23  C14 UNL     1      15.543   8.292   7.722  1.00  0.00     0.310 C 
HETATM   24  C15 UNL     1      15.173  10.299   6.455  1.00  0.00     0.292 C 
HETATM   25  C16 UNL     1      15.187  10.823   5.035  1.00  0.00     0.171 C 
ENDBRANCH  11  19
ENDBRANCH   8   9
BRANCH   1  26
HETATM   26  N1  UNL     1      16.559  10.857   0.231  1.00  0.00    -0.189 N 
ATOM     27  H1  UNL     1      16.084  11.290   1.024  1.00  0.00     0.184 HD
BRANCH  26  28
HETATM   28  C4  UNL     1      17.943  10.647   0.302  1.00  0.00     0.056 A 
HETATM   29  C3  UNL     1      18.674   9.629  -0.236  1.00  0.00     0.054 A 
HETATM   30  C2  UNL     1      20.060   9.533  -0.052  1.00  0.00     0.010 A 
HETATM   31  C1  UNL     1      20.837   8.418  -0.645  1.00  0.00     0.068 C 
HETATM   32  N11 UNL     1      20.722  10.449   0.667  1.00  0.00    -0.328 N 
HETATM   33  C19 UNL     1      20.006  11.446   1.193  1.00  0.00     0.247 A 
ATOM     34  H11 UNL     1      21.730  10.387   0.807  1.00  0.00     0.169 HD
HETATM   35  C18 UNL     1      18.660  11.594   1.051  1.00  0.00     0.104 A 
HETATM   36  O4  UNL     1      20.644  12.308   1.872  1.00  0.00    -0.268 OA
ENDBRANCH  26  28
ENDBRANCH   1  26
BRANCH   5  37
HETATM   37  C8  UNL     1      13.358   9.278  -4.096  1.00  0.00     0.204 C 
HETATM   38  O1  UNL     1      13.322   9.896  -5.178  1.00  0.00    -0.288 OA
BRANCH  37  39
HETATM   39  C9  UNL     1      12.475   8.084  -3.919  1.00  0.00     0.249 C 
BRANCH  39  40
HETATM   40  O2  UNL     1      12.887   6.980  -4.639  1.00  0.00    -0.393 OA
ATOM     41  H2  UNL     1      13.762   6.686  -4.416  1.00  0.00     0.209 HD
ENDBRANCH  39  40
ENDBRANCH  37  39
ENDBRANCH   5  37
BRANCH   4  42
HETATM   42  N3  UNL     1      15.856  10.718  -4.415  1.00  0.00    -0.383 N 
ATOM     43  H32 UNL     1      16.785  10.484  -4.764  1.00  0.00     0.157 HD
ATOM     44  H31 UNL     1      15.253  11.238  -5.051  1.00  0.00     0.157 HD
ENDBRANCH   4  42
TORSDOF 8
ENDMDL
MODEL 4
REMARK VINA RESULT: -9.589596041      2.552      7.422
REMARK  8 active torsions:
REMARK  status: ('A' for Active; 'I' for Inactive)
REMARK    1  A    between atoms: C4_4  and  N1_5 
REMARK    2  A    between atoms: N1_5  and  C5_7 
REMARK    3  A    between atoms: C6_10  and  N3_11 
REMARK    4  A    between atoms: C7_14  and  C8_15 
REMARK    5  A    between atoms: C8_15  and  C9_17 
REMARK    6  A    between atoms: C9_17  and  O2_18 
REMARK    7  A    between atoms: N5_22  and  C10_23 
REMARK    8  A    between atoms: C11_26  and  N7_27 
ROOT
HETATM    1  C5  UNL     1      15.409  10.617   3.632  1.00  0.00     0.720 A 
HETATM    2  N2  UNL     1      14.108  10.771   3.441  1.00  0.00    -0.172 N 
ATOM      3  H2  UNL     1      13.538  11.028   4.247  1.00  0.00     0.186 HD
HETATM    4  C6  UNL     1      13.471  10.608   2.235  1.00  0.00     0.147 A 
HETATM    5  C7  UNL     1      14.266  10.262   1.171  1.00  0.00     0.142 A 
HETATM    6  N4  UNL     1      15.607  10.112   1.414  1.00  0.00    -0.258 N 
ATOM      7  H4  UNL     1      16.195   9.854   0.621  1.00  0.00     0.189 HD
HETATM    8  N5  UNL     1      16.195  10.267   2.554  1.00  0.00     0.091 N 
ENDROOT
BRANCH   8   9
HETATM    9  C10 UNL     1      17.592  10.103   2.769  1.00  0.00     0.737 A 
HETATM   10  N6  UNL     1      18.100   9.043   3.423  1.00  0.00    -0.019 N 
HETATM   11  C11 UNL     1      19.437   8.913   3.613  1.00  0.00     0.699 A 
ATOM     12  H6  UNL     1      17.469   8.325   3.782  1.00  0.00     0.203 HD
HETATM   13  N9  UNL     1      20.302   9.841   3.154  1.00  0.00    -0.140 N 
HETATM   14  C17 UNL     1      19.802  10.899   2.502  1.00  0.00     0.352 A 
ATOM     15  H9  UNL     1      21.306   9.740   3.299  1.00  0.00     0.189 HD
HETATM   16  O3  UNL     1      20.613  11.772   2.069  1.00  0.00    -0.246 OA
HETATM   17  N10 UNL     1      18.470  11.019   2.318  1.00  0.00    -0.138 N 
ATOM     18  H10 UNL     1      18.115  11.835   1.819  1.00  0.00     0.189 HD
BRANCH  11  19
HETATM   19  N7  UNL     1      19.997   7.793   4.307  1.00  0.00    -0.214 N 
HETATM   20  C12 UNL     1      21.430   7.563   4.359  1.00  0.00     0.171 C 
HETATM   21  C13 UNL     1      21.643   6.064   4.317  1.00  0.00     0.292 C 
HETATM   22  N8  UNL     1      20.537   5.465   3.622  1.00  0.00     0.087 N 
HETATM   23  C14 UNL     1      20.849   4.164   3.084  1.00  0.00     0.310 C 
HETATM   24  C15 UNL     1      19.416   5.419   4.547  1.00  0.00     0.292 C 
HETATM   25  C16 UNL     1      19.127   6.837   4.993  1.00  0.00     0.171 C 
ENDBRANCH  11  19
ENDBRANCH   8   9
BRANCH   1  26
HETATM   26  N1  UNL     1      16.055  10.787   4.886  1.00  0.00    -0.189 N 
ATOM     27  H1  UNL     1      16.941  11.292   4.921  1.00  0.00     0.184 HD
BRANCH  26  28
HETATM   28  C4  UNL     1      15.514  10.283   6.077  1.00  0.00     0.056 A 
HETATM   29  C3  UNL     1      14.546  10.832   6.866  1.00  0.00     0.054 A 
HETATM   30  C2  UNL     1      14.126  10.223   8.057  1.00  0.00     0.010 A 
HETATM   31  C1  UNL     1      13.072  10.836   8.901  1.00  0.00     0.068 C 
HETATM   32  N11 UNL     1      14.667   9.068   8.464  1.00  0.00    -0.328 N 
HETATM   33  C19 UNL     1      15.613   8.530   7.691  1.00  0.00     0.247 A 
ATOM     34  H11 UNL     1      14.368   8.617   9.329  1.00  0.00     0.169 HD
HETATM   35  C18 UNL     1      16.064   9.072   6.526  1.00  0.00     0.104 A 
HETATM   36  O4  UNL     1      16.118   7.435   8.087  1.00  0.00    -0.268 OA
ENDBRANCH  26  28
ENDBRANCH   1  26
BRANCH   5  37
HETATM   37  C8  UNL     1      13.757  10.049  -0.177  1.00  0.00     0.204 C 
HETATM   38  O1  UNL     1      12.925   9.147  -0.391  1.00  0.00    -0.288 OA
BRANCH  37  39
HETATM   39  C9  UNL     1      14.213  10.894  -1.325  1.00  0.00     0.249 C 
BRANCH  39  40
HETATM   40  O2  UNL     1      15.434  11.501  -1.114  1.00  0.00    -0.393 OA
ATOM     41  H2  UNL     1      15.997  11.028  -0.513  1.00  0.00     0.209 HD
ENDBRANCH  39  40
ENDBRANCH  37  39
ENDBRANCH   5  37
BRANCH   4  42
HETATM   42  N3  UNL     1      12.219  10.783   2.169  1.00  0.00    -0.383 N 
ATOM     43  H32 UNL     1      11.573  10.637   2.944  1.00  0.00     0.157 HD
ATOM     44  H31 UNL     1      11.805  11.090   1.289  1.00  0.00     0.157 HD
ENDBRANCH   4  42
TORSDOF 8
ENDMDL
MODEL 5
REMARK VINA RESULT: -9.581167943      2.180      6.879
REMARK  8 active torsions:
REMARK  status: ('A' for Active; 'I' for Inactive)
REMARK    1  A    between atoms: C4_4  and  N1_5 
REMARK    2  A    between atoms: N1_5  and  C5_7 
REMARK    3  A    between atoms: C6_10  and  N3_11 
REMARK    4  A    between atoms: C7_14  and  C8_15 
REMARK    5  A    between atoms: C8_15  and  C9_17 
REMARK    6  A    between atoms: C9_17  and  O2_18 
REMARK    7  A    between atoms: N5_22  and  C10_23 
REMARK    8  A    between atoms: C11_26  and  N7_27 
ROOT
HETATM    1  C5  UNL     1      16.194  10.706   1.982  1.00  0.00     0.720 A 
HETATM    2  N2  UNL     1      14.886  10.727   1.777  1.00  0.00    -0.172 N 
ATOM      3  H2  UNL     1      14.288  10.989   2.561  1.00  0.00     0.186 HD
HETATM    4  C6  UNL     1      14.277  10.423   0.584  1.00  0.00     0.147 A 
HETATM    5  C7  UNL     1      15.109  10.076  -0.450  1.00  0.00     0.142 A 
HETATM    6  N4  UNL     1      16.455  10.065  -0.194  1.00  0.00    -0.258 N 
ATOM      7  H4  UNL     1      17.071   9.806  -0.966  1.00  0.00     0.189 HD
HETATM    8  N5  UNL     1      17.017  10.354   0.934  1.00  0.00     0.091 N 
ENDROOT
BRANCH   8   9
HETATM    9  C10 UNL     1      18.421  10.333   1.162  1.00  0.00     0.737 A 
HETATM   10  N6  UNL     1      19.020   9.360   1.875  1.00  0.00    -0.019 N 
HETATM   11  C11 UNL     1      20.361   9.366   2.078  1.00  0.00     0.699 A 
ATOM     12  H6  UNL     1      18.455   8.607   2.270  1.00  0.00     0.203 HD
HETATM   13  N9  UNL     1      21.140  10.345   1.573  1.00  0.00    -0.140 N 
HETATM   14  C17 UNL     1      20.550  11.316   0.863  1.00  0.00     0.352 A 
ATOM     15  H9  UNL     1      22.148  10.346   1.728  1.00  0.00     0.189 HD
HETATM   16  O3  UNL     1      21.281  12.236   0.386  1.00  0.00    -0.246 OA
HETATM   17  N10 UNL     1      19.214  11.301   0.667  1.00  0.00    -0.138 N 
ATOM     18  H10 UNL     1      18.789  12.052   0.123  1.00  0.00     0.189 HD
BRANCH  11  19
HETATM   19  N7  UNL     1      21.016   8.342   2.833  1.00  0.00    -0.214 N 
HETATM   20  C12 UNL     1      21.744   7.262   2.189  1.00  0.00     0.171 C 
HETATM   21  C13 UNL     1      21.533   6.019   3.028  1.00  0.00     0.292 C 
HETATM   22  N8  UNL     1      20.273   6.138   3.711  1.00  0.00     0.087 N 
HETATM   23  C14 UNL     1      19.733   4.865   4.120  1.00  0.00     0.310 C 
HETATM   24  C15 UNL     1      20.473   7.034   4.839  1.00  0.00     0.292 C 
HETATM   25  C16 UNL     1      20.971   8.356   4.295  1.00  0.00     0.171 C 
ENDBRANCH  11  19
ENDBRANCH   8   9
BRANCH   1  26
HETATM   26  N1  UNL     1      16.811  11.022   3.222  1.00  0.00    -0.189 N 
ATOM     27  H1  UNL     1      17.566  11.708   3.237  1.00  0.00     0.184 HD
BRANCH  26  28
HETATM   28  C4  UNL     1      16.414  10.422   4.425  1.00  0.00     0.056 A 
HETATM   29  C3  UNL     1      15.361  10.749   5.229  1.00  0.00     0.054 A 
HETATM   30  C2  UNL     1      15.107  10.073   6.430  1.00  0.00     0.010 A 
HETATM   31  C1  UNL     1      13.957  10.444   7.289  1.00  0.00     0.068 C 
HETATM   32  N11 UNL     1      15.898   9.071   6.834  1.00  0.00    -0.328 N 
HETATM   33  C19 UNL     1      16.928   8.751   6.048  1.00  0.00     0.247 A 
ATOM     34  H11 UNL     1      15.721   8.574   7.707  1.00  0.00     0.169 HD
HETATM   35  C18 UNL     1      17.228   9.368   4.871  1.00  0.00     0.104 A 
HETATM   36  O4  UNL     1      17.670   7.800   6.441  1.00  0.00    -0.268 OA
ENDBRANCH  26  28
ENDBRANCH   1  26
BRANCH   5  37
HETATM   37  C8  UNL     1      14.633   9.723  -1.781  1.00  0.00     0.204 C 
HETATM   38  O1  UNL     1      13.766   8.839  -1.916  1.00  0.00    -0.288 OA
BRANCH  37  39
HETATM   39  C9  UNL     1      15.164  10.401  -3.004  1.00  0.00     0.249 C 
BRANCH  39  40
HETATM   40  O2  UNL     1      16.517  10.669  -2.945  1.00  0.00    -0.393 OA
ATOM     41  H2  UNL     1      16.931  10.364  -2.146  1.00  0.00     0.209 HD
ENDBRANCH  39  40
ENDBRANCH  37  39
ENDBRANCH   5  37
BRANCH   4  42
HETATM   42  N3  UNL     1      13.014  10.478   0.503  1.00  0.00    -0.383 N 
ATOM     43  H32 UNL     1      12.387  10.580   1.301  1.00  0.00     0.157 HD
ATOM     44  H31 UNL     1      12.572  10.419  -0.414  1.00  0.00     0.157 HD
ENDBRANCH   4  42
TORSDOF 8
ENDMDL
