MODEL 1
REMARK VINA RESULT: -9.797639716      0.000      0.000
REMARK  10 active torsions:
REMARK  status: ('A' for Active; 'I' for Inactive)
REMARK    1  A    between atoms: C2_2  and  N1_3 
REMARK    2  A    between atoms: C2_2  and  C3_7 
REMARK    3  A    between atoms: N3_10  and  C4_11 
REMARK    4  A    between atoms: C5_14  and  N5_15 
REMARK    5  A    between atoms: N5_15  and  C6_17 
REMARK    6  A    between atoms: C6_17  and  C7_18 
REMARK    7  A    between atoms: C7_18  and  N6_19 
REMARK    8  A    between atoms: C13_31  and  C14_32 
REMARK    9  A    between atoms: C14_32  and  C15_33 
REMARK   10  A    between atoms: C17_40  and  O2_41 
ROOT
HETATM    1  C4  UNL     1      15.010   9.586   1.606  1.00  0.00     0.715 A 
HETATM    2  N4  UNL     1      14.363   9.412   2.778  1.00  0.00    -0.019 N 
ATOM      3  H4  UNL     1      13.344   9.381   2.774  1.00  0.00     0.203 HD
HETATM    4  C5  UNL     1      15.006   9.277   3.949  1.00  0.00     0.715 A 
HETATM    5  N8  UNL     1      16.370   9.321   3.931  1.00  0.00    -0.068 N 
HETATM    6  N9  UNL     1      17.274   9.218   4.890  1.00  0.00    -0.288 N 
ATOM      7  H9  UNL     1      17.052   9.081   5.876  1.00  0.00     0.187 HD
HETATM    8  C12 UNL     1      18.528   9.319   4.401  1.00  0.00     0.123 A 
HETATM    9  C13 UNL     1      18.408   9.497   3.042  1.00  0.00     0.030 A 
HETATM   10  C18 UNL     1      17.056   9.493   2.791  1.00  0.00     0.172 A 
HETATM   11  N12 UNL     1      16.366   9.620   1.670  1.00  0.00    -0.171 N 
ATOM     12  H12 UNL     1      16.884   9.751   0.801  1.00  0.00     0.186 HD
ENDROOT
BRANCH   1  13
HETATM   13  N3  UNL     1      14.334   9.719   0.363  1.00  0.00    -0.123 N 
HETATM   14  N2  UNL     1      14.636   9.247  -0.891  1.00  0.00    -0.290 N 
HETATM   15  C3  UNL     1      14.061   9.907  -1.820  1.00  0.00     0.036 C 
ATOM     16  H2  UNL     1      15.254   8.454  -1.062  1.00  0.00     0.187 HD
HETATM   17  C20 UNL     1      13.248  10.980  -1.201  1.00  0.00     0.078 C 
HETATM   18  C19 UNL     1      13.076  10.453   0.204  1.00  0.00     0.173 C 
BRANCH  15  19
HETATM   19  C2  UNL     1      14.116   9.733  -3.309  1.00  0.00     0.226 C 
HETATM   20  C1  UNL     1      15.119  10.636  -3.952  1.00  0.00     0.046 C 
BRANCH  19  21
HETATM   21  N1  UNL     1      12.808   9.854  -3.876  1.00  0.00    -0.070 N 
ATOM     22  H13 UNL     1      12.179   9.148  -3.495  1.00  0.00     0.275 HD
ATOM     23  H12 UNL     1      12.341  10.694  -3.536  1.00  0.00     0.275 HD
ATOM     24  H11 UNL     1      12.812   9.826  -4.895  1.00  0.00     0.275 HD
ENDBRANCH  19  21
ENDBRANCH  15  19
ENDBRANCH   1  13
BRANCH   4  25
HETATM   25  N5  UNL     1      14.460   9.101   5.090  1.00  0.00    -0.222 N 
ATOM     26  H5  UNL     1      14.473   8.143   5.439  1.00  0.00     0.177 HD
BRANCH  25  27
HETATM   27  C6  UNL     1      13.837  10.049   5.940  1.00  0.00     0.168 C 
BRANCH  27  28
HETATM   28  C7  UNL     1      14.760  10.554   7.034  1.00  0.00     0.292 C 
BRANCH  28  29
HETATM   29  N6  UNL     1      14.494   9.965   8.301  1.00  0.00     0.093 N 
HETATM   30  C8  UNL     1      13.202  10.160   8.851  1.00  0.00     0.300 C 
HETATM   31  C9  UNL     1      12.902  11.562   9.259  1.00  0.00     0.262 C 
HETATM   32  N7  UNL     1      14.048  12.211   9.824  1.00  0.00    -0.072 N 
HETATM   33  C10 UNL     1      15.062  11.315  10.281  1.00  0.00     0.262 C 
ATOM     34  H72 UNL     1      14.439  12.884   9.164  1.00  0.00     0.277 HD
ATOM     35  H71 UNL     1      13.767  12.845  10.572  1.00  0.00     0.277 HD
HETATM   36  C11 UNL     1      15.505  10.326   9.239  1.00  0.00     0.300 C 
ENDBRANCH  28  29
ENDBRANCH  27  28
ENDBRANCH  25  27
ENDBRANCH   4  25
BRANCH   9  37
HETATM   37  C14 UNL     1      19.345   9.640   2.122  1.00  0.00     0.051 C 
BRANCH  37  38
HETATM   38  C15 UNL     1      19.349  10.782   1.228  1.00  0.00     0.088 A 
HETATM   39  N10 UNL     1      18.983  12.032   1.630  1.00  0.00    -0.305 N 
HETATM   40  C16 UNL     1      19.107  12.831   0.557  1.00  0.00     0.326 A 
ATOM     41  H10 UNL     1      18.676  12.307   2.563  1.00  0.00     0.171 HD
HETATM   42  O1  UNL     1      18.868  14.064   0.503  1.00  0.00    -0.247 OA
HETATM   43  N11 UNL     1      19.545  12.090  -0.501  1.00  0.00    -0.287 N 
HETATM   44  C17 UNL     1      19.696  10.826  -0.094  1.00  0.00     0.171 A 
ATOM     45  H11 UNL     1      19.726  12.441  -1.442  1.00  0.00     0.172 HD
BRANCH  44  46
HETATM   46  O2  UNL     1      20.122   9.766  -0.867  1.00  0.00    -0.344 OA
ATOM     47  H2  UNL     1      20.959   9.321  -0.806  1.00  0.00     0.219 HD
ENDBRANCH  44  46
ENDBRANCH  37  38
ENDBRANCH   9  37
TORSDOF 10
ENDMDL
MODEL 2
REMARK VINA RESULT: -9.755381416      3.089      7.285
REMARK  10 active torsions:
REMARK  status: ('A' for Active; 'I' for Inactive)
REMARK    1  A    between atoms: C2_2  and  N1_3 
REMARK    2  A    between atoms: C2_2  and  C3_7 
REMARK    3  A    between atoms: N3_10  and  C4_11 
REMARK    4  A    between atoms: C5_14  and  N5_15 
REMARK    5  A    between atoms: N5_15  and  C6_17 
REMARK    6  A    between atoms: C6_17  and  C7_18 
REMARK    7  A    between atoms: C7_18  and  N6_19 
REMARK    8  A    between atoms: C13_31  and  C14_32 
REMARK    9  A    between atoms: C14_32  and  C15_33 
REMARK   10  A    between atoms: C17_40  and  O2_41 
ROOT
HETATM    1  C4  UNL     1      16.208  10.054   2.236  1.00  0.00     0.715 A 
HETATM    2  N4  UNL     1      17.463   9.625   2.492  1.00  0.00    -0.019 N 
ATOM      3  H4  UNL     1      17.662   9.215   3.404  1.00  0.00     0.203 HD
HETATM    4  C5  UNL     1      18.458   9.716   1.595  1.00  0.00     0.715 A 
HETATM    5  N8  UNL     1      18.169  10.268   0.381  1.00  0.00    -0.068 N 
HETATM    6  N9  UNL     1      18.907  10.491  -0.692  1.00  0.00    -0.288 N 
ATOM      7  H9  UNL     1      19.898  10.258  -0.765  1.00  0.00     0.187 HD
HETATM    8  C12 UNL     1      18.187  11.064  -1.679  1.00  0.00     0.123 A 
HETATM    9  C13 UNL     1      16.908  11.214  -1.197  1.00  0.00     0.030 A 
HETATM   10  C18 UNL     1      16.937  10.709   0.081  1.00  0.00     0.172 A 
HETATM   11  N12 UNL     1      15.999  10.593   1.006  1.00  0.00    -0.171 N 
ATOM     12  H12 UNL     1      15.062  10.928   0.783  1.00  0.00     0.186 HD
ENDROOT
BRANCH   1  13
HETATM   13  N3  UNL     1      15.150   9.951   3.178  1.00  0.00    -0.123 N 
HETATM   14  N2  UNL     1      15.158   9.887   4.551  1.00  0.00    -0.290 N 
HETATM   15  C3  UNL     1      14.092   9.371   5.028  1.00  0.00     0.036 C 
ATOM     16  H2  UNL     1      15.933  10.215   5.127  1.00  0.00     0.187 HD
HETATM   17  C20 UNL     1      13.197   9.014   3.903  1.00  0.00     0.078 C 
HETATM   18  C19 UNL     1      13.735   9.894   2.800  1.00  0.00     0.173 C 
BRANCH  15  19
HETATM   19  C2  UNL     1      13.693   9.116   6.451  1.00  0.00     0.226 C 
HETATM   20  C1  UNL     1      13.848  10.329   7.313  1.00  0.00     0.046 C 
BRANCH  19  21
HETATM   21  N1  UNL     1      14.380   7.972   6.967  1.00  0.00    -0.070 N 
ATOM     22  H13 UNL     1      14.347   7.198   6.303  1.00  0.00     0.275 HD
ATOM     23  H12 UNL     1      15.387   8.131   6.986  1.00  0.00     0.275 HD
ATOM     24  H11 UNL     1      14.039   7.682   7.883  1.00  0.00     0.275 HD
ENDBRANCH  19  21
ENDBRANCH  15  19
ENDBRANCH   1  13
BRANCH   4  25
HETATM   25  N5  UNL     1      19.661   9.323   1.767  1.00  0.00    -0.222 N 
ATOM     26  H5  UNL     1      20.208   9.203   0.915  1.00  0.00     0.177 HD
BRANCH  25  27
HETATM   27  C6  UNL     1      20.344   9.031   2.974  1.00  0.00     0.168 C 
BRANCH  27  28
HETATM   28  C7  UNL     1      21.156   7.753   2.896  1.00  0.00     0.292 C 
BRANCH  28  29
HETATM   29  N6  UNL     1      21.079   6.971   4.081  1.00  0.00     0.093 N 
HETATM   30  C8  UNL     1      21.899   5.816   4.153  1.00  0.00     0.300 C 
HETATM   31  C9  UNL     1      21.519   4.722   3.214  1.00  0.00     0.262 C 
HETATM   32  N7  UNL     1      20.098   4.608   3.071  1.00  0.00    -0.072 N 
HETATM   33  C10 UNL     1      19.354   5.214   4.130  1.00  0.00     0.262 C 
ATOM     34  H72 UNL     1      19.799   4.977   2.168  1.00  0.00     0.277 HD
ATOM     35  H71 UNL     1      19.828   3.631   2.957  1.00  0.00     0.277 HD
HETATM   36  C11 UNL     1      19.723   6.650   4.378  1.00  0.00     0.300 C 
ENDBRANCH  28  29
ENDBRANCH  27  28
ENDBRANCH  25  27
ENDBRANCH   4  25
BRANCH   9  37
HETATM   37  C14 UNL     1      15.837  11.718  -1.784  1.00  0.00     0.051 C 
BRANCH  37  38
HETATM   38  C15 UNL     1      14.922  10.873  -2.526  1.00  0.00     0.088 A 
HETATM   39  N10 UNL     1      15.035  10.668  -3.869  1.00  0.00    -0.305 N 
HETATM   40  C16 UNL     1      14.033   9.843  -4.217  1.00  0.00     0.326 A 
ATOM     41  H10 UNL     1      15.742  11.065  -4.489  1.00  0.00     0.171 HD
HETATM   42  O1  UNL     1      13.782   9.406  -5.368  1.00  0.00    -0.247 OA
HETATM   43  N11 UNL     1      13.305   9.535  -3.106  1.00  0.00    -0.287 N 
HETATM   44  C17 UNL     1      13.848  10.167  -2.060  1.00  0.00     0.171 A 
ATOM     45  H11 UNL     1      12.486   8.926  -3.077  1.00  0.00     0.172 HD
BRANCH  44  46
HETATM   46  O2  UNL     1      13.403  10.113  -0.755  1.00  0.00    -0.344 OA
ATOM     47  H2  UNL     1      13.577   9.424  -0.126  1.00  0.00     0.219 HD
ENDBRANCH  44  46
ENDBRANCH  37  38
ENDBRANCH   9  37
TORSDOF 10
ENDMDL
MODEL 3
REMARK VINA RESULT: -9.730436713      2.447      8.314
REMARK  10 active torsions:
REMARK  status: ('A' for Active; 'I' for Inactive)
REMARK    1  A    between atoms: C2_2  and  N1_3 
REMARK    2  A    between atoms: C2_2  and  C3_7 
REMARK    3  A    between atoms: N3_10  and  C4_11 
REMARK    4  A    between atoms: C5_14  and  N5_15 
REMARK    5  A    between atoms: N5_15  and  C6_17 
REMARK    6  A    between atoms: C6_17  and  C7_18 
REMARK    7  A    between atoms: C7_18  and  N6_19 
REMARK    8  A    between atoms: C13_31  and  C14_32 
REMARK    9  A    between atoms: C14_32  and  C15_33 
REMARK   10  A    between atoms: C17_40  and  O2_41 
ROOT
HETATM    1  C4  UNL     1      14.752  10.250   4.851  1.00  0.00     0.715 A 
HETATM    2  N4  UNL     1      13.989  10.575   3.785  1.00  0.00    -0.019 N 
ATOM      3  H4  UNL     1      12.995  10.754   3.932  1.00  0.00     0.203 HD
HETATM    4  C5  UNL     1      14.483  10.672   2.541  1.00  0.00     0.715 A 
HETATM    5  N8  UNL     1      15.815  10.428   2.367  1.00  0.00    -0.068 N 
HETATM    6  N9  UNL     1      16.588  10.445   1.296  1.00  0.00    -0.288 N 
ATOM      7  H9  UNL     1      16.260  10.663   0.354  1.00  0.00     0.187 HD
HETATM    8  C12 UNL     1      17.865  10.138   1.602  1.00  0.00     0.123 A 
HETATM    9  C13 UNL     1      17.902   9.911   2.958  1.00  0.00     0.030 A 
HETATM   10  C18 UNL     1      16.612  10.101   3.395  1.00  0.00     0.172 A 
HETATM   11  N12 UNL     1      16.067  10.020   4.597  1.00  0.00    -0.171 N 
ATOM     12  H12 UNL     1      16.670   9.771   5.381  1.00  0.00     0.186 HD
ENDROOT
BRANCH   1  13
HETATM   13  N3  UNL     1      14.235  10.155   6.171  1.00  0.00    -0.123 N 
HETATM   14  N2  UNL     1      14.352  10.991   7.255  1.00  0.00    -0.290 N 
HETATM   15  C3  UNL     1      14.138  10.396   8.364  1.00  0.00     0.036 C 
ATOM     16  H2  UNL     1      14.585  11.981   7.182  1.00  0.00     0.187 HD
HETATM   17  C20 UNL     1      13.831   8.974   8.084  1.00  0.00     0.078 C 
HETATM   18  C19 UNL     1      13.408   9.038   6.635  1.00  0.00     0.173 C 
BRANCH  15  19
HETATM   19  C2  UNL     1      14.163  10.925   9.767  1.00  0.00     0.226 C 
HETATM   20  C1  UNL     1      13.173  12.026   9.978  1.00  0.00     0.046 C 
BRANCH  19  21
HETATM   21  N1  UNL     1      15.494  11.289  10.142  1.00  0.00    -0.070 N 
ATOM     22  H13 UNL     1      16.176  10.889   9.498  1.00  0.00     0.275 HD
ATOM     23  H12 UNL     1      15.663  12.280   9.968  1.00  0.00     0.275 HD
ATOM     24  H11 UNL     1      15.717  11.045  11.106  1.00  0.00     0.275 HD
ENDBRANCH  19  21
ENDBRANCH  15  19
ENDBRANCH   1  13
BRANCH   4  25
HETATM   25  N5  UNL     1      13.822  10.983   1.493  1.00  0.00    -0.222 N 
ATOM     26  H5  UNL     1      13.815  11.975   1.258  1.00  0.00     0.177 HD
BRANCH  25  27
HETATM   27  C6  UNL     1      13.097  10.144   0.609  1.00  0.00     0.168 C 
BRANCH  27  28
HETATM   28  C7  UNL     1      13.251  10.550  -0.844  1.00  0.00     0.292 C 
BRANCH  28  29
HETATM   29  N6  UNL     1      13.833   9.530  -1.648  1.00  0.00     0.093 N 
HETATM   30  C8  UNL     1      15.248   9.434  -1.651  1.00  0.00     0.300 C 
HETATM   31  C9  UNL     1      15.949  10.575  -2.306  1.00  0.00     0.262 C 
HETATM   32  N7  UNL     1      15.241  11.049  -3.457  1.00  0.00    -0.072 N 
HETATM   33  C10 UNL     1      14.304  10.113  -3.994  1.00  0.00     0.262 C 
ATOM     34  H72 UNL     1      14.782  11.937  -3.254  1.00  0.00     0.277 HD
ATOM     35  H71 UNL     1      15.895  11.353  -4.179  1.00  0.00     0.277 HD
HETATM   36  C11 UNL     1      13.325   9.594  -2.978  1.00  0.00     0.300 C 
ENDBRANCH  28  29
ENDBRANCH  27  28
ENDBRANCH  25  27
ENDBRANCH   4  25
BRANCH   9  37
HETATM   37  C14 UNL     1      18.920   9.587   3.734  1.00  0.00     0.051 C 
BRANCH  37  38
HETATM   38  C15 UNL     1      19.086   8.233   4.227  1.00  0.00     0.088 A 
HETATM   39  N10 UNL     1      19.853   7.306   3.585  1.00  0.00    -0.305 N 
HETATM   40  C16 UNL     1      19.779   6.179   4.313  1.00  0.00     0.326 A 
ATOM     41  H10 UNL     1      20.379   7.442   2.723  1.00  0.00     0.171 HD
HETATM   42  O1  UNL     1      20.345   5.084   4.066  1.00  0.00    -0.247 OA
HETATM   43  N11 UNL     1      18.978   6.399   5.394  1.00  0.00    -0.287 N 
HETATM   44  C17 UNL     1      18.547   7.664   5.347  1.00  0.00     0.171 A 
ATOM     45  H11 UNL     1      18.746   5.716   6.116  1.00  0.00     0.172 HD
BRANCH  44  46
HETATM   46  O2  UNL     1      17.714   8.276   6.260  1.00  0.00    -0.344 OA
ATOM     47  H2  UNL     1      16.879   7.949   6.572  1.00  0.00     0.219 HD
ENDBRANCH  44  46
ENDBRANCH  37  38
ENDBRANCH   9  37
TORSDOF 10
ENDMDL
MODEL 4
REMARK VINA RESULT: -9.678075197      1.584      2.254
REMARK  10 active torsions:
REMARK  status: ('A' for Active; 'I' for Inactive)
REMARK    1  A    between atoms: C2_2  and  N1_3 
REMARK    2  A    between atoms: C2_2  and  C3_7 
REMARK    3  A    between atoms: N3_10  and  C4_11 
REMARK    4  A    between atoms: C5_14  and  N5_15 
REMARK    5  A    between atoms: N5_15  and  C6_17 
REMARK    6  A    between atoms: C6_17  and  C7_18 
REMARK    7  A    between atoms: C7_18  and  N6_19 
REMARK    8  A    between atoms: C13_31  and  C14_32 
REMARK    9  A    between atoms: C14_32  and  C15_33 
REMARK   10  A    between atoms: C17_40  and  O2_41 
ROOT
HETATM    1  C4  UNL     1      14.897  10.319   0.251  1.00  0.00     0.715 A 
HETATM    2  N4  UNL     1      14.102  10.261   1.341  1.00  0.00    -0.019 N 
ATOM      3  H4  UNL     1      13.091  10.292   1.210  1.00  0.00     0.203 HD
HETATM    4  C5  UNL     1      14.586  10.164   2.589  1.00  0.00     0.715 A 
HETATM    5  N8  UNL     1      15.942  10.125   2.741  1.00  0.00    -0.068 N 
HETATM    6  N9  UNL     1      16.713  10.030   3.810  1.00  0.00    -0.288 N 
ATOM      7  H9  UNL     1      16.363   9.971   4.767  1.00  0.00     0.187 HD
HETATM    8  C12 UNL     1      18.021  10.023   3.478  1.00  0.00     0.123 A 
HETATM    9  C13 UNL     1      18.080  10.120   2.107  1.00  0.00     0.030 A 
HETATM   10  C18 UNL     1      16.773  10.181   1.688  1.00  0.00     0.172 A 
HETATM   11  N12 UNL     1      16.235  10.276   0.484  1.00  0.00    -0.171 N 
ATOM     12  H12 UNL     1      16.863  10.319  -0.319  1.00  0.00     0.186 HD
ENDROOT
BRANCH   1  13
HETATM   13  N3  UNL     1      14.389  10.412  -1.072  1.00  0.00    -0.123 N 
HETATM   14  N2  UNL     1      13.390   9.719  -1.713  1.00  0.00    -0.290 N 
HETATM   15  C3  UNL     1      13.498   9.757  -2.984  1.00  0.00     0.036 C 
ATOM     16  H2  UNL     1      12.642   9.226  -1.225  1.00  0.00     0.187 HD
HETATM   17  C20 UNL     1      14.696  10.556  -3.331  1.00  0.00     0.078 C 
HETATM   18  C19 UNL     1      14.897  11.359  -2.067  1.00  0.00     0.173 C 
BRANCH  15  19
HETATM   19  C2  UNL     1      12.637   9.144  -4.048  1.00  0.00     0.226 C 
HETATM   20  C1  UNL     1      13.237   7.899  -4.620  1.00  0.00     0.046 C 
BRANCH  19  21
HETATM   21  N1  UNL     1      12.305  10.114  -5.044  1.00  0.00    -0.070 N 
ATOM     22  H13 UNL     1      13.082  10.757  -5.201  1.00  0.00     0.275 HD
ATOM     23  H12 UNL     1      12.255   9.685  -5.968  1.00  0.00     0.275 HD
ATOM     24  H11 UNL     1      11.447  10.625  -4.834  1.00  0.00     0.275 HD
ENDBRANCH  19  21
ENDBRANCH  15  19
ENDBRANCH   1  13
BRANCH   4  25
HETATM   25  N5  UNL     1      13.894  10.096   3.660  1.00  0.00    -0.222 N 
ATOM     26  H5  UNL     1      13.678  10.991   4.099  1.00  0.00     0.177 HD
BRANCH  25  27
HETATM   27  C6  UNL     1      13.382   8.953   4.325  1.00  0.00     0.168 C 
BRANCH  27  28
HETATM   28  C7  UNL     1      13.335   9.122   5.832  1.00  0.00     0.292 C 
BRANCH  28  29
HETATM   29  N6  UNL     1      14.505   9.735   6.360  1.00  0.00     0.093 N 
HETATM   30  C8  UNL     1      15.515   8.878   6.864  1.00  0.00     0.300 C 
HETATM   31  C9  UNL     1      15.146   8.140   8.106  1.00  0.00     0.262 C 
HETATM   32  N7  UNL     1      14.352   8.942   8.989  1.00  0.00    -0.072 N 
HETATM   33  C10 UNL     1      14.444  10.347   8.745  1.00  0.00     0.262 C 
ATOM     34  H72 UNL     1      13.378   8.640   8.968  1.00  0.00     0.277 HD
ATOM     35  H71 UNL     1      14.578   8.733   9.961  1.00  0.00     0.277 HD
HETATM   36  C11 UNL     1      14.156  10.729   7.320  1.00  0.00     0.300 C 
ENDBRANCH  28  29
ENDBRANCH  27  28
ENDBRANCH  25  27
ENDBRANCH   4  25
BRANCH   9  37
HETATM   37  C14 UNL     1      19.130  10.146   1.306  1.00  0.00     0.051 C 
BRANCH  37  38
HETATM   38  C15 UNL     1      19.858  11.377   1.065  1.00  0.00     0.088 A 
HETATM   39  N10 UNL     1      21.163  11.543   1.425  1.00  0.00    -0.305 N 
HETATM   40  C16 UNL     1      21.508  12.787   1.053  1.00  0.00     0.326 A 
ATOM     41  H10 UNL     1      21.760  10.856   1.886  1.00  0.00     0.171 HD
HETATM   42  O1  UNL     1      22.629  13.335   1.204  1.00  0.00    -0.247 OA
HETATM   43  N11 UNL     1      20.433  13.390   0.468  1.00  0.00    -0.287 N 
HETATM   44  C17 UNL     1      19.413  12.526   0.472  1.00  0.00     0.171 A 
ATOM     45  H11 UNL     1      20.412  14.338   0.091  1.00  0.00     0.172 HD
BRANCH  44  46
HETATM   46  O2  UNL     1      18.149  12.755  -0.029  1.00  0.00    -0.344 OA
ATOM     47  H2  UNL     1      17.626  13.539   0.091  1.00  0.00     0.219 HD
ENDBRANCH  44  46
ENDBRANCH  37  38
ENDBRANCH   9  37
TORSDOF 10
ENDMDL
MODEL 5
REMARK VINA RESULT: -9.610562772      1.626      2.156
REMARK  10 active torsions:
REMARK  status: ('A' for Active; 'I' for Inactive)
REMARK    1  A    between atoms: C2_2  and  N1_3 
REMARK    2  A    between atoms: C2_2  and  C3_7 
REMARK    3  A    between atoms: N3_10  and  C4_11 
REMARK    4  A    between atoms: C5_14  and  N5_15 
REMARK    5  A    between atoms: N5_15  and  C6_17 
REMARK    6  A    between atoms: C6_17  and  C7_18 
REMARK    7  A    between atoms: C7_18  and  N6_19 
REMARK    8  A    between atoms: C13_31  and  C14_32 
REMARK    9  A    between atoms: C14_32  and  C15_33 
REMARK   10  A    between atoms: C17_40  and  O2_41 
ROOT
HETATM    1  C4  UNL     1      16.403   9.255   3.134  1.00  0.00     0.715 A 
HETATM    2  N4  UNL     1      16.122   9.152   4.451  1.00  0.00    -0.019 N 
ATOM      3  H4  UNL     1      15.153   9.257   4.753  1.00  0.00     0.203 HD
HETATM    4  C5  UNL     1      17.063   8.918   5.379  1.00  0.00     0.715 A 
HETATM    5  N8  UNL     1      18.353   8.783   4.953  1.00  0.00    -0.068 N 
HETATM    6  N9  UNL     1      19.481   8.549   5.599  1.00  0.00    -0.288 N 
ATOM      7  H9  UNL     1      19.550   8.429   6.610  1.00  0.00     0.187 HD
HETATM    8  C12 UNL     1      20.532   8.490   4.754  1.00  0.00     0.123 A 
HETATM    9  C13 UNL     1      20.034   8.700   3.490  1.00  0.00     0.030 A 
HETATM   10  C18 UNL     1      18.681   8.877   3.655  1.00  0.00     0.172 A 
HETATM   11  N12 UNL     1      17.709   9.109   2.789  1.00  0.00    -0.171 N 
ATOM     12  H12 UNL     1      17.954   9.182   1.801  1.00  0.00     0.186 HD
ENDROOT
BRANCH   1  13
HETATM   13  N3  UNL     1      15.408   9.492   2.148  1.00  0.00    -0.123 N 
HETATM   14  N2  UNL     1      15.507   9.781   0.808  1.00  0.00    -0.290 N 
HETATM   15  C3  UNL     1      14.462  10.349   0.346  1.00  0.00     0.036 C 
ATOM     16  H2  UNL     1      16.329   9.565   0.243  1.00  0.00     0.187 HD
HETATM   17  C20 UNL     1      13.483  10.501   1.447  1.00  0.00     0.078 C 
HETATM   18  C19 UNL     1      13.971   9.461   2.429  1.00  0.00     0.173 C 
BRANCH  15  19
HETATM   19  C2  UNL     1      14.153  10.827  -1.041  1.00  0.00     0.226 C 
HETATM   20  C1  UNL     1      13.456   9.788  -1.861  1.00  0.00     0.046 C 
BRANCH  19  21
HETATM   21  N1  UNL     1      15.333  11.337  -1.670  1.00  0.00    -0.070 N 
ATOM     22  H13 UNL     1      15.425  12.340  -1.512  1.00  0.00     0.275 HD
ATOM     23  H12 UNL     1      16.171  11.015  -1.186  1.00  0.00     0.275 HD
ATOM     24  H11 UNL     1      15.380  11.118  -2.665  1.00  0.00     0.275 HD
ENDBRANCH  19  21
ENDBRANCH  15  19
ENDBRANCH   1  13
BRANCH   4  25
HETATM   25  N5  UNL     1      16.866   8.802   6.635  1.00  0.00    -0.222 N 
ATOM     26  H5  UNL     1      17.706   8.679   7.200  1.00  0.00     0.177 HD
BRANCH  25  27
HETATM   27  C6  UNL     1      15.646   8.818   7.356  1.00  0.00     0.168 C 
BRANCH  27  28
HETATM   28  C7  UNL     1      15.451  10.094   8.153  1.00  0.00     0.292 C 
BRANCH  28  29
HETATM   29  N6  UNL     1      14.718   9.893   9.355  1.00  0.00     0.093 N 
HETATM   30  C8  UNL     1      13.306   9.988   9.280  1.00  0.00     0.300 C 
HETATM   31  C9  UNL     1      12.787  11.358   9.003  1.00  0.00     0.262 C 
HETATM   32  N7  UNL     1      13.559  12.367   9.667  1.00  0.00    -0.072 N 
HETATM   33  C10 UNL     1      14.340  11.881  10.759  1.00  0.00     0.262 C 
ATOM     34  H72 UNL     1      14.149  12.862   8.998  1.00  0.00     0.277 HD
ATOM     35  H71 UNL     1      12.959  13.134   9.970  1.00  0.00     0.277 HD
HETATM   36  C11 UNL     1      15.229  10.724  10.394  1.00  0.00     0.300 C 
ENDBRANCH  28  29
ENDBRANCH  27  28
ENDBRANCH  25  27
ENDBRANCH   4  25
BRANCH   9  37
HETATM   37  C14 UNL     1      20.662   8.730   2.328  1.00  0.00     0.051 C 
BRANCH  37  38
HETATM   38  C15 UNL     1      20.729   9.948   1.544  1.00  0.00     0.088 A 
HETATM   39  N10 UNL     1      21.738  10.856   1.681  1.00  0.00    -0.305 N 
HETATM   40  C16 UNL     1      21.483  11.846   0.809  1.00  0.00     0.326 A 
ATOM     41  H10 UNL     1      22.531  10.794   2.319  1.00  0.00     0.171 HD
HETATM   42  O1  UNL     1      22.173  12.879   0.619  1.00  0.00    -0.247 OA
HETATM   43  N11 UNL     1      20.331  11.561   0.137  1.00  0.00    -0.287 N 
HETATM   44  C17 UNL     1      19.861  10.392   0.586  1.00  0.00     0.171 A 
ATOM     45  H11 UNL     1      19.901  12.140  -0.585  1.00  0.00     0.172 HD
BRANCH  44  46
HETATM   46  O2  UNL     1      18.714   9.757   0.158  1.00  0.00    -0.344 OA
ATOM     47  H2  UNL     1      17.835   9.889   0.493  1.00  0.00     0.219 HD
ENDBRANCH  44  46
ENDBRANCH  37  38
ENDBRANCH   9  37
TORSDOF 10
ENDMDL
