MODEL 1
REMARK VINA RESULT: -9.937558019      0.000      0.000
REMARK  11 active torsions:
REMARK  status: ('A' for Active; 'I' for Inactive)
REMARK    1  A    between atoms: O1_2  and  C2_3 
REMARK    2  A    between atoms: C3_6  and  N2_7 
REMARK    3  A    between atoms: N3_10  and  C6_11 
REMARK    4  A    between atoms: C8_13  and  N4_14 
REMARK    5  A    between atoms: N4_14  and  C9_16 
REMARK    6  A    between atoms: C9_16  and  C10_17 
REMARK    7  A    between atoms: C10_17  and  O2_19 
REMARK    8  A    between atoms: C12_23  and  N6_24 
REMARK    9  A    between atoms: C14_26  and  N7_27 
REMARK   10  A    between atoms: C16_32  and  N8_33 
REMARK   11  A    between atoms: C19_43  and  N11_44 
ROOT
HETATM    1  C6  UNL     1      15.504  10.257   0.715  1.00  0.00     0.124 A 
HETATM    2  C7  UNL     1      15.023  10.316  -0.593  1.00  0.00     0.097 A 
HETATM    3  C8  UNL     1      15.895  10.540  -1.637  1.00  0.00     0.120 A 
HETATM    4  N5  UNL     1      17.191  10.691  -1.312  1.00  0.00    -0.177 N 
ATOM      5  H5  UNL     1      17.856  10.858  -2.067  1.00  0.00     0.185 HD
HETATM    6  C12 UNL     1      17.667  10.637  -0.050  1.00  0.00     0.683 A 
HETATM    7  N9  UNL     1      16.801  10.417   0.956  1.00  0.00    -0.177 N 
ATOM      8  H9  UNL     1      17.144  10.373   1.916  1.00  0.00     0.186 HD
ENDROOT
BRANCH   1   9
HETATM    9  N3  UNL     1      14.600  10.009   1.796  1.00  0.00    -0.348 N 
HETATM   10  C5  UNL     1      13.487   9.112   1.789  1.00  0.00     0.146 C 
HETATM   11  C4  UNL     1      13.089   8.982   3.229  1.00  0.00     0.163 C 
HETATM   12  N2  UNL     1      14.016   9.761   3.994  1.00  0.00    -0.199 N 
HETATM   13  C18 UNL     1      14.677  10.659   3.069  1.00  0.00     0.269 C 
BRANCH  12  14
HETATM   14  C3  UNL     1      14.267   9.690   5.371  1.00  0.00     0.699 A 
HETATM   15  N1  UNL     1      13.691  10.489   6.279  1.00  0.00    -0.154 N 
HETATM   16  C2  UNL     1      13.927  10.438   7.593  1.00  0.00     0.252 A 
ATOM     17  H1  UNL     1      13.027  11.186   5.944  1.00  0.00     0.188 HD
HETATM   18  N12 UNL     1      14.792   9.538   8.070  1.00  0.00    -0.154 N 
HETATM   19  C19 UNL     1      15.407   8.701   7.199  1.00  0.00     0.693 A 
ATOM     20  H12 UNL     1      14.986   9.482   9.070  1.00  0.00     0.188 HD
HETATM   21  N10 UNL     1      15.145   8.779   5.881  1.00  0.00    -0.022 N 
ATOM     22  H10 UNL     1      15.619   8.138   5.245  1.00  0.00     0.203 HD
BRANCH  16  23
HETATM   23  O1  UNL     1      13.313  11.282   8.522  1.00  0.00    -0.326 OA
HETATM   24  C1  UNL     1      13.864  11.291   9.842  1.00  0.00     0.213 C 
ENDBRANCH  16  23
BRANCH  19  25
HETATM   25  N11 UNL     1      16.245   7.816   7.630  1.00  0.00    -0.234 N 
ATOM     26 2H11 UNL     1      17.214   8.076   7.816  1.00  0.00     0.174 HD
ATOM     27 1H11 UNL     1      15.929   6.860   7.787  1.00  0.00     0.174 HD
ENDBRANCH  19  25
ENDBRANCH  12  14
ENDBRANCH   1   9
BRANCH   3  28
HETATM   28  N4  UNL     1      15.442  10.596  -2.818  1.00  0.00    -0.373 N 
ATOM     29  H4  UNL     1      16.091  10.843  -3.564  1.00  0.00     0.161 HD
BRANCH  28  30
HETATM   30  C9  UNL     1      14.089  10.337  -3.177  1.00  0.00     0.152 C 
BRANCH  30  31
HETATM   31  C10 UNL     1      14.005   9.537  -4.460  1.00  0.00     0.132 C 
HETATM   32  C11 UNL     1      12.534   9.326  -4.781  1.00  0.00     0.041 C 
BRANCH  31  33
HETATM   33  O2  UNL     1      14.664  10.172  -5.509  1.00  0.00    -0.394 OA
ATOM     34  H2  UNL     1      15.581  10.320  -5.311  1.00  0.00     0.210 HD
ENDBRANCH  31  33
ENDBRANCH  30  31
ENDBRANCH  28  30
ENDBRANCH   3  28
BRANCH   6  35
HETATM   35  N6  UNL     1      19.033  10.797   0.229  1.00  0.00    -0.214 N 
HETATM   36  C13 UNL     1      20.026   9.947  -0.440  1.00  0.00     0.174 C 
HETATM   37  C14 UNL     1      20.817   9.306   0.706  1.00  0.00     0.204 C 
HETATM   38  C15 UNL     1      21.581  10.369   1.460  1.00  0.00     0.069 C 
HETATM   39  C16 UNL     1      21.004  11.740   1.331  1.00  0.00     0.204 C 
HETATM   40  C17 UNL     1      19.509  11.771   1.161  1.00  0.00     0.174 C 
BRANCH  37  41
HETATM   41  N7  UNL     1      19.812   8.781   1.636  1.00  0.00    -0.073 N 
ATOM     42  H73 UNL     1      18.869   9.124   1.455  1.00  0.00     0.274 HD
ATOM     43  H72 UNL     1      19.609   7.790   1.502  1.00  0.00     0.274 HD
ATOM     44  H71 UNL     1      20.156   9.004   2.570  1.00  0.00     0.274 HD
ENDBRANCH  37  41
BRANCH  39  45
HETATM   45  N8  UNL     1      21.600  12.522   0.258  1.00  0.00    -0.073 N 
ATOM     46  H83 UNL     1      22.496  12.124  -0.023  1.00  0.00     0.274 HD
ATOM     47  H82 UNL     1      21.079  12.400  -0.610  1.00  0.00     0.274 HD
ATOM     48  H81 UNL     1      21.699  13.512   0.483  1.00  0.00     0.274 HD
ENDBRANCH  39  45
ENDBRANCH   6  35
TORSDOF 11
ENDMDL
MODEL 2
REMARK VINA RESULT: -9.220415489      3.018      8.996
REMARK  11 active torsions:
REMARK  status: ('A' for Active; 'I' for Inactive)
REMARK    1  A    between atoms: O1_2  and  C2_3 
REMARK    2  A    between atoms: C3_6  and  N2_7 
REMARK    3  A    between atoms: N3_10  and  C6_11 
REMARK    4  A    between atoms: C8_13  and  N4_14 
REMARK    5  A    between atoms: N4_14  and  C9_16 
REMARK    6  A    between atoms: C9_16  and  C10_17 
REMARK    7  A    between atoms: C10_17  and  O2_19 
REMARK    8  A    between atoms: C12_23  and  N6_24 
REMARK    9  A    between atoms: C14_26  and  N7_27 
REMARK   10  A    between atoms: C16_32  and  N8_33 
REMARK   11  A    between atoms: C19_43  and  N11_44 
ROOT
HETATM    1  C6  UNL     1      17.544   9.772   3.778  1.00  0.00     0.124 A 
HETATM    2  C7  UNL     1      18.493   8.771   3.987  1.00  0.00     0.097 A 
HETATM    3  C8  UNL     1      18.511   8.077   5.177  1.00  0.00     0.120 A 
HETATM    4  N5  UNL     1      17.582   8.423   6.085  1.00  0.00    -0.177 N 
ATOM      5  H5  UNL     1      17.574   7.923   6.974  1.00  0.00     0.185 HD
HETATM    6  C12 UNL     1      16.658   9.390   5.894  1.00  0.00     0.683 A 
HETATM    7  N9  UNL     1      16.657  10.057   4.725  1.00  0.00    -0.177 N 
ATOM      8  H9  UNL     1      15.966  10.790   4.564  1.00  0.00     0.186 HD
ENDROOT
BRANCH   1   9
HETATM    9  N3  UNL     1      17.517  10.481   2.536  1.00  0.00    -0.348 N 
HETATM   10  C5  UNL     1      18.643  11.016   1.835  1.00  0.00     0.146 C 
HETATM   11  C4  UNL     1      18.120  11.355   0.470  1.00  0.00     0.163 C 
HETATM   12  N2  UNL     1      16.745  10.953   0.435  1.00  0.00    -0.199 N 
HETATM   13  C18 UNL     1      16.321  10.777   1.808  1.00  0.00     0.269 C 
BRANCH  12  14
HETATM   14  C3  UNL     1      15.938  10.752  -0.693  1.00  0.00     0.699 A 
HETATM   15  N1  UNL     1      16.340  10.974  -1.951  1.00  0.00    -0.154 N 
HETATM   16  C2  UNL     1      15.579  10.795  -3.034  1.00  0.00     0.252 A 
ATOM     17  H1  UNL     1      17.294  11.304  -2.092  1.00  0.00     0.188 HD
HETATM   18  N12 UNL     1      14.322  10.365  -2.889  1.00  0.00    -0.154 N 
HETATM   19  C19 UNL     1      13.858  10.122  -1.639  1.00  0.00     0.693 A 
ATOM     20  H12 UNL     1      13.724  10.221  -3.703  1.00  0.00     0.188 HD
HETATM   21  N10 UNL     1      14.652  10.312  -0.570  1.00  0.00    -0.022 N 
ATOM     22  H10 UNL     1      14.282  10.122   0.362  1.00  0.00     0.203 HD
BRANCH  16  23
HETATM   23  O1  UNL     1      16.021  11.033  -4.338  1.00  0.00    -0.326 OA
HETATM   24  C1  UNL     1      15.265  10.428  -5.392  1.00  0.00     0.213 C 
ENDBRANCH  16  23
BRANCH  19  25
HETATM   25  N11 UNL     1      12.648   9.700  -1.466  1.00  0.00    -0.234 N 
ATOM     26 2H11 UNL     1      12.468   8.707  -1.319  1.00  0.00     0.174 HD
ATOM     27 1H11 UNL     1      11.878  10.369  -1.473  1.00  0.00     0.174 HD
ENDBRANCH  19  25
ENDBRANCH  12  14
ENDBRANCH   1   9
BRANCH   3  28
HETATM   28  N4  UNL     1      19.382   7.175   5.353  1.00  0.00    -0.373 N 
ATOM     29  H4  UNL     1      19.605   6.911   6.312  1.00  0.00     0.161 HD
BRANCH  28  30
HETATM   30  C9  UNL     1      20.073   6.505   4.304  1.00  0.00     0.152 C 
BRANCH  30  31
HETATM   31  C10 UNL     1      19.521   5.112   4.086  1.00  0.00     0.132 C 
HETATM   32  C11 UNL     1      20.680   4.207   3.703  1.00  0.00     0.041 C 
BRANCH  31  33
HETATM   33  O2  UNL     1      18.861   4.635   5.216  1.00  0.00    -0.394 OA
ATOM     34  H2  UNL     1      18.101   5.163   5.429  1.00  0.00     0.210 HD
ENDBRANCH  31  33
ENDBRANCH  30  31
ENDBRANCH  28  30
ENDBRANCH   3  28
BRANCH   6  35
HETATM   35  N6  UNL     1      15.708   9.705   6.878  1.00  0.00    -0.214 N 
HETATM   36  C13 UNL     1      15.751   9.035   8.184  1.00  0.00     0.174 C 
HETATM   37  C14 UNL     1      14.354   8.425   8.348  1.00  0.00     0.204 C 
HETATM   38  C15 UNL     1      13.323   9.525   8.448  1.00  0.00     0.069 C 
HETATM   39  C16 UNL     1      13.747  10.816   7.831  1.00  0.00     0.204 C 
HETATM   40  C17 UNL     1      14.675  10.667   6.655  1.00  0.00     0.174 C 
BRANCH  37  41
HETATM   41  N7  UNL     1      14.081   7.715   7.094  1.00  0.00    -0.073 N 
ATOM     42  H73 UNL     1      13.118   7.391   7.009  1.00  0.00     0.274 HD
ATOM     43  H72 UNL     1      14.080   8.320   6.273  1.00  0.00     0.274 HD
ATOM     44  H71 UNL     1      14.770   6.964   7.047  1.00  0.00     0.274 HD
ENDBRANCH  37  41
BRANCH  39  45
HETATM   45  N8  UNL     1      14.358  11.737   8.778  1.00  0.00    -0.073 N 
ATOM     46  H83 UNL     1      13.646  12.197   9.345  1.00  0.00     0.274 HD
ATOM     47  H82 UNL     1      14.854  11.228   9.509  1.00  0.00     0.274 HD
ATOM     48  H81 UNL     1      14.970  12.425   8.339  1.00  0.00     0.274 HD
ENDBRANCH  39  45
ENDBRANCH   6  35
TORSDOF 11
ENDMDL
MODEL 3
REMARK VINA RESULT: -9.081598936      3.036      9.007
REMARK  11 active torsions:
REMARK  status: ('A' for Active; 'I' for Inactive)
REMARK    1  A    between atoms: O1_2  and  C2_3 
REMARK    2  A    between atoms: C3_6  and  N2_7 
REMARK    3  A    between atoms: N3_10  and  C6_11 
REMARK    4  A    between atoms: C8_13  and  N4_14 
REMARK    5  A    between atoms: N4_14  and  C9_16 
REMARK    6  A    between atoms: C9_16  and  C10_17 
REMARK    7  A    between atoms: C10_17  and  O2_19 
REMARK    8  A    between atoms: C12_23  and  N6_24 
REMARK    9  A    between atoms: C14_26  and  N7_27 
REMARK   10  A    between atoms: C16_32  and  N8_33 
REMARK   11  A    between atoms: C19_43  and  N11_44 
ROOT
HETATM    1  C6  UNL     1      15.448   9.539   3.950  1.00  0.00     0.124 A 
HETATM    2  C7  UNL     1      16.762   9.097   3.795  1.00  0.00     0.097 A 
HETATM    3  C8  UNL     1      17.560   8.908   4.902  1.00  0.00     0.120 A 
HETATM    4  N5  UNL     1      16.999   9.172   6.096  1.00  0.00    -0.177 N 
ATOM      5  H5  UNL     1      17.569   9.039   6.931  1.00  0.00     0.185 HD
HETATM    6  C12 UNL     1      15.729   9.601   6.258  1.00  0.00     0.683 A 
HETATM    7  N9  UNL     1      14.965   9.779   5.164  1.00  0.00    -0.177 N 
ATOM      8  H9  UNL     1      14.003  10.103   5.269  1.00  0.00     0.186 HD
ENDROOT
BRANCH   1   9
HETATM    9  N3  UNL     1      14.616   9.719   2.801  1.00  0.00    -0.348 N 
HETATM   10  C5  UNL     1      13.406  10.477   2.734  1.00  0.00     0.146 C 
HETATM   11  C4  UNL     1      13.118  10.616   1.268  1.00  0.00     0.163 C 
HETATM   12  N2  UNL     1      14.196   9.982   0.567  1.00  0.00    -0.199 N 
HETATM   13  C18 UNL     1      14.880   9.134   1.521  1.00  0.00     0.269 C 
BRANCH  12  14
HETATM   14  C3  UNL     1      14.552  10.135  -0.780  1.00  0.00     0.699 A 
HETATM   15  N1  UNL     1      13.711   9.940  -1.804  1.00  0.00    -0.154 N 
HETATM   16  C2  UNL     1      14.039  10.075  -3.092  1.00  0.00     0.252 A 
ATOM     17  H1  UNL     1      12.753   9.669  -1.585  1.00  0.00     0.188 HD
HETATM   18  N12 UNL     1      15.286  10.428  -3.418  1.00  0.00    -0.154 N 
HETATM   19  C19 UNL     1      16.183  10.640  -2.424  1.00  0.00     0.693 A 
ATOM     20  H12 UNL     1      15.557  10.537  -4.395  1.00  0.00     0.188 HD
HETATM   21  N10 UNL     1      15.819  10.496  -1.137  1.00  0.00    -0.022 N 
ATOM     22  H10 UNL     1      16.510  10.662  -0.406  1.00  0.00     0.203 HD
BRANCH  16  23
HETATM   23  O1  UNL     1      13.143   9.867  -4.144  1.00  0.00    -0.326 OA
HETATM   24  C1  UNL     1      12.896   8.508  -4.516  1.00  0.00     0.213 C 
ENDBRANCH  16  23
BRANCH  19  25
HETATM   25  N11 UNL     1      17.396  10.987  -2.707  1.00  0.00    -0.234 N 
ATOM     26 2H11 UNL     1      18.163  10.328  -2.570  1.00  0.00     0.174 HD
ATOM     27 1H11 UNL     1      17.577  11.922  -3.072  1.00  0.00     0.174 HD
ENDBRANCH  19  25
ENDBRANCH  12  14
ENDBRANCH   1   9
BRANCH   3  28
HETATM   28  N4  UNL     1      18.752   8.511   4.744  1.00  0.00    -0.373 N 
ATOM     29  H4  UNL     1      19.352   9.046   4.117  1.00  0.00     0.161 HD
BRANCH  28  30
HETATM   30  C9  UNL     1      19.313   7.368   5.381  1.00  0.00     0.152 C 
BRANCH  30  31
HETATM   31  C10 UNL     1      19.333   6.175   4.448  1.00  0.00     0.132 C 
HETATM   32  C11 UNL     1      20.753   6.011   3.933  1.00  0.00     0.041 C 
BRANCH  31  33
HETATM   33  O2  UNL     1      18.890   5.017   5.082  1.00  0.00    -0.394 OA
ATOM     34  H2  UNL     1      17.942   4.986   5.137  1.00  0.00     0.210 HD
ENDBRANCH  31  33
ENDBRANCH  30  31
ENDBRANCH  28  30
ENDBRANCH   3  28
BRANCH   6  35
HETATM   35  N6  UNL     1      15.195   9.856   7.531  1.00  0.00    -0.214 N 
HETATM   36  C13 UNL     1      15.118   8.779   8.526  1.00  0.00     0.174 C 
HETATM   37  C14 UNL     1      13.641   8.739   8.933  1.00  0.00     0.204 C 
HETATM   38  C15 UNL     1      13.268  10.022   9.639  1.00  0.00     0.069 C 
HETATM   39  C16 UNL     1      14.147  11.180   9.302  1.00  0.00     0.204 C 
HETATM   40  C17 UNL     1      14.709  11.147   7.905  1.00  0.00     0.174 C 
BRANCH  37  41
HETATM   41  N7  UNL     1      12.883   8.723   7.677  1.00  0.00    -0.073 N 
ATOM     42  H73 UNL     1      12.337   9.570   7.518  1.00  0.00     0.274 HD
ATOM     43  H72 UNL     1      13.468   8.798   6.845  1.00  0.00     0.274 HD
ATOM     44  H71 UNL     1      12.320   7.873   7.706  1.00  0.00     0.274 HD
ENDBRANCH  37  41
BRANCH  39  45
HETATM   45  N8  UNL     1      15.251  11.361  10.232  1.00  0.00    -0.073 N 
ATOM     46  H83 UNL     1      15.014  12.052  10.943  1.00  0.00     0.274 HD
ATOM     47  H82 UNL     1      15.362  10.538  10.824  1.00  0.00     0.274 HD
ATOM     48  H81 UNL     1      16.132  11.599   9.776  1.00  0.00     0.274 HD
ENDBRANCH  39  45
ENDBRANCH   6  35
TORSDOF 11
ENDMDL
MODEL 4
REMARK VINA RESULT: -9.081578628      2.423      8.259
REMARK  11 active torsions:
REMARK  status: ('A' for Active; 'I' for Inactive)
REMARK    1  A    between atoms: O1_2  and  C2_3 
REMARK    2  A    between atoms: C3_6  and  N2_7 
REMARK    3  A    between atoms: N3_10  and  C6_11 
REMARK    4  A    between atoms: C8_13  and  N4_14 
REMARK    5  A    between atoms: N4_14  and  C9_16 
REMARK    6  A    between atoms: C9_16  and  C10_17 
REMARK    7  A    between atoms: C10_17  and  O2_19 
REMARK    8  A    between atoms: C12_23  and  N6_24 
REMARK    9  A    between atoms: C14_26  and  N7_27 
REMARK   10  A    between atoms: C16_32  and  N8_33 
REMARK   11  A    between atoms: C19_43  and  N11_44 
ROOT
HETATM    1  C6  UNL     1      15.933   9.347   4.392  1.00  0.00     0.124 A 
HETATM    2  C7  UNL     1      15.438   9.198   5.687  1.00  0.00     0.097 A 
HETATM    3  C8  UNL     1      16.287   8.836   6.711  1.00  0.00     0.120 A 
HETATM    4  N5  UNL     1      17.576   8.645   6.380  1.00  0.00    -0.177 N 
ATOM      5  H5  UNL     1      18.224   8.378   7.120  1.00  0.00     0.185 HD
HETATM    6  C12 UNL     1      18.066   8.786   5.129  1.00  0.00     0.683 A 
HETATM    7  N9  UNL     1      17.222   9.140   4.143  1.00  0.00    -0.177 N 
ATOM      8  H9  UNL     1      17.575   9.250   3.192  1.00  0.00     0.186 HD
ENDROOT
BRANCH   1   9
HETATM    9  N3  UNL     1      15.054   9.737   3.333  1.00  0.00    -0.348 N 
HETATM   10  C5  UNL     1      14.052  10.755   3.388  1.00  0.00     0.146 C 
HETATM   11  C4  UNL     1      13.657  10.984   1.959  1.00  0.00     0.163 C 
HETATM   12  N2  UNL     1      14.481  10.133   1.154  1.00  0.00    -0.199 N 
HETATM   13  C18 UNL     1      15.043   9.131   2.036  1.00  0.00     0.269 C 
BRANCH  12  14
HETATM   14  C3  UNL     1      14.725  10.226  -0.223  1.00  0.00     0.699 A 
HETATM   15  N1  UNL     1      13.808   9.969  -1.165  1.00  0.00    -0.154 N 
HETATM   16  C2  UNL     1      14.029  10.046  -2.481  1.00  0.00     0.252 A 
ATOM     17  H1  UNL     1      12.876   9.695  -0.856  1.00  0.00     0.188 HD
HETATM   18  N12 UNL     1      15.239  10.401  -2.923  1.00  0.00    -0.154 N 
HETATM   19  C19 UNL     1      16.209  10.673  -2.017  1.00  0.00     0.693 A 
ATOM     20  H12 UNL     1      15.428  10.466  -3.923  1.00  0.00     0.188 HD
HETATM   21  N10 UNL     1      15.952  10.587  -0.699  1.00  0.00    -0.022 N 
ATOM     22  H10 UNL     1      16.697  10.798  -0.035  1.00  0.00     0.203 HD
BRANCH  16  23
HETATM   23  O1  UNL     1      13.055   9.774  -3.445  1.00  0.00    -0.326 OA
HETATM   24  C1  UNL     1      13.525   9.456  -4.758  1.00  0.00     0.213 C 
ENDBRANCH  16  23
BRANCH  19  25
HETATM   25  N11 UNL     1      17.388  11.024  -2.414  1.00  0.00    -0.234 N 
ATOM     26 2H11 UNL     1      18.179  10.982  -1.770  1.00  0.00     0.174 HD
ATOM     27 1H11 UNL     1      17.521  11.338  -3.375  1.00  0.00     0.174 HD
ENDBRANCH  19  25
ENDBRANCH  12  14
ENDBRANCH   1   9
BRANCH   3  28
HETATM   28  N4  UNL     1      15.821   8.701   7.880  1.00  0.00    -0.373 N 
ATOM     29  H4  UNL     1      16.337   8.110   8.531  1.00  0.00     0.161 HD
BRANCH  28  30
HETATM   30  C9  UNL     1      14.626   9.316   8.350  1.00  0.00     0.152 C 
BRANCH  30  31
HETATM   31  C10 UNL     1      14.914  10.661   8.983  1.00  0.00     0.132 C 
HETATM   32  C11 UNL     1      13.624  11.166   9.609  1.00  0.00     0.041 C 
BRANCH  31  33
HETATM   33  O2  UNL     1      15.934  10.580   9.926  1.00  0.00    -0.394 OA
ATOM     34  H2  UNL     1      16.290  11.436  10.135  1.00  0.00     0.210 HD
ENDBRANCH  31  33
ENDBRANCH  30  31
ENDBRANCH  28  30
ENDBRANCH   3  28
BRANCH   6  35
HETATM   35  N6  UNL     1      19.424   8.578   4.843  1.00  0.00    -0.214 N 
HETATM   36  C13 UNL     1      19.880   8.500   3.450  1.00  0.00     0.174 C 
HETATM   37  C14 UNL     1      20.610   7.155   3.360  1.00  0.00     0.204 C 
HETATM   38  C15 UNL     1      21.846   7.183   4.229  1.00  0.00     0.069 C 
HETATM   39  C16 UNL     1      21.787   8.179   5.339  1.00  0.00     0.204 C 
HETATM   40  C17 UNL     1      20.403   8.431   5.875  1.00  0.00     0.174 C 
BRANCH  37  41
HETATM   41  N7  UNL     1      19.704   6.170   3.961  1.00  0.00    -0.073 N 
ATOM     42  H73 UNL     1      19.568   6.299   4.964  1.00  0.00     0.274 HD
ATOM     43  H72 UNL     1      18.729   6.293   3.689  1.00  0.00     0.274 HD
ATOM     44  H71 UNL     1      20.085   5.257   3.714  1.00  0.00     0.274 HD
ENDBRANCH  37  41
BRANCH  39  45
HETATM   45  N8  UNL     1      22.384   9.462   4.999  1.00  0.00    -0.073 N 
ATOM     46  H83 UNL     1      21.726  10.222   5.168  1.00  0.00     0.274 HD
ATOM     47  H82 UNL     1      23.109   9.712   5.671  1.00  0.00     0.274 HD
ATOM     48  H81 UNL     1      22.746   9.502   4.047  1.00  0.00     0.274 HD
ENDBRANCH  39  45
ENDBRANCH   6  35
TORSDOF 11
ENDMDL
MODEL 5
REMARK VINA RESULT: -8.993066153      2.405      8.280
REMARK  11 active torsions:
REMARK  status: ('A' for Active; 'I' for Inactive)
REMARK    1  A    between atoms: O1_2  and  C2_3 
REMARK    2  A    between atoms: C3_6  and  N2_7 
REMARK    3  A    between atoms: N3_10  and  C6_11 
REMARK    4  A    between atoms: C8_13  and  N4_14 
REMARK    5  A    between atoms: N4_14  and  C9_16 
REMARK    6  A    between atoms: C9_16  and  C10_17 
REMARK    7  A    between atoms: C10_17  and  O2_19 
REMARK    8  A    between atoms: C12_23  and  N6_24 
REMARK    9  A    between atoms: C14_26  and  N7_27 
REMARK   10  A    between atoms: C16_32  and  N8_33 
REMARK   11  A    between atoms: C19_43  and  N11_44 
ROOT
HETATM    1  C6  UNL     1      15.867   9.434   4.123  1.00  0.00     0.124 A 
HETATM    2  C7  UNL     1      15.503   9.539   5.465  1.00  0.00     0.097 A 
HETATM    3  C8  UNL     1      16.425   9.265   6.452  1.00  0.00     0.120 A 
HETATM    4  N5  UNL     1      17.653   8.903   6.040  1.00  0.00    -0.177 N 
ATOM      5  H5  UNL     1      18.354   8.696   6.751  1.00  0.00     0.185 HD
HETATM    6  C12 UNL     1      18.017   8.798   4.743  1.00  0.00     0.683 A 
HETATM    7  N9  UNL     1      17.102   9.070   3.794  1.00  0.00    -0.177 N 
ATOM      8  H9  UNL     1      17.360   8.995   2.810  1.00  0.00     0.186 HD
ENDROOT
BRANCH   1   9
HETATM    9  N3  UNL     1      14.914   9.733   3.100  1.00  0.00    -0.348 N 
HETATM   10  C5  UNL     1      13.848  10.682   3.179  1.00  0.00     0.146 C 
HETATM   11  C4  UNL     1      13.370  10.844   1.766  1.00  0.00     0.163 C 
HETATM   12  N2  UNL     1      14.212  10.027   0.943  1.00  0.00    -0.199 N 
HETATM   13  C18 UNL     1      14.883   9.091   1.821  1.00  0.00     0.269 C 
BRANCH  12  14
HETATM   14  C3  UNL     1      14.382  10.097  -0.447  1.00  0.00     0.699 A 
HETATM   15  N1  UNL     1      13.431   9.780  -1.335  1.00  0.00    -0.154 N 
HETATM   16  C2  UNL     1      13.582   9.835  -2.662  1.00  0.00     0.252 A 
ATOM     17  H1  UNL     1      12.527   9.476  -0.973  1.00  0.00     0.188 HD
HETATM   18  N12 UNL     1      14.752  10.228  -3.172  1.00  0.00    -0.154 N 
HETATM   19  C19 UNL     1      15.754  10.562  -2.323  1.00  0.00     0.693 A 
ATOM     20  H12 UNL     1      14.889  10.277  -4.182  1.00  0.00     0.188 HD
HETATM   21  N10 UNL     1      15.567  10.497  -0.992  1.00  0.00    -0.022 N 
ATOM     22  H10 UNL     1      16.335  10.754  -0.372  1.00  0.00     0.203 HD
BRANCH  16  23
HETATM   23  O1  UNL     1      12.574   9.501  -3.569  1.00  0.00    -0.326 OA
HETATM   24  C1  UNL     1      12.929   9.513  -4.955  1.00  0.00     0.213 C 
ENDBRANCH  16  23
BRANCH  19  25
HETATM   25  N11 UNL     1      16.897  10.951  -2.787  1.00  0.00    -0.234 N 
ATOM     26 2H11 UNL     1      17.596  11.348  -2.159  1.00  0.00     0.174 HD
ATOM     27 1H11 UNL     1      17.093  10.853  -3.782  1.00  0.00     0.174 HD
ENDBRANCH  19  25
ENDBRANCH  12  14
ENDBRANCH   1   9
BRANCH   3  28
HETATM   28  N4  UNL     1      16.077   9.360   7.666  1.00  0.00    -0.373 N 
ATOM     29  H4  UNL     1      16.769   9.128   8.378  1.00  0.00     0.161 HD
BRANCH  28  30
HETATM   30  C9  UNL     1      14.786   9.768   8.106  1.00  0.00     0.152 C 
BRANCH  30  31
HETATM   31  C10 UNL     1      14.880  10.907   9.099  1.00  0.00     0.132 C 
HETATM   32  C11 UNL     1      13.586  10.936   9.896  1.00  0.00     0.041 C 
BRANCH  31  33
HETATM   33  O2  UNL     1      15.984  10.773   9.936  1.00  0.00    -0.394 OA
ATOM     34  H2  UNL     1      16.775  10.577   9.447  1.00  0.00     0.210 HD
ENDBRANCH  31  33
ENDBRANCH  30  31
ENDBRANCH  28  30
ENDBRANCH   3  28
BRANCH   6  35
HETATM   35  N6  UNL     1      19.316   8.420   4.372  1.00  0.00    -0.214 N 
HETATM   36  C13 UNL     1      19.932   7.225   4.961  1.00  0.00     0.174 C 
HETATM   37  C14 UNL     1      21.249   7.729   5.564  1.00  0.00     0.204 C 
HETATM   38  C15 UNL     1      22.168   8.204   4.463  1.00  0.00     0.069 C 
HETATM   39  C16 UNL     1      21.462   8.605   3.210  1.00  0.00     0.204 C 
HETATM   40  C17 UNL     1      20.084   9.170   3.428  1.00  0.00     0.174 C 
BRANCH  37  41
HETATM   41  N7  UNL     1      20.896   8.916   6.350  1.00  0.00    -0.073 N 
ATOM     42  H73 UNL     1      20.323   9.588   5.840  1.00  0.00     0.274 HD
ATOM     43  H72 UNL     1      20.228   8.729   7.097  1.00  0.00     0.274 HD
ATOM     44  H71 UNL     1      21.781   9.302   6.680  1.00  0.00     0.274 HD
ENDBRANCH  37  41
BRANCH  39  45
HETATM   45  N8  UNL     1      21.364   7.532   2.232  1.00  0.00    -0.073 N 
ATOM     46  H83 UNL     1      21.442   7.900   1.284  1.00  0.00     0.274 HD
ATOM     47  H82 UNL     1      22.198   6.945   2.255  1.00  0.00     0.274 HD
ATOM     48  H81 UNL     1      20.522   6.966   2.332  1.00  0.00     0.274 HD
ENDBRANCH  39  45
ENDBRANCH   6  35
TORSDOF 11
ENDMDL
