MODEL 1
REMARK VINA RESULT: -9.381595467      0.000      0.000
REMARK  8 active torsions:
REMARK  status: ('A' for Active; 'I' for Inactive)
REMARK    1  A    between atoms: N1_1  and  C1_4 
REMARK    2  A    between atoms: C3_9  and  C4_10 
REMARK    3  A    between atoms: C4_10  and  C5_11 
REMARK    4  A    between atoms: C6_12  and  N4_13 
REMARK    5  A    between atoms: N5_16  and  N6_17 
REMARK    6  A    between atoms: C8_19  and  C9_20 
REMARK    7  A    between atoms: C9_20  and  N7_21 
REMARK    8  A    between atoms: C17_35  and  N9_36 
ROOT
HETATM    1  C5  UNL     1      16.852  10.947  -0.279  1.00  0.00     0.085 A 
HETATM    2  C6  UNL     1      16.419  10.818   1.044  1.00  0.00     0.215 A 
HETATM    3  N5  UNL     1      15.307  10.102   1.370  1.00  0.00    -0.177 N 
HETATM    4  C15 UNL     1      14.591   9.494   0.387  1.00  0.00     0.350 A 
HETATM    5  O5  UNL     1      13.561   8.825   0.649  1.00  0.00    -0.244 OA
HETATM    6  N8  UNL     1      14.971   9.591  -0.892  1.00  0.00    -0.273 N 
ATOM      7  H8  UNL     1      14.422   9.127  -1.616  1.00  0.00     0.173 HD
HETATM    8  C16 UNL     1      16.056  10.286  -1.236  1.00  0.00     0.263 A 
HETATM    9  O6  UNL     1      16.357  10.338  -2.453  1.00  0.00    -0.267 OA
ENDROOT
BRANCH   1  10
HETATM   10  C4  UNL     1      17.997  11.650  -0.767  1.00  0.00     0.040 C 
BRANCH  10  11
HETATM   11  C3  UNL     1      19.277  11.647  -0.080  1.00  0.00     0.051 A 
HETATM   12  C2  UNL     1      20.100  10.582   0.044  1.00  0.00     0.145 A 
HETATM   13  N2  UNL     1      21.281  10.742   0.718  1.00  0.00    -0.178 N 
HETATM   14  N3  UNL     1      19.843   9.265  -0.481  1.00  0.00    -0.081 NA
HETATM   15  C1  UNL     1      21.635  11.913   1.248  1.00  0.00     0.678 A 
ATOM     16  H2  UNL     1      21.907   9.943   0.817  1.00  0.00     0.185 HD
HETATM   17  N10 UNL     1      20.820  12.974   1.126  1.00  0.00    -0.176 N 
HETATM   18  C17 UNL     1      19.669  12.869   0.484  1.00  0.00     0.128 A 
ATOM     19  H10 UNL     1      21.091  13.869   1.533  1.00  0.00     0.186 HD
BRANCH  15  20
HETATM   20  N1  UNL     1      22.754  12.032   1.875  1.00  0.00    -0.234 N 
ATOM     21  H12 UNL     1      23.279  11.198   2.139  1.00  0.00     0.174 HD
ATOM     22  H11 UNL     1      23.118  12.956   2.111  1.00  0.00     0.174 HD
ENDBRANCH  15  20
BRANCH  18  23
HETATM   23  N9  UNL     1      18.907  13.914   0.384  1.00  0.00    -0.384 N 
ATOM     24  H92 UNL     1      17.946  13.859   0.721  1.00  0.00     0.157 HD
ATOM     25  H91 UNL     1      19.264  14.777  -0.026  1.00  0.00     0.157 HD
ENDBRANCH  18  23
ENDBRANCH  10  11
ENDBRANCH   1  10
BRANCH   2  26
HETATM   26  N4  UNL     1      17.154  11.486   2.041  1.00  0.00    -0.095 N 
HETATM   27  O1  UNL     1      16.887  12.661   2.328  1.00  0.00    -0.530 OA
HETATM   28  O2  UNL     1      18.161  10.927   2.739  1.00  0.00    -0.530 OA
ENDBRANCH   2  26
BRANCH   3  29
HETATM   29  N6  UNL     1      14.834   9.950   2.675  1.00  0.00    -0.247 N 
HETATM   30  C7  UNL     1      13.670  10.402   3.390  1.00  0.00     0.168 C 
HETATM   31  C8  UNL     1      14.064   9.513   4.517  1.00  0.00     0.117 C 
HETATM   32  C14 UNL     1      15.298   9.239   3.799  1.00  0.00     0.246 C 
HETATM   33  O4  UNL     1      16.352   8.604   4.102  1.00  0.00    -0.271 OA
BRANCH  31  34
HETATM   34  C9  UNL     1      14.379  10.247   5.820  1.00  0.00     0.132 C 
BRANCH  34  35
HETATM   35  N7  UNL     1      13.731   9.640   6.935  1.00  0.00    -0.408 N 
HETATM   36  C10 UNL     1      14.050   8.286   7.199  1.00  0.00     0.143 C 
HETATM   37  C11 UNL     1      15.118   8.058   8.235  1.00  0.00     0.187 C 
HETATM   38  O3  UNL     1      15.466   9.204   8.925  1.00  0.00    -0.388 OA
HETATM   39  C12 UNL     1      14.291   9.868   9.286  1.00  0.00     0.187 C 
HETATM   40  C13 UNL     1      13.617  10.462   8.086  1.00  0.00     0.143 C 
ENDBRANCH  34  35
ENDBRANCH  31  34
ENDBRANCH   3  29
TORSDOF 8
ENDMDL
MODEL 2
REMARK VINA RESULT: -9.129766489      0.858      1.642
REMARK  8 active torsions:
REMARK  status: ('A' for Active; 'I' for Inactive)
REMARK    1  A    between atoms: N1_1  and  C1_4 
REMARK    2  A    between atoms: C3_9  and  C4_10 
REMARK    3  A    between atoms: C4_10  and  C5_11 
REMARK    4  A    between atoms: C6_12  and  N4_13 
REMARK    5  A    between atoms: N5_16  and  N6_17 
REMARK    6  A    between atoms: C8_19  and  C9_20 
REMARK    7  A    between atoms: C9_20  and  N7_21 
REMARK    8  A    between atoms: C17_35  and  N9_36 
ROOT
HETATM    1  C5  UNL     1      17.395  10.686  -0.298  1.00  0.00     0.085 A 
HETATM    2  C6  UNL     1      16.951  10.603   1.025  1.00  0.00     0.215 A 
HETATM    3  N5  UNL     1      15.625  10.552   1.336  1.00  0.00    -0.177 N 
HETATM    4  C15 UNL     1      14.702  10.583   0.338  1.00  0.00     0.350 A 
HETATM    5  O5  UNL     1      13.472  10.538   0.586  1.00  0.00    -0.244 OA
HETATM    6  N8  UNL     1      15.085  10.662  -0.941  1.00  0.00    -0.273 N 
ATOM      7  H8  UNL     1      14.378  10.683  -1.677  1.00  0.00     0.173 HD
HETATM    8  C16 UNL     1      16.376  10.713  -1.271  1.00  0.00     0.263 A 
HETATM    9  O6  UNL     1      16.667  10.786  -2.489  1.00  0.00    -0.267 OA
ENDROOT
BRANCH   1  10
HETATM   10  C4  UNL     1      18.743  10.734  -0.773  1.00  0.00     0.040 C 
BRANCH  10  11
HETATM   11  C3  UNL     1      19.778  11.524  -0.129  1.00  0.00     0.051 A 
HETATM   12  C2  UNL     1      19.718  12.853   0.110  1.00  0.00     0.145 A 
HETATM   13  N2  UNL     1      20.776  13.454   0.736  1.00  0.00    -0.178 N 
HETATM   14  N3  UNL     1      18.616  13.714  -0.240  1.00  0.00    -0.081 NA
HETATM   15  C1  UNL     1      21.854  12.766   1.114  1.00  0.00     0.678 A 
ATOM     16  H2  UNL     1      20.740  14.456   0.919  1.00  0.00     0.185 HD
HETATM   17  N10 UNL     1      21.917  11.444   0.878  1.00  0.00    -0.176 N 
HETATM   18  C17 UNL     1      20.919  10.819   0.277  1.00  0.00     0.128 A 
ATOM     19  H10 UNL     1      22.741  10.918   1.166  1.00  0.00     0.186 HD
BRANCH  15  20
HETATM   20  N1  UNL     1      22.834  13.360   1.702  1.00  0.00    -0.234 N 
ATOM     21  H12 UNL     1      22.844  13.437   2.719  1.00  0.00     0.174 HD
ATOM     22  H11 UNL     1      23.601  13.754   1.157  1.00  0.00     0.174 HD
ENDBRANCH  15  20
BRANCH  18  23
HETATM   23  N9  UNL     1      21.012   9.542   0.067  1.00  0.00    -0.384 N 
ATOM     24  H92 UNL     1      21.549   9.210  -0.735  1.00  0.00     0.157 HD
ATOM     25  H91 UNL     1      20.555   8.880   0.694  1.00  0.00     0.157 HD
ENDBRANCH  18  23
ENDBRANCH  10  11
ENDBRANCH   1  10
BRANCH   2  26
HETATM   26  N4  UNL     1      17.921  10.609   2.044  1.00  0.00    -0.095 N 
HETATM   27  O1  UNL     1      18.111  11.631   2.715  1.00  0.00    -0.530 OA
HETATM   28  O2  UNL     1      18.688   9.548   2.362  1.00  0.00    -0.530 OA
ENDBRANCH   2  26
BRANCH   3  29
HETATM   29  N6  UNL     1      15.134  10.473   2.641  1.00  0.00    -0.247 N 
HETATM   30  C7  UNL     1      14.206  11.247   3.423  1.00  0.00     0.168 C 
HETATM   31  C8  UNL     1      14.267  10.192   4.470  1.00  0.00     0.117 C 
HETATM   32  C14 UNL     1      15.323   9.559   3.697  1.00  0.00     0.246 C 
HETATM   33  O4  UNL     1      16.087   8.574   3.920  1.00  0.00    -0.271 OA
BRANCH  31  34
HETATM   34  C9  UNL     1      14.826  10.665   5.812  1.00  0.00     0.132 C 
BRANCH  34  35
HETATM   35  N7  UNL     1      14.036  10.198   6.904  1.00  0.00    -0.408 N 
HETATM   36  C10 UNL     1      14.071   8.808   7.169  1.00  0.00     0.143 C 
HETATM   37  C11 UNL     1      15.041   8.371   8.234  1.00  0.00     0.187 C 
HETATM   38  O3  UNL     1      15.588   9.425   8.942  1.00  0.00    -0.388 OA
HETATM   39  C12 UNL     1      14.558  10.310   9.271  1.00  0.00     0.187 C 
HETATM   40  C13 UNL     1      14.053  11.027   8.055  1.00  0.00     0.143 C 
ENDBRANCH  34  35
ENDBRANCH  31  34
ENDBRANCH   3  29
TORSDOF 8
ENDMDL
MODEL 3
REMARK VINA RESULT: -8.829999565      1.214      2.097
REMARK  8 active torsions:
REMARK  status: ('A' for Active; 'I' for Inactive)
REMARK    1  A    between atoms: N1_1  and  C1_4 
REMARK    2  A    between atoms: C3_9  and  C4_10 
REMARK    3  A    between atoms: C4_10  and  C5_11 
REMARK    4  A    between atoms: C6_12  and  N4_13 
REMARK    5  A    between atoms: N5_16  and  N6_17 
REMARK    6  A    between atoms: C8_19  and  C9_20 
REMARK    7  A    between atoms: C9_20  and  N7_21 
REMARK    8  A    between atoms: C17_35  and  N9_36 
ROOT
HETATM    1  C5  UNL     1      16.310  10.777   0.463  1.00  0.00     0.085 A 
HETATM    2  C6  UNL     1      16.236  10.723   1.858  1.00  0.00     0.215 A 
HETATM    3  N5  UNL     1      15.336   9.926   2.500  1.00  0.00    -0.177 N 
HETATM    4  C15 UNL     1      14.482   9.159   1.770  1.00  0.00     0.350 A 
HETATM    5  O5  UNL     1      13.639   8.412   2.326  1.00  0.00    -0.244 OA
HETATM    6  N8  UNL     1      14.520   9.181   0.433  1.00  0.00    -0.273 N 
ATOM      7  H8  UNL     1      13.872   8.598  -0.097  1.00  0.00     0.173 HD
HETATM    8  C16 UNL     1      15.391   9.953  -0.218  1.00  0.00     0.263 A 
HETATM    9  O6  UNL     1      15.374   9.927  -1.472  1.00  0.00    -0.267 OA
ENDROOT
BRANCH   1  10
HETATM   10  C4  UNL     1      17.203  11.550  -0.343  1.00  0.00     0.040 C 
BRANCH  10  11
HETATM   11  C3  UNL     1      18.612  11.709  -0.027  1.00  0.00     0.051 A 
HETATM   12  C2  UNL     1      19.219  12.872   0.299  1.00  0.00     0.145 A 
HETATM   13  N2  UNL     1      20.558  12.855   0.578  1.00  0.00    -0.178 N 
HETATM   14  N3  UNL     1      18.569  14.156   0.383  1.00  0.00    -0.081 NA
HETATM   15  C1  UNL     1      21.272  11.730   0.538  1.00  0.00     0.678 A 
ATOM     16  H2  UNL     1      21.024  13.729   0.823  1.00  0.00     0.185 HD
HETATM   17  N10 UNL     1      20.672  10.571   0.215  1.00  0.00    -0.176 N 
HETATM   18  C17 UNL     1      19.380  10.537  -0.062  1.00  0.00     0.128 A 
ATOM     19  H10 UNL     1      21.218   9.711   0.184  1.00  0.00     0.186 HD
BRANCH  15  20
HETATM   20  N1  UNL     1      22.531  11.747   0.808  1.00  0.00    -0.234 N 
ATOM     21  H12 UNL     1      23.210  11.539   0.075  1.00  0.00     0.174 HD
ATOM     22  H11 UNL     1      22.856  11.967   1.750  1.00  0.00     0.174 HD
ENDBRANCH  15  20
BRANCH  18  23
HETATM   23  N9  UNL     1      18.833   9.401  -0.368  1.00  0.00    -0.384 N 
ATOM     24  H92 UNL     1      18.439   9.277  -1.301  1.00  0.00     0.157 HD
ATOM     25  H91 UNL     1      18.798   8.644   0.314  1.00  0.00     0.157 HD
ENDBRANCH  18  23
ENDBRANCH  10  11
ENDBRANCH   1  10
BRANCH   2  26
HETATM   26  N4  UNL     1      17.104  11.551   2.592  1.00  0.00    -0.095 N 
HETATM   27  O1  UNL     1      16.801  12.731   2.811  1.00  0.00    -0.530 OA
HETATM   28  O2  UNL     1      18.284  11.146   3.101  1.00  0.00    -0.530 OA
ENDBRANCH   2  26
BRANCH   3  29
HETATM   29  N6  UNL     1      15.223   9.842   3.888  1.00  0.00    -0.247 N 
HETATM   30  C7  UNL     1      14.326  10.399   4.868  1.00  0.00     0.168 C 
HETATM   31  C8  UNL     1      14.948   9.511   5.886  1.00  0.00     0.117 C 
HETATM   32  C14 UNL     1      15.922   9.126   4.880  1.00  0.00     0.246 C 
HETATM   33  O4  UNL     1      16.974   8.420   4.919  1.00  0.00    -0.271 OA
BRANCH  31  34
HETATM   34  C9  UNL     1      15.650  10.251   7.025  1.00  0.00     0.132 C 
BRANCH  34  35
HETATM   35  N7  UNL     1      15.259   9.747   8.300  1.00  0.00    -0.408 N 
HETATM   36  C10 UNL     1      15.388  10.627   9.402  1.00  0.00     0.143 C 
HETATM   37  C11 UNL     1      14.141  11.376   9.787  1.00  0.00     0.187 C 
HETATM   38  O3  UNL     1      13.007  10.921   9.141  1.00  0.00    -0.388 OA
HETATM   39  C12 UNL     1      13.010   9.525   9.186  1.00  0.00     0.187 C 
HETATM   40  C13 UNL     1      14.078   8.960   8.299  1.00  0.00     0.143 C 
ENDBRANCH  34  35
ENDBRANCH  31  34
ENDBRANCH   3  29
TORSDOF 8
ENDMDL
MODEL 4
REMARK VINA RESULT: -8.652970086      1.279      2.125
REMARK  8 active torsions:
REMARK  status: ('A' for Active; 'I' for Inactive)
REMARK    1  A    between atoms: N1_1  and  C1_4 
REMARK    2  A    between atoms: C3_9  and  C4_10 
REMARK    3  A    between atoms: C4_10  and  C5_11 
REMARK    4  A    between atoms: C6_12  and  N4_13 
REMARK    5  A    between atoms: N5_16  and  N6_17 
REMARK    6  A    between atoms: C8_19  and  C9_20 
REMARK    7  A    between atoms: C9_20  and  N7_21 
REMARK    8  A    between atoms: C17_35  and  N9_36 
ROOT
HETATM    1  C5  UNL     1      16.870  10.628   0.372  1.00  0.00     0.085 A 
HETATM    2  C6  UNL     1      16.634  10.483   1.742  1.00  0.00     0.215 A 
HETATM    3  N5  UNL     1      15.377  10.535   2.265  1.00  0.00    -0.177 N 
HETATM    4  C15 UNL     1      14.317  10.733   1.437  1.00  0.00     0.350 A 
HETATM    5  O5  UNL     1      13.143  10.787   1.882  1.00  0.00    -0.244 OA
HETATM    6  N8  UNL     1      14.498  10.876   0.120  1.00  0.00    -0.273 N 
ATOM      7  H8  UNL     1      13.690  11.022  -0.486  1.00  0.00     0.173 HD
HETATM    8  C16 UNL     1      15.719  10.829  -0.416  1.00  0.00     0.263 A 
HETATM    9  O6  UNL     1      15.819  10.970  -1.658  1.00  0.00    -0.267 OA
ENDROOT
BRANCH   1  10
HETATM   10  C4  UNL     1      18.123  10.584  -0.316  1.00  0.00     0.040 C 
BRANCH  10  11
HETATM   11  C3  UNL     1      19.288  11.335   0.119  1.00  0.00     0.051 A 
HETATM   12  C2  UNL     1      19.370  12.681   0.201  1.00  0.00     0.145 A 
HETATM   13  N2  UNL     1      20.540  13.240   0.639  1.00  0.00    -0.178 N 
HETATM   14  N3  UNL     1      18.314  13.602  -0.137  1.00  0.00    -0.081 NA
HETATM   15  C1  UNL     1      21.589  12.495   0.986  1.00  0.00     0.678 A 
ATOM     16  H2  UNL     1      20.610  14.255   0.702  1.00  0.00     0.185 HD
HETATM   17  N10 UNL     1      21.511  11.156   0.907  1.00  0.00    -0.176 N 
HETATM   18  C17 UNL     1      20.402  10.569   0.489  1.00  0.00     0.128 A 
ATOM     19  H10 UNL     1      22.315  10.586   1.171  1.00  0.00     0.186 HD
BRANCH  15  20
HETATM   20  N1  UNL     1      22.677  13.051   1.396  1.00  0.00    -0.234 N 
ATOM     21  H12 UNL     1      23.298  13.505   0.726  1.00  0.00     0.174 HD
ATOM     22  H11 UNL     1      22.921  13.040   2.386  1.00  0.00     0.174 HD
ENDBRANCH  15  20
BRANCH  18  23
HETATM   23  N9  UNL     1      20.361   9.275   0.427  1.00  0.00    -0.384 N 
ATOM     24  H92 UNL     1      19.708   8.771   1.028  1.00  0.00     0.157 HD
ATOM     25  H91 UNL     1      20.972   8.768  -0.213  1.00  0.00     0.157 HD
ENDBRANCH  18  23
ENDBRANCH  10  11
ENDBRANCH   1  10
BRANCH   2  26
HETATM   26  N4  UNL     1      17.749  10.316   2.584  1.00  0.00    -0.095 N 
HETATM   27  O1  UNL     1      18.199   9.183   2.801  1.00  0.00    -0.530 OA
HETATM   28  O2  UNL     1      18.394  11.329   3.195  1.00  0.00    -0.530 OA
ENDBRANCH   2  26
BRANCH   3  29
HETATM   29  N6  UNL     1      15.094  10.402   3.625  1.00  0.00    -0.247 N 
HETATM   30  C7  UNL     1      15.482  11.112   4.816  1.00  0.00     0.168 C 
HETATM   31  C8  UNL     1      14.475  10.319   5.571  1.00  0.00     0.117 C 
HETATM   32  C14 UNL     1      14.262   9.537   4.364  1.00  0.00     0.246 C 
HETATM   33  O4  UNL     1      13.587   8.494   4.117  1.00  0.00    -0.271 OA
BRANCH  31  34
HETATM   34  C9  UNL     1      15.064   9.427   6.665  1.00  0.00     0.132 C 
BRANCH  34  35
HETATM   35  N7  UNL     1      14.272   9.456   7.850  1.00  0.00    -0.408 N 
HETATM   36  C10 UNL     1      14.966   9.395   9.083  1.00  0.00     0.143 C 
HETATM   37  C11 UNL     1      15.242  10.719   9.742  1.00  0.00     0.187 C 
HETATM   38  O3  UNL     1      14.580  11.776   9.146  1.00  0.00    -0.388 OA
HETATM   39  C12 UNL     1      13.258  11.388   8.914  1.00  0.00     0.187 C 
HETATM   40  C13 UNL     1      13.181  10.363   7.823  1.00  0.00     0.143 C 
ENDBRANCH  34  35
ENDBRANCH  31  34
ENDBRANCH   3  29
TORSDOF 8
ENDMDL
MODEL 5
REMARK VINA RESULT: -8.479220760      0.801      1.188
REMARK  8 active torsions:
REMARK  status: ('A' for Active; 'I' for Inactive)
REMARK    1  A    between atoms: N1_1  and  C1_4 
REMARK    2  A    between atoms: C3_9  and  C4_10 
REMARK    3  A    between atoms: C4_10  and  C5_11 
REMARK    4  A    between atoms: C6_12  and  N4_13 
REMARK    5  A    between atoms: N5_16  and  N6_17 
REMARK    6  A    between atoms: C8_19  and  C9_20 
REMARK    7  A    between atoms: C9_20  and  N7_21 
REMARK    8  A    between atoms: C17_35  and  N9_36 
ROOT
HETATM    1  C5  UNL     1      17.042  11.026  -0.317  1.00  0.00     0.085 A 
HETATM    2  C6  UNL     1      16.640  10.871   1.013  1.00  0.00     0.215 A 
HETATM    3  N5  UNL     1      15.547  10.131   1.352  1.00  0.00    -0.177 N 
HETATM    4  C15 UNL     1      14.822   9.524   0.375  1.00  0.00     0.350 A 
HETATM    5  O5  UNL     1      13.808   8.834   0.648  1.00  0.00    -0.244 OA
HETATM    6  N8  UNL     1      15.173   9.647  -0.910  1.00  0.00    -0.273 N 
ATOM      7  H8  UNL     1      14.617   9.183  -1.629  1.00  0.00     0.173 HD
HETATM    8  C16 UNL     1      16.238  10.365  -1.267  1.00  0.00     0.263 A 
HETATM    9  O6  UNL     1      16.512  10.440  -2.489  1.00  0.00    -0.267 OA
ENDROOT
BRANCH   1  10
HETATM   10  C4  UNL     1      18.165  11.756  -0.818  1.00  0.00     0.040 C 
BRANCH  10  11
HETATM   11  C3  UNL     1      19.441  11.812  -0.127  1.00  0.00     0.051 A 
HETATM   12  C2  UNL     1      20.336  10.802  -0.043  1.00  0.00     0.145 A 
HETATM   13  N2  UNL     1      21.502  11.016   0.640  1.00  0.00    -0.178 N 
HETATM   14  N3  UNL     1      20.170   9.493  -0.622  1.00  0.00    -0.081 NA
HETATM   15  C1  UNL     1      21.775  12.185   1.218  1.00  0.00     0.678 A 
ATOM     16  H2  UNL     1      22.181  10.258   0.709  1.00  0.00     0.185 HD
HETATM   17  N10 UNL     1      20.889  13.193   1.137  1.00  0.00    -0.176 N 
HETATM   18  C17 UNL     1      19.749  13.035   0.487  1.00  0.00     0.128 A 
ATOM     19  H10 UNL     1      21.098  14.087   1.580  1.00  0.00     0.186 HD
BRANCH  15  20
HETATM   20  N1  UNL     1      22.883  12.356   1.854  1.00  0.00    -0.234 N 
ATOM     21  H12 UNL     1      23.771  12.200   1.377  1.00  0.00     0.174 HD
ATOM     22  H11 UNL     1      22.878  12.645   2.832  1.00  0.00     0.174 HD
ENDBRANCH  15  20
BRANCH  18  23
HETATM   23  N9  UNL     1      18.917  14.028   0.427  1.00  0.00    -0.384 N 
ATOM     24  H92 UNL     1      18.323  14.126  -0.397  1.00  0.00     0.157 HD
ATOM     25  H91 UNL     1      18.858  14.701   1.191  1.00  0.00     0.157 HD
ENDBRANCH  18  23
ENDBRANCH  10  11
ENDBRANCH   1  10
BRANCH   2  26
HETATM   26  N4  UNL     1      17.384  11.537   2.004  1.00  0.00    -0.095 N 
HETATM   27  O1  UNL     1      18.280  10.940   2.616  1.00  0.00    -0.530 OA
HETATM   28  O2  UNL     1      17.194  12.825   2.353  1.00  0.00    -0.530 OA
ENDBRANCH   2  26
BRANCH   3  29
HETATM   29  N6  UNL     1      15.105   9.952   2.663  1.00  0.00    -0.247 N 
HETATM   30  C7  UNL     1      15.545   9.160   3.782  1.00  0.00     0.168 C 
HETATM   31  C8  UNL     1      14.571   9.893   4.635  1.00  0.00     0.117 C 
HETATM   32  C14 UNL     1      14.070  10.528   3.427  1.00  0.00     0.246 C 
HETATM   33  O4  UNL     1      13.087  11.292   3.196  1.00  0.00    -0.271 OA
BRANCH  31  34
HETATM   34  C9  UNL     1      13.478   9.014   5.244  1.00  0.00     0.132 C 
BRANCH  34  35
HETATM   35  N7  UNL     1      13.406   9.170   6.660  1.00  0.00    -0.408 N 
HETATM   36  C10 UNL     1      13.784   8.055   7.446  1.00  0.00     0.143 C 
HETATM   37  C11 UNL     1      15.205   8.059   7.942  1.00  0.00     0.187 C 
HETATM   38  O3  UNL     1      15.854   9.262   7.735  1.00  0.00    -0.388 OA
HETATM   39  C12 UNL     1      14.992  10.293   8.115  1.00  0.00     0.187 C 
HETATM   40  C13 UNL     1      13.851  10.425   7.150  1.00  0.00     0.143 C 
ENDBRANCH  34  35
ENDBRANCH  31  34
ENDBRANCH   3  29
TORSDOF 8
ENDMDL
