MODEL 1
REMARK VINA RESULT: -8.923020723      0.000      0.000
REMARK  10 active torsions:
REMARK  status: ('A' for Active; 'I' for Inactive)
REMARK    1  A    between atoms: C3_4  and  O2_5 
REMARK    2  A    between atoms: O2_5  and  C4_6 
REMARK    3  A    between atoms: C7_11  and  C8_12 
REMARK    4  A    between atoms: C8_12  and  O5_13 
REMARK    5  A    between atoms: C9_15  and  O6_16 
REMARK    6  A    between atoms: C9_15  and  C10_18 
REMARK    7  A    between atoms: C13_23  and  O9_24 
REMARK    8  A    between atoms: O9_24  and  C14_25 
REMARK    9  A    between atoms: C17_28  and  N1_29 
REMARK   10  A    between atoms: C19_36  and  O12_37 
ROOT
HETATM    1  C1  UNL     1      14.634  10.898   7.086  1.00  0.00     0.044 C 
HETATM    2  C2  UNL     1      14.816  10.232   5.746  1.00  0.00     0.175 C 
HETATM    3  O1  UNL     1      14.713  11.140   4.722  1.00  0.00    -0.346 OA
HETATM    4  C3  UNL     1      14.911  10.504   3.500  1.00  0.00     0.316 C 
HETATM    5  C13 UNL     1      13.899   9.410   3.262  1.00  0.00     0.321 C 
HETATM    6  O11 UNL     1      13.128   9.150   4.385  1.00  0.00    -0.324 OA
HETATM    7  C19 UNL     1      13.782   9.174   5.581  1.00  0.00     0.288 C 
ENDROOT
BRANCH   4   8
HETATM    8  O2  UNL     1      16.170   9.937   3.530  1.00  0.00    -0.348 OA
BRANCH   8   9
HETATM    9  C4  UNL     1      16.925  10.298   2.403  1.00  0.00     0.157 C 
HETATM   10  C5  UNL     1      16.480  11.627   1.900  1.00  0.00     0.203 C 
HETATM   11  O3  UNL     1      17.460  12.556   2.091  1.00  0.00    -0.358 OA
HETATM   12  C6  UNL     1      18.594  11.967   2.597  1.00  0.00     0.267 C 
HETATM   13  O4  UNL     1      19.668  12.375   1.832  1.00  0.00    -0.350 OA
HETATM   14  C12 UNL     1      18.382  10.525   2.741  1.00  0.00     0.075 C 
HETATM   15  C7  UNL     1      20.718  11.494   1.876  1.00  0.00     0.193 C 
HETATM   16  C9  UNL     1      20.259  10.271   1.069  1.00  0.00     0.174 C 
HETATM   17  C11 UNL     1      19.202   9.614   1.921  1.00  0.00     0.064 C 
BRANCH  15  18
HETATM   18  C8  UNL     1      22.000  12.047   1.365  1.00  0.00     0.199 C 
BRANCH  18  19
HETATM   19  O5  UNL     1      21.735  12.786   0.223  1.00  0.00    -0.398 OA
ATOM     20  H5  UNL     1      22.332  13.524   0.198  1.00  0.00     0.209 HD
ENDBRANCH  18  19
ENDBRANCH  15  18
BRANCH  16  21
HETATM   21  O6  UNL     1      19.639  10.762  -0.069  1.00  0.00    -0.376 OA
ATOM     22  H6  UNL     1      20.001  10.277  -0.803  1.00  0.00     0.211 HD
ENDBRANCH  16  21
BRANCH  16  23
HETATM   23  C10 UNL     1      21.361   9.358   0.772  1.00  0.00     0.211 C 
HETATM   24  O7  UNL     1      21.739   8.539   1.646  1.00  0.00    -0.646 OA
HETATM   25  O8  UNL     1      22.011   9.361  -0.448  1.00  0.00    -0.646 OA
ENDBRANCH  16  23
ENDBRANCH   8   9
ENDBRANCH   4   8
BRANCH   5  26
HETATM   26  O9  UNL     1      13.013   9.895   2.289  1.00  0.00    -0.326 OA
BRANCH  26  27
HETATM   27  C14 UNL     1      13.662  10.078   1.048  1.00  0.00     0.263 C 
HETATM   28  C15 UNL     1      14.028   8.710   0.456  1.00  0.00     0.063 C 
HETATM   29  C16 UNL     1      14.160   8.828  -1.048  1.00  0.00     0.040 C 
HETATM   30  C17 UNL     1      14.487  10.288  -1.347  1.00  0.00     0.207 C 
HETATM   31  C18 UNL     1      13.213  11.065  -1.005  1.00  0.00     0.203 C 
HETATM   32  O10 UNL     1      12.730  10.713   0.230  1.00  0.00    -0.359 OA
BRANCH  30  33
HETATM   33  N1  UNL     1      14.806  10.417  -2.748  1.00  0.00    -0.073 N 
ATOM     34  H13 UNL     1      14.147   9.918  -3.344  1.00  0.00     0.274 HD
ATOM     35  H12 UNL     1      14.634  11.358  -3.101  1.00  0.00     0.274 HD
ATOM     36  H11 UNL     1      15.769  10.117  -2.896  1.00  0.00     0.274 HD
ENDBRANCH  30  33
ENDBRANCH  26  27
ENDBRANCH   5  26
BRANCH   7  37
HETATM   37  O12 UNL     1      14.332   7.918   5.866  1.00  0.00    -0.369 OA
ATOM     38  H12 UNL     1      14.956   7.676   5.192  1.00  0.00     0.212 HD
ENDBRANCH   7  37
TORSDOF 10
ENDMDL
MODEL 2
REMARK VINA RESULT: -8.895480989      1.814      2.516
REMARK  10 active torsions:
REMARK  status: ('A' for Active; 'I' for Inactive)
REMARK    1  A    between atoms: C3_4  and  O2_5 
REMARK    2  A    between atoms: O2_5  and  C4_6 
REMARK    3  A    between atoms: C7_11  and  C8_12 
REMARK    4  A    between atoms: C8_12  and  O5_13 
REMARK    5  A    between atoms: C9_15  and  O6_16 
REMARK    6  A    between atoms: C9_15  and  C10_18 
REMARK    7  A    between atoms: C13_23  and  O9_24 
REMARK    8  A    between atoms: O9_24  and  C14_25 
REMARK    9  A    between atoms: C17_28  and  N1_29 
REMARK   10  A    between atoms: C19_36  and  O12_37 
ROOT
HETATM    1  C1  UNL     1      15.128  10.239   9.139  1.00  0.00     0.044 C 
HETATM    2  C2  UNL     1      15.240  10.001   7.654  1.00  0.00     0.175 C 
HETATM    3  O1  UNL     1      14.318  10.746   6.961  1.00  0.00    -0.346 OA
HETATM    4  C3  UNL     1      14.460  10.527   5.594  1.00  0.00     0.316 C 
HETATM    5  C13 UNL     1      14.259   9.076   5.231  1.00  0.00     0.321 C 
HETATM    6  O11 UNL     1      14.177   8.258   6.348  1.00  0.00    -0.324 OA
HETATM    7  C19 UNL     1      15.024   8.555   7.373  1.00  0.00     0.288 C 
ENDROOT
BRANCH   4   8
HETATM    8  O2  UNL     1      15.747  10.891   5.250  1.00  0.00    -0.348 OA
BRANCH   8   9
HETATM    9  C4  UNL     1      15.858  11.151   3.874  1.00  0.00     0.157 C 
HETATM   10  C5  UNL     1      15.174  12.431   3.544  1.00  0.00     0.203 C 
HETATM   11  O3  UNL     1      16.089  13.372   3.171  1.00  0.00    -0.358 OA
HETATM   12  C6  UNL     1      17.350  12.828   3.117  1.00  0.00     0.267 C 
HETATM   13  O4  UNL     1      17.912  13.165   1.903  1.00  0.00    -0.350 OA
HETATM   14  C12 UNL     1      17.290  11.403   3.456  1.00  0.00     0.075 C 
HETATM   15  C7  UNL     1      18.890  12.289   1.507  1.00  0.00     0.193 C 
HETATM   16  C9  UNL     1      18.151  11.001   1.115  1.00  0.00     0.174 C 
HETATM   17  C11 UNL     1      17.656  10.423   2.417  1.00  0.00     0.064 C 
BRANCH  15  18
HETATM   18  C8  UNL     1      19.750  12.793   0.404  1.00  0.00     0.199 C 
BRANCH  18  19
HETATM   19  O5  UNL     1      18.968  13.556  -0.448  1.00  0.00    -0.398 OA
ATOM     20  H5  UNL     1      18.204  13.854   0.031  1.00  0.00     0.209 HD
ENDBRANCH  18  19
ENDBRANCH  15  18
BRANCH  16  21
HETATM   21  O6  UNL     1      17.045  11.392   0.378  1.00  0.00    -0.376 OA
ATOM     22  H6  UNL     1      16.707  10.606  -0.036  1.00  0.00     0.211 HD
ENDBRANCH  16  21
BRANCH  16  23
HETATM   23  C10 UNL     1      19.015  10.064   0.400  1.00  0.00     0.211 C 
HETATM   24  O7  UNL     1      18.872   9.911  -0.838  1.00  0.00    -0.646 OA
HETATM   25  O8  UNL     1      19.997   9.332   1.041  1.00  0.00    -0.646 OA
ENDBRANCH  16  23
ENDBRANCH   8   9
ENDBRANCH   4   8
BRANCH   5  26
HETATM   26  O9  UNL     1      13.011   8.995   4.599  1.00  0.00    -0.326 OA
BRANCH  26  27
HETATM   27  C14 UNL     1      13.150   8.825   3.203  1.00  0.00     0.263 C 
HETATM   28  C15 UNL     1      12.625  10.074   2.482  1.00  0.00     0.063 C 
HETATM   29  C16 UNL     1      13.275  10.183   1.119  1.00  0.00     0.040 C 
HETATM   30  C17 UNL     1      13.705   8.773   0.723  1.00  0.00     0.207 C 
HETATM   31  C18 UNL     1      14.850   8.418   1.676  1.00  0.00     0.203 C 
HETATM   32  O10 UNL     1      14.519   8.690   2.979  1.00  0.00    -0.359 OA
BRANCH  30  33
HETATM   33  N1  UNL     1      14.162   8.792  -0.644  1.00  0.00    -0.073 N 
ATOM     34  H13 UNL     1      13.486   9.222  -1.275  1.00  0.00     0.274 HD
ATOM     35  H12 UNL     1      14.929   9.447  -0.790  1.00  0.00     0.274 HD
ATOM     36  H11 UNL     1      14.405   7.842  -0.924  1.00  0.00     0.274 HD
ENDBRANCH  30  33
ENDBRANCH  26  27
ENDBRANCH   5  26
BRANCH   7  37
HETATM   37  O12 UNL     1      16.256   7.913   7.195  1.00  0.00    -0.369 OA
ATOM     38  H12 UNL     1      16.136   7.116   6.691  1.00  0.00     0.212 HD
ENDBRANCH   7  37
TORSDOF 10
ENDMDL
MODEL 3
REMARK VINA RESULT: -8.786761121      2.725      5.112
REMARK  10 active torsions:
REMARK  status: ('A' for Active; 'I' for Inactive)
REMARK    1  A    between atoms: C3_4  and  O2_5 
REMARK    2  A    between atoms: O2_5  and  C4_6 
REMARK    3  A    between atoms: C7_11  and  C8_12 
REMARK    4  A    between atoms: C8_12  and  O5_13 
REMARK    5  A    between atoms: C9_15  and  O6_16 
REMARK    6  A    between atoms: C9_15  and  C10_18 
REMARK    7  A    between atoms: C13_23  and  O9_24 
REMARK    8  A    between atoms: O9_24  and  C14_25 
REMARK    9  A    between atoms: C17_28  and  N1_29 
REMARK   10  A    between atoms: C19_36  and  O12_37 
ROOT
HETATM    1  C1  UNL     1      13.643   9.106  -0.026  1.00  0.00     0.044 C 
HETATM    2  C2  UNL     1      13.834   9.683   1.354  1.00  0.00     0.175 C 
HETATM    3  O1  UNL     1      14.842   9.036   2.027  1.00  0.00    -0.346 OA
HETATM    4  C3  UNL     1      15.015   9.604   3.286  1.00  0.00     0.316 C 
HETATM    5  C13 UNL     1      13.760   9.518   4.120  1.00  0.00     0.321 C 
HETATM    6  O11 UNL     1      12.667   9.077   3.390  1.00  0.00    -0.324 OA
HETATM    7  C19 UNL     1      12.563   9.556   2.118  1.00  0.00     0.288 C 
ENDROOT
BRANCH   4   8
HETATM    8  O2  UNL     1      15.324  10.937   3.097  1.00  0.00    -0.348 OA
BRANCH   8   9
HETATM    9  C4  UNL     1      16.704  11.168   3.221  1.00  0.00     0.157 C 
HETATM   10  C5  UNL     1      17.260  10.328   4.317  1.00  0.00     0.203 C 
HETATM   11  O3  UNL     1      18.090   9.373   3.806  1.00  0.00    -0.358 OA
HETATM   12  C6  UNL     1      18.237   9.536   2.449  1.00  0.00     0.267 C 
HETATM   13  O4  UNL     1      19.586   9.517   2.158  1.00  0.00    -0.350 OA
HETATM   14  C12 UNL     1      17.471  10.702   2.003  1.00  0.00     0.075 C 
HETATM   15  C7  UNL     1      19.889  10.175   0.994  1.00  0.00     0.193 C 
HETATM   16  C9  UNL     1      19.700  11.667   1.306  1.00  0.00     0.174 C 
HETATM   17  C11 UNL     1      18.210  11.851   1.447  1.00  0.00     0.064 C 
BRANCH  15  18
HETATM   18  C8  UNL     1      21.249   9.886   0.466  1.00  0.00     0.199 C 
BRANCH  18  19
HETATM   19  O5  UNL     1      22.157  10.002   1.506  1.00  0.00    -0.398 OA
ATOM     20  H5  UNL     1      22.503   9.139   1.700  1.00  0.00     0.209 HD
ENDBRANCH  18  19
ENDBRANCH  15  18
BRANCH  16  21
HETATM   21  O6  UNL     1      20.272  11.883   2.550  1.00  0.00    -0.376 OA
ATOM     22  H6  UNL     1      20.809  12.662   2.467  1.00  0.00     0.211 HD
ENDBRANCH  16  21
BRANCH  16  23
HETATM   23  C10 UNL     1      20.257  12.525   0.263  1.00  0.00     0.211 C 
HETATM   24  O7  UNL     1      19.520  12.918  -0.675  1.00  0.00    -0.646 OA
HETATM   25  O8  UNL     1      21.579  12.928   0.270  1.00  0.00    -0.646 OA
ENDBRANCH  16  23
ENDBRANCH   8   9
ENDBRANCH   4   8
BRANCH   5  26
HETATM   26  O9  UNL     1      13.998   8.535   5.092  1.00  0.00    -0.326 OA
BRANCH  26  27
HETATM   27  C14 UNL     1      13.648   8.991   6.383  1.00  0.00     0.263 C 
HETATM   28  C15 UNL     1      14.166   7.998   7.432  1.00  0.00     0.063 C 
HETATM   29  C16 UNL     1      14.340   8.708   8.758  1.00  0.00     0.040 C 
HETATM   30  C17 UNL     1      13.402   9.911   8.739  1.00  0.00     0.207 C 
HETATM   31  C18 UNL     1      13.996  10.869   7.703  1.00  0.00     0.203 C 
HETATM   32  O10 UNL     1      14.294  10.217   6.533  1.00  0.00    -0.359 OA
BRANCH  30  33
HETATM   33  N1  UNL     1      13.391  10.515  10.049  1.00  0.00    -0.073 N 
ATOM     34  H13 UNL     1      14.312  10.513  10.486  1.00  0.00     0.274 HD
ATOM     35  H12 UNL     1      13.255  11.525  10.010  1.00  0.00     0.274 HD
ATOM     36  H11 UNL     1      12.688  10.050  10.621  1.00  0.00     0.274 HD
ENDBRANCH  30  33
ENDBRANCH  26  27
ENDBRANCH   5  26
BRANCH   7  37
HETATM   37  O12 UNL     1      11.874  10.775   2.106  1.00  0.00    -0.369 OA
ATOM     38  H12 UNL     1      11.125  10.718   1.524  1.00  0.00     0.212 HD
ENDBRANCH   7  37
TORSDOF 10
ENDMDL
MODEL 4
REMARK VINA RESULT: -8.683336976      2.359      4.820
REMARK  10 active torsions:
REMARK  status: ('A' for Active; 'I' for Inactive)
REMARK    1  A    between atoms: C3_4  and  O2_5 
REMARK    2  A    between atoms: O2_5  and  C4_6 
REMARK    3  A    between atoms: C7_11  and  C8_12 
REMARK    4  A    between atoms: C8_12  and  O5_13 
REMARK    5  A    between atoms: C9_15  and  O6_16 
REMARK    6  A    between atoms: C9_15  and  C10_18 
REMARK    7  A    between atoms: C13_23  and  O9_24 
REMARK    8  A    between atoms: O9_24  and  C14_25 
REMARK    9  A    between atoms: C17_28  and  N1_29 
REMARK   10  A    between atoms: C19_36  and  O12_37 
ROOT
HETATM    1  C1  UNL     1      14.338   9.952  -3.511  1.00  0.00     0.044 C 
HETATM    2  C2  UNL     1      14.635  10.443  -2.117  1.00  0.00     0.175 C 
HETATM    3  O1  UNL     1      15.597   9.670  -1.514  1.00  0.00    -0.346 OA
HETATM    4  C3  UNL     1      15.871  10.160  -0.240  1.00  0.00     0.316 C 
HETATM    5  C13 UNL     1      14.645  10.159   0.641  1.00  0.00     0.321 C 
HETATM    6  O11 UNL     1      13.488   9.861  -0.063  1.00  0.00    -0.324 OA
HETATM    7  C19 UNL     1      13.386  10.406  -1.308  1.00  0.00     0.288 C 
ENDROOT
BRANCH   4   8
HETATM    8  O2  UNL     1      16.305  11.463  -0.385  1.00  0.00    -0.348 OA
BRANCH   8   9
HETATM    9  C4  UNL     1      17.666  11.591  -0.064  1.00  0.00     0.157 C 
HETATM   10  C5  UNL     1      17.829  12.508   1.097  1.00  0.00     0.203 C 
HETATM   11  O3  UNL     1      18.269  11.816   2.188  1.00  0.00    -0.358 OA
HETATM   12  C6  UNL     1      18.522  10.505   1.860  1.00  0.00     0.267 C 
HETATM   13  O4  UNL     1      19.779  10.182   2.326  1.00  0.00    -0.350 OA
HETATM   14  C12 UNL     1      18.258  10.290   0.435  1.00  0.00     0.075 C 
HETATM   15  C7  UNL     1      20.352   9.143   1.637  1.00  0.00     0.193 C 
HETATM   16  C9  UNL     1      20.712   9.716   0.259  1.00  0.00     0.174 C 
HETATM   17  C11 UNL     1      19.390   9.925  -0.436  1.00  0.00     0.064 C 
BRANCH  15  18
HETATM   18  C8  UNL     1      21.530   8.538   2.313  1.00  0.00     0.199 C 
BRANCH  18  19
HETATM   19  O5  UNL     1      22.279   9.556   2.882  1.00  0.00    -0.398 OA
ATOM     20  H5  UNL     1      22.284   9.435   3.824  1.00  0.00     0.209 HD
ENDBRANCH  18  19
ENDBRANCH  15  18
BRANCH  16  21
HETATM   21  O6  UNL     1      21.271  10.964   0.487  1.00  0.00    -0.376 OA
ATOM     22  H6  UNL     1      21.031  11.506  -0.256  1.00  0.00     0.211 HD
ENDBRANCH  16  21
BRANCH  16  23
HETATM   23  C10 UNL     1      21.589   8.826  -0.499  1.00  0.00     0.211 C 
HETATM   24  O7  UNL     1      22.741   9.211  -0.815  1.00  0.00    -0.646 OA
HETATM   25  O8  UNL     1      21.194   7.558  -0.885  1.00  0.00    -0.646 OA
ENDBRANCH  16  23
ENDBRANCH   8   9
ENDBRANCH   4   8
BRANCH   5  26
HETATM   26  O9  UNL     1      14.819   9.114   1.559  1.00  0.00    -0.326 OA
BRANCH  26  27
HETATM   27  C14 UNL     1      14.795   9.588   2.890  1.00  0.00     0.263 C 
HETATM   28  C15 UNL     1      13.464   9.198   3.547  1.00  0.00     0.063 C 
HETATM   29  C16 UNL     1      13.637   9.150   5.051  1.00  0.00     0.040 C 
HETATM   30  C17 UNL     1      14.813  10.062   5.387  1.00  0.00     0.207 C 
HETATM   31  C18 UNL     1      16.048   9.349   4.829  1.00  0.00     0.203 C 
HETATM   32  O10 UNL     1      15.848   8.941   3.535  1.00  0.00    -0.359 OA
BRANCH  30  33
HETATM   33  N1  UNL     1      14.903  10.199   6.820  1.00  0.00    -0.073 N 
ATOM     34  H13 UNL     1      15.752   9.780   7.198  1.00  0.00     0.274 HD
ATOM     35  H12 UNL     1      15.079  11.161   7.109  1.00  0.00     0.274 HD
ATOM     36  H11 UNL     1      14.058   9.815   7.242  1.00  0.00     0.274 HD
ENDBRANCH  30  33
ENDBRANCH  26  27
ENDBRANCH   5  26
BRANCH   7  37
HETATM   37  O12 UNL     1      12.822  11.686  -1.241  1.00  0.00    -0.369 OA
ATOM     38  H12 UNL     1      11.885  11.620  -1.099  1.00  0.00     0.212 HD
ENDBRANCH   7  37
TORSDOF 10
ENDMDL
MODEL 5
REMARK VINA RESULT: -8.610533622      1.622      2.446
REMARK  10 active torsions:
REMARK  status: ('A' for Active; 'I' for Inactive)
REMARK    1  A    between atoms: C3_4  and  O2_5 
REMARK    2  A    between atoms: O2_5  and  C4_6 
REMARK    3  A    between atoms: C7_11  and  C8_12 
REMARK    4  A    between atoms: C8_12  and  O5_13 
REMARK    5  A    between atoms: C9_15  and  O6_16 
REMARK    6  A    between atoms: C9_15  and  C10_18 
REMARK    7  A    between atoms: C13_23  and  O9_24 
REMARK    8  A    between atoms: O9_24  and  C14_25 
REMARK    9  A    between atoms: C17_28  and  N1_29 
REMARK   10  A    between atoms: C19_36  and  O12_37 
ROOT
HETATM    1  C1  UNL     1      13.097   9.053   4.509  1.00  0.00     0.044 C 
HETATM    2  C2  UNL     1      13.762   9.165   3.160  1.00  0.00     0.175 C 
HETATM    3  O1  UNL     1      14.077  10.469   2.868  1.00  0.00    -0.346 OA
HETATM    4  C3  UNL     1      14.712  10.541   1.632  1.00  0.00     0.316 C 
HETATM    5  C13 UNL     1      13.843  10.006   0.520  1.00  0.00     0.321 C 
HETATM    6  O11 UNL     1      12.697   9.387   0.995  1.00  0.00    -0.324 OA
HETATM    7  C19 UNL     1      12.846   8.629   2.117  1.00  0.00     0.288 C 
ENDROOT
BRANCH   4   8
HETATM    8  O2  UNL     1      15.852   9.763   1.709  1.00  0.00    -0.348 OA
BRANCH   8   9
HETATM    9  C4  UNL     1      16.985  10.466   1.268  1.00  0.00     0.157 C 
HETATM   10  C5  UNL     1      16.859  11.905   1.627  1.00  0.00     0.203 C 
HETATM   11  O3  UNL     1      17.782  12.237   2.576  1.00  0.00    -0.358 OA
HETATM   12  C6  UNL     1      18.610  11.172   2.840  1.00  0.00     0.267 C 
HETATM   13  O4  UNL     1      19.914  11.614   2.771  1.00  0.00    -0.350 OA
HETATM   14  C12 UNL     1      18.240  10.034   1.993  1.00  0.00     0.075 C 
HETATM   15  C7  UNL     1      20.804  10.609   2.488  1.00  0.00     0.193 C 
HETATM   16  C9  UNL     1      20.560  10.250   1.015  1.00  0.00     0.174 C 
HETATM   17  C11 UNL     1      19.219   9.561   0.997  1.00  0.00     0.064 C 
BRANCH  15  18
HETATM   18  C8  UNL     1      22.225  10.961   2.746  1.00  0.00     0.199 C 
BRANCH  18  19
HETATM   19  O5  UNL     1      22.827   9.901   3.405  1.00  0.00    -0.398 OA
ATOM     20  H5  UNL     1      23.078  10.191   4.274  1.00  0.00     0.209 HD
ENDBRANCH  18  19
ENDBRANCH  15  18
BRANCH  16  21
HETATM   21  O6  UNL     1      20.427  11.450   0.336  1.00  0.00    -0.376 OA
ATOM     22  H6  UNL     1      21.239  11.580  -0.142  1.00  0.00     0.211 HD
ENDBRANCH  16  21
BRANCH  16  23
HETATM   23  C10 UNL     1      21.615   9.397   0.472  1.00  0.00     0.211 C 
HETATM   24  O7  UNL     1      22.345   9.829  -0.454  1.00  0.00    -0.646 OA
HETATM   25  O8  UNL     1      21.845   8.119   0.945  1.00  0.00    -0.646 OA
ENDBRANCH  16  23
ENDBRANCH   8   9
ENDBRANCH   4   8
BRANCH   5  26
HETATM   26  O9  UNL     1      13.407  11.121  -0.211  1.00  0.00    -0.326 OA
BRANCH  26  27
HETATM   27  C14 UNL     1      13.704  10.985  -1.585  1.00  0.00     0.263 C 
HETATM   28  C15 UNL     1      15.178  11.337  -1.825  1.00  0.00     0.063 C 
HETATM   29  C16 UNL     1      15.662  10.659  -3.090  1.00  0.00     0.040 C 
HETATM   30  C17 UNL     1      14.429  10.406  -3.952  1.00  0.00     0.207 C 
HETATM   31  C18 UNL     1      13.633   9.329  -3.211  1.00  0.00     0.203 C 
HETATM   32  O10 UNL     1      13.485   9.641  -1.883  1.00  0.00    -0.359 OA
BRANCH  30  33
HETATM   33  N1  UNL     1      14.853   9.931  -5.246  1.00  0.00    -0.073 N 
ATOM     34  H13 UNL     1      15.867   9.853  -5.318  1.00  0.00     0.274 HD
ATOM     35  H12 UNL     1      14.624   8.949  -5.395  1.00  0.00     0.274 HD
ATOM     36  H11 UNL     1      14.457  10.535  -5.966  1.00  0.00     0.274 HD
ENDBRANCH  30  33
ENDBRANCH  26  27
ENDBRANCH   5  26
BRANCH   7  37
HETATM   37  O12 UNL     1      13.217   7.321   1.781  1.00  0.00    -0.369 OA
ATOM     38  H12 UNL     1      12.483   6.868   1.382  1.00  0.00     0.212 HD
ENDBRANCH   7  37
TORSDOF 10
ENDMDL
