MODEL 1
REMARK VINA RESULT: -7.673237532      0.000      0.000
REMARK  13 active torsions:
REMARK  status: ('A' for Active; 'I' for Inactive)
REMARK    1  A    between atoms: N2_5  and  C4_6 
REMARK    2  A    between atoms: C5_9  and  N4_10 
REMARK    3  A    between atoms: N4_10  and  C6_11 
REMARK    4  A    between atoms: N4_10  and  C8_15 
REMARK    5  A    between atoms: C6_11  and  C7_12 
REMARK    6  A    between atoms: C7_12  and  O1_13 
REMARK    7  A    between atoms: C8_15  and  C9_16 
REMARK    8  A    between atoms: C9_16  and  O2_17 
REMARK    9  A    between atoms: C12_22  and  C13_23 
REMARK   10  A    between atoms: C13_23  and  O4_24 
REMARK   11  A    between atoms: N5_26  and  O5_28 
REMARK   12  A    between atoms: N6_30  and  C14_31 
REMARK   13  A    between atoms: C14_31  and  O6_32 
ROOT
HETATM    1  C4  UNL     1      17.118   9.098   4.653  1.00  0.00     0.683 A 
HETATM    2  N3  UNL     1      18.255   8.460   4.952  1.00  0.00    -0.175 N 
ATOM      3  H3  UNL     1      18.305   7.948   5.832  1.00  0.00     0.186 HD
HETATM    4  C5  UNL     1      19.355   8.460   4.137  1.00  0.00     0.141 A 
HETATM    5  C10 UNL     1      19.338   9.125   2.969  1.00  0.00     0.107 A 
HETATM    6  C11 UNL     1      20.389   9.193   2.107  1.00  0.00     0.222 A 
HETATM    7  O3  UNL     1      21.473   8.605   2.372  1.00  0.00    -0.285 OA
HETATM    8  C12 UNL     1      20.283   9.924   0.911  1.00  0.00     0.157 A 
HETATM    9  N6  UNL     1      19.134  10.552   0.638  1.00  0.00    -0.257 N 
HETATM   10  N7  UNL     1      18.101  10.477   1.497  1.00  0.00    -0.275 N 
HETATM   11  C15 UNL     1      16.841  11.154   1.195  1.00  0.00     0.180 C 
HETATM   12  C16 UNL     1      18.147   9.798   2.644  1.00  0.00     0.155 A 
HETATM   13  N8  UNL     1      17.083   9.764   3.488  1.00  0.00    -0.174 N 
ATOM     14  H8  UNL     1      16.231  10.260   3.229  1.00  0.00     0.186 HD
ENDROOT
BRANCH   4  15
HETATM   15  N4  UNL     1      20.506   7.662   4.541  1.00  0.00    -0.342 N 
BRANCH  15  16
HETATM   16  C6  UNL     1      20.550   6.381   3.903  1.00  0.00     0.155 C 
BRANCH  16  17
HETATM   17  C7  UNL     1      19.598   5.330   4.339  1.00  0.00     0.184 C 
BRANCH  17  18
HETATM   18  O1  UNL     1      19.084   5.332   5.578  1.00  0.00    -0.399 OA
ATOM     19  H1  UNL     1      18.709   4.545   5.954  1.00  0.00     0.209 HD
ENDBRANCH  17  18
ENDBRANCH  16  17
ENDBRANCH  15  16
BRANCH  15  20
HETATM   20  C8  UNL     1      21.330   8.256   5.516  1.00  0.00     0.091 C 
BRANCH  20  21
HETATM   21  C9  UNL     1      22.790   8.045   5.546  1.00  0.00     0.208 C 
BRANCH  21  22
HETATM   22  O2  UNL     1      23.444   8.572   4.407  1.00  0.00    -0.396 OA
ATOM     23  H2  UNL     1      24.230   8.091   4.178  1.00  0.00     0.209 HD
ENDBRANCH  21  22
ENDBRANCH  20  21
ENDBRANCH  15  20
ENDBRANCH   4  15
BRANCH   1  24
HETATM   24  N2  UNL     1      15.979   9.082   5.523  1.00  0.00    -0.214 N 
HETATM   25  C3  UNL     1      16.189   8.764   6.940  1.00  0.00     0.171 C 
HETATM   26  C2  UNL     1      15.432   9.869   7.687  1.00  0.00     0.292 C 
HETATM   27  N1  UNL     1      14.012   9.623   7.480  1.00  0.00     0.087 N 
HETATM   28  C1  UNL     1      13.546   8.872   8.624  1.00  0.00     0.310 C 
HETATM   29  C18 UNL     1      13.740   8.897   6.260  1.00  0.00     0.292 C 
HETATM   30  C17 UNL     1      14.638   9.353   5.122  1.00  0.00     0.171 C 
ENDBRANCH   1  24
BRANCH   8  31
HETATM   31  C13 UNL     1      21.439   9.905   0.056  1.00  0.00     0.193 C 
HETATM   32  N5  UNL     1      21.578   8.982  -0.830  1.00  0.00    -0.245 N 
ATOM     33  H5  UNL     1      20.867   8.258  -0.927  1.00  0.00     0.196 HD
BRANCH  31  34
HETATM   34  O4  UNL     1      22.428  10.844   0.128  1.00  0.00    -0.343 OA
ATOM     35  H4  UNL     1      22.934  11.119  -0.628  1.00  0.00     0.219 HD
ENDBRANCH  31  34
BRANCH  32  36
HETATM   36  O5  UNL     1      22.669   8.971  -1.633  1.00  0.00    -0.288 OA
ATOM     37  H5  UNL     1      22.876   8.197  -2.144  1.00  0.00     0.244 HD
ENDBRANCH  32  36
ENDBRANCH   8  31
BRANCH   9  38
HETATM   38  C14 UNL     1      18.970  11.377  -0.565  1.00  0.00     0.314 C 
BRANCH  38  39
HETATM   39  O6  UNL     1      19.755  12.518  -0.536  1.00  0.00    -0.380 OA
ATOM     40  H6  UNL     1      19.240  13.316  -0.581  1.00  0.00     0.211 HD
ENDBRANCH  38  39
ENDBRANCH   9  38
TORSDOF 13
ENDMDL
MODEL 2
REMARK VINA RESULT: -7.655243696      0.103      1.876
REMARK  13 active torsions:
REMARK  status: ('A' for Active; 'I' for Inactive)
REMARK    1  A    between atoms: N2_5  and  C4_6 
REMARK    2  A    between atoms: C5_9  and  N4_10 
REMARK    3  A    between atoms: N4_10  and  C6_11 
REMARK    4  A    between atoms: N4_10  and  C8_15 
REMARK    5  A    between atoms: C6_11  and  C7_12 
REMARK    6  A    between atoms: C7_12  and  O1_13 
REMARK    7  A    between atoms: C8_15  and  C9_16 
REMARK    8  A    between atoms: C9_16  and  O2_17 
REMARK    9  A    between atoms: C12_22  and  C13_23 
REMARK   10  A    between atoms: C13_23  and  O4_24 
REMARK   11  A    between atoms: N5_26  and  O5_28 
REMARK   12  A    between atoms: N6_30  and  C14_31 
REMARK   13  A    between atoms: C14_31  and  O6_32 
ROOT
HETATM    1  C4  UNL     1      17.069   9.073   4.698  1.00  0.00     0.683 A 
HETATM    2  N3  UNL     1      18.197   8.416   4.990  1.00  0.00    -0.175 N 
ATOM      3  H3  UNL     1      18.240   7.895   5.866  1.00  0.00     0.186 HD
HETATM    4  C5  UNL     1      19.296   8.406   4.174  1.00  0.00     0.141 A 
HETATM    5  C10 UNL     1      19.287   9.081   3.011  1.00  0.00     0.107 A 
HETATM    6  C11 UNL     1      20.338   9.141   2.149  1.00  0.00     0.222 A 
HETATM    7  O3  UNL     1      21.414   8.534   2.407  1.00  0.00    -0.285 OA
HETATM    8  C12 UNL     1      20.241   9.883   0.959  1.00  0.00     0.157 A 
HETATM    9  N6  UNL     1      19.101  10.531   0.693  1.00  0.00    -0.257 N 
HETATM   10  N7  UNL     1      18.068  10.464   1.553  1.00  0.00    -0.275 N 
HETATM   11  C15 UNL     1      16.818  11.162   1.258  1.00  0.00     0.180 C 
HETATM   12  C16 UNL     1      18.106   9.775   2.694  1.00  0.00     0.155 A 
HETATM   13  N8  UNL     1      17.043   9.749   3.540  1.00  0.00    -0.174 N 
ATOM     14  H8  UNL     1      16.198  10.260   3.285  1.00  0.00     0.186 HD
ENDROOT
BRANCH   4  15
HETATM   15  N4  UNL     1      20.436   7.588   4.570  1.00  0.00    -0.342 N 
BRANCH  15  16
HETATM   16  C6  UNL     1      21.314   8.255   5.483  1.00  0.00     0.155 C 
BRANCH  16  17
HETATM   17  C7  UNL     1      22.757   7.912   5.470  1.00  0.00     0.184 C 
BRANCH  17  18
HETATM   18  O1  UNL     1      23.535   8.233   4.426  1.00  0.00    -0.399 OA
ATOM     19  H1  UNL     1      24.436   8.507   4.552  1.00  0.00     0.209 HD
ENDBRANCH  17  18
ENDBRANCH  16  17
ENDBRANCH  15  16
BRANCH  15  20
HETATM   20  C8  UNL     1      20.505   6.326   3.951  1.00  0.00     0.091 C 
BRANCH  20  21
HETATM   21  C9  UNL     1      19.528   5.257   4.232  1.00  0.00     0.208 C 
BRANCH  21  22
HETATM   22  O2  UNL     1      19.079   5.264   5.575  1.00  0.00    -0.396 OA
ATOM     23  H2  UNL     1      18.433   4.589   5.750  1.00  0.00     0.209 HD
ENDBRANCH  21  22
ENDBRANCH  20  21
ENDBRANCH  15  20
ENDBRANCH   4  15
BRANCH   1  24
HETATM   24  N2  UNL     1      15.931   9.067   5.571  1.00  0.00    -0.214 N 
HETATM   25  C3  UNL     1      16.140   8.746   6.987  1.00  0.00     0.171 C 
HETATM   26  C2  UNL     1      15.394   9.858   7.735  1.00  0.00     0.292 C 
HETATM   27  N1  UNL     1      13.972   9.624   7.530  1.00  0.00     0.087 N 
HETATM   28  C1  UNL     1      13.501   8.876   8.675  1.00  0.00     0.310 C 
HETATM   29  C18 UNL     1      13.692   8.901   6.310  1.00  0.00     0.292 C 
HETATM   30  C17 UNL     1      14.592   9.349   5.171  1.00  0.00     0.171 C 
ENDBRANCH   1  24
BRANCH   8  31
HETATM   31  C13 UNL     1      21.395   9.855   0.102  1.00  0.00     0.193 C 
HETATM   32  N5  UNL     1      21.522   8.934  -0.788  1.00  0.00    -0.245 N 
ATOM     33  H5  UNL     1      20.802   8.218  -0.887  1.00  0.00     0.196 HD
BRANCH  31  34
HETATM   34  O4  UNL     1      22.396  10.781   0.177  1.00  0.00    -0.343 OA
ATOM     35  H4  UNL     1      23.069  10.867  -0.488  1.00  0.00     0.219 HD
ENDBRANCH  31  34
BRANCH  32  36
HETATM   36  O5  UNL     1      22.612   8.913  -1.593  1.00  0.00    -0.288 OA
ATOM     37  H5  UNL     1      23.330   8.319  -1.407  1.00  0.00     0.244 HD
ENDBRANCH  32  36
ENDBRANCH   8  31
BRANCH   9  38
HETATM   38  C14 UNL     1      18.948  11.368  -0.503  1.00  0.00     0.314 C 
BRANCH  38  39
HETATM   39  O6  UNL     1      19.756  12.493  -0.470  1.00  0.00    -0.380 OA
ATOM     40  H6  UNL     1      19.403  13.210  -0.984  1.00  0.00     0.211 HD
ENDBRANCH  38  39
ENDBRANCH   9  38
TORSDOF 13
ENDMDL
MODEL 3
REMARK VINA RESULT: -7.433133442      1.291      1.527
REMARK  13 active torsions:
REMARK  status: ('A' for Active; 'I' for Inactive)
REMARK    1  A    between atoms: N2_5  and  C4_6 
REMARK    2  A    between atoms: C5_9  and  N4_10 
REMARK    3  A    between atoms: N4_10  and  C6_11 
REMARK    4  A    between atoms: N4_10  and  C8_15 
REMARK    5  A    between atoms: C6_11  and  C7_12 
REMARK    6  A    between atoms: C7_12  and  O1_13 
REMARK    7  A    between atoms: C8_15  and  C9_16 
REMARK    8  A    between atoms: C9_16  and  O2_17 
REMARK    9  A    between atoms: C12_22  and  C13_23 
REMARK   10  A    between atoms: C13_23  and  O4_24 
REMARK   11  A    between atoms: N5_26  and  O5_28 
REMARK   12  A    between atoms: N6_30  and  C14_31 
REMARK   13  A    between atoms: C14_31  and  O6_32 
ROOT
HETATM    1  C4  UNL     1      16.847   9.057   5.761  1.00  0.00     0.683 A 
HETATM    2  N3  UNL     1      17.982   8.351   5.812  1.00  0.00    -0.175 N 
ATOM      3  H3  UNL     1      18.155   7.772   6.634  1.00  0.00     0.186 HD
HETATM    4  C5  UNL     1      18.923   8.364   4.818  1.00  0.00     0.141 A 
HETATM    5  C10 UNL     1      18.741   9.114   3.717  1.00  0.00     0.107 A 
HETATM    6  C11 UNL     1      19.630   9.201   2.690  1.00  0.00     0.222 A 
HETATM    7  O3  UNL     1      20.709   8.549   2.720  1.00  0.00    -0.285 OA
HETATM    8  C12 UNL     1      19.358  10.022   1.582  1.00  0.00     0.157 A 
HETATM    9  N6  UNL     1      18.215  10.717   1.558  1.00  0.00    -0.257 N 
HETATM   10  N7  UNL     1      17.344  10.623   2.579  1.00  0.00    -0.275 N 
HETATM   11  C15 UNL     1      16.090  11.373   2.548  1.00  0.00     0.180 C 
HETATM   12  C16 UNL     1      17.551   9.859   3.652  1.00  0.00     0.155 A 
HETATM   13  N8  UNL     1      16.648   9.808   4.667  1.00  0.00    -0.174 N 
ATOM     14  H8  UNL     1      15.793  10.357   4.594  1.00  0.00     0.186 HD
ENDROOT
BRANCH   4  15
HETATM   15  N4  UNL     1      20.082   7.490   4.960  1.00  0.00    -0.342 N 
BRANCH  15  16
HETATM   16  C6  UNL     1      19.810   6.136   4.584  1.00  0.00     0.155 C 
BRANCH  16  17
HETATM   17  C7  UNL     1      20.813   5.400   3.776  1.00  0.00     0.184 C 
BRANCH  17  18
HETATM   18  O1  UNL     1      21.265   5.896   2.616  1.00  0.00    -0.399 OA
ATOM     19  H1  UNL     1      21.841   5.389   2.056  1.00  0.00     0.209 HD
ENDBRANCH  17  18
ENDBRANCH  16  17
ENDBRANCH  15  16
BRANCH  15  20
HETATM   20  C8  UNL     1      21.231   8.107   5.488  1.00  0.00     0.091 C 
BRANCH  20  21
HETATM   21  C9  UNL     1      22.579   7.530   5.322  1.00  0.00     0.208 C 
BRANCH  21  22
HETATM   22  O2  UNL     1      23.175   7.877   4.085  1.00  0.00    -0.396 OA
ATOM     23  H2  UNL     1      22.621   8.436   3.554  1.00  0.00     0.209 HD
ENDBRANCH  21  22
ENDBRANCH  20  21
ENDBRANCH  15  20
ENDBRANCH   4  15
BRANCH   1  24
HETATM   24  N2  UNL     1      15.876   9.024   6.815  1.00  0.00    -0.214 N 
HETATM   25  C3  UNL     1      15.072  10.226   7.060  1.00  0.00     0.171 C 
HETATM   26  C2  UNL     1      13.632   9.702   7.136  1.00  0.00     0.292 C 
HETATM   27  N1  UNL     1      13.521   8.948   8.376  1.00  0.00     0.087 N 
HETATM   28  C1  UNL     1      12.983   9.853   9.369  1.00  0.00     0.310 C 
HETATM   29  C18 UNL     1      14.787   8.413   8.822  1.00  0.00     0.292 C 
HETATM   30  C17 UNL     1      15.624   7.904   7.660  1.00  0.00     0.171 C 
ENDBRANCH   1  24
BRANCH   8  31
HETATM   31  C13 UNL     1      20.346  10.018   0.537  1.00  0.00     0.193 C 
HETATM   32  N5  UNL     1      20.542   8.961  -0.169  1.00  0.00    -0.245 N 
ATOM     33  H5  UNL     1      19.995   8.119   0.011  1.00  0.00     0.196 HD
BRANCH  31  34
HETATM   34  O4  UNL     1      21.112  11.109   0.239  1.00  0.00    -0.343 OA
ATOM     35  H4  UNL     1      21.653  11.550   0.883  1.00  0.00     0.219 HD
ENDBRANCH  31  34
BRANCH  32  36
HETATM   36  O5  UNL     1      21.474   8.964  -1.153  1.00  0.00    -0.288 OA
ATOM     37  H5  UNL     1      21.639   8.175  -1.655  1.00  0.00     0.244 HD
ENDBRANCH  32  36
ENDBRANCH   8  31
BRANCH   9  38
HETATM   38  C14 UNL     1      17.892  11.635   0.459  1.00  0.00     0.314 C 
BRANCH  38  39
HETATM   39  O6  UNL     1      18.536  12.856   0.580  1.00  0.00    -0.380 OA
ATOM     40  H6  UNL     1      18.494  13.204   1.463  1.00  0.00     0.211 HD
ENDBRANCH  38  39
ENDBRANCH   9  38
TORSDOF 13
ENDMDL
MODEL 4
REMARK VINA RESULT: -7.423820639      1.029      2.301
REMARK  13 active torsions:
REMARK  status: ('A' for Active; 'I' for Inactive)
REMARK    1  A    between atoms: N2_5  and  C4_6 
REMARK    2  A    between atoms: C5_9  and  N4_10 
REMARK    3  A    between atoms: N4_10  and  C6_11 
REMARK    4  A    between atoms: N4_10  and  C8_15 
REMARK    5  A    between atoms: C6_11  and  C7_12 
REMARK    6  A    between atoms: C7_12  and  O1_13 
REMARK    7  A    between atoms: C8_15  and  C9_16 
REMARK    8  A    between atoms: C9_16  and  O2_17 
REMARK    9  A    between atoms: C12_22  and  C13_23 
REMARK   10  A    between atoms: C13_23  and  O4_24 
REMARK   11  A    between atoms: N5_26  and  O5_28 
REMARK   12  A    between atoms: N6_30  and  C14_31 
REMARK   13  A    between atoms: C14_31  and  O6_32 
ROOT
HETATM    1  C4  UNL     1      16.905   8.972   5.670  1.00  0.00     0.683 A 
HETATM    2  N3  UNL     1      18.102   8.384   5.774  1.00  0.00    -0.175 N 
ATOM      3  H3  UNL     1      18.326   7.894   6.640  1.00  0.00     0.186 HD
HETATM    4  C5  UNL     1      19.041   8.407   4.779  1.00  0.00     0.141 A 
HETATM    5  C10 UNL     1      18.792   9.043   3.621  1.00  0.00     0.107 A 
HETATM    6  C11 UNL     1      19.672   9.132   2.586  1.00  0.00     0.222 A 
HETATM    7  O3  UNL     1      20.808   8.591   2.665  1.00  0.00    -0.285 OA
HETATM    8  C12 UNL     1      19.327   9.830   1.416  1.00  0.00     0.157 A 
HETATM    9  N6  UNL     1      18.122  10.408   1.341  1.00  0.00    -0.257 N 
HETATM   10  N7  UNL     1      17.260  10.314   2.369  1.00  0.00    -0.275 N 
HETATM   11  C15 UNL     1      15.941  10.936   2.283  1.00  0.00     0.180 C 
HETATM   12  C16 UNL     1      17.536   9.664   3.501  1.00  0.00     0.155 A 
HETATM   13  N8  UNL     1      16.639   9.609   4.520  1.00  0.00    -0.174 N 
ATOM     14  H8  UNL     1      15.735  10.066   4.407  1.00  0.00     0.186 HD
ENDROOT
BRANCH   4  15
HETATM   15  N4  UNL     1      20.277   7.662   4.986  1.00  0.00    -0.342 N 
BRANCH  15  16
HETATM   16  C6  UNL     1      21.185   8.321   5.875  1.00  0.00     0.155 C 
BRANCH  16  17
HETATM   17  C7  UNL     1      22.642   8.229   5.611  1.00  0.00     0.184 C 
BRANCH  17  18
HETATM   18  O1  UNL     1      23.169   8.697   4.471  1.00  0.00    -0.399 OA
ATOM     19  H1  UNL     1      23.431   9.607   4.388  1.00  0.00     0.209 HD
ENDBRANCH  17  18
ENDBRANCH  16  17
ENDBRANCH  15  16
BRANCH  15  20
HETATM   20  C8  UNL     1      20.387   6.472   4.242  1.00  0.00     0.091 C 
BRANCH  20  21
HETATM   21  C9  UNL     1      19.369   5.407   4.309  1.00  0.00     0.208 C 
BRANCH  21  22
HETATM   22  O2  UNL     1      19.018   5.065   5.637  1.00  0.00    -0.396 OA
ATOM     23  H2  UNL     1      18.191   5.446   5.909  1.00  0.00     0.209 HD
ENDBRANCH  21  22
ENDBRANCH  20  21
ENDBRANCH  15  20
ENDBRANCH   4  15
BRANCH   1  24
HETATM   24  N2  UNL     1      15.938   8.932   6.728  1.00  0.00    -0.214 N 
HETATM   25  C3  UNL     1      15.069  10.099   6.923  1.00  0.00     0.171 C 
HETATM   26  C2  UNL     1      13.660   9.501   7.026  1.00  0.00     0.292 C 
HETATM   27  N1  UNL     1      13.591   8.797   8.298  1.00  0.00     0.087 N 
HETATM   28  C1  UNL     1      13.006   9.713   9.252  1.00  0.00     0.310 C 
HETATM   29  C18 UNL     1      14.885   8.350   8.763  1.00  0.00     0.292 C 
HETATM   30  C17 UNL     1      15.747   7.837   7.622  1.00  0.00     0.171 C 
ENDBRANCH   1  24
BRANCH   8  31
HETATM   31  C13 UNL     1      20.314   9.836   0.371  1.00  0.00     0.193 C 
HETATM   32  N5  UNL     1      20.648   8.740  -0.215  1.00  0.00    -0.245 N 
ATOM     33  H5  UNL     1      20.211   7.861   0.062  1.00  0.00     0.196 HD
BRANCH  31  34
HETATM   34  O4  UNL     1      20.937  10.975  -0.053  1.00  0.00    -0.343 OA
ATOM     35  H4  UNL     1      21.384  11.037  -0.888  1.00  0.00     0.219 HD
ENDBRANCH  31  34
BRANCH  32  36
HETATM   36  O5  UNL     1      21.578   8.753  -1.200  1.00  0.00    -0.288 OA
ATOM     37  H5  UNL     1      22.287   8.120  -1.193  1.00  0.00     0.244 HD
ENDBRANCH  32  36
ENDBRANCH   8  31
BRANCH   9  38
HETATM   38  C14 UNL     1      17.716  11.199   0.172  1.00  0.00     0.314 C 
BRANCH  38  39
HETATM   39  O6  UNL     1      18.206  12.494   0.211  1.00  0.00    -0.380 OA
ATOM     40  H6  UNL     1      17.515  13.142   0.286  1.00  0.00     0.211 HD
ENDBRANCH  38  39
ENDBRANCH   9  38
TORSDOF 13
ENDMDL
MODEL 5
REMARK VINA RESULT: -7.343546532      3.537      7.472
REMARK  13 active torsions:
REMARK  status: ('A' for Active; 'I' for Inactive)
REMARK    1  A    between atoms: N2_5  and  C4_6 
REMARK    2  A    between atoms: C5_9  and  N4_10 
REMARK    3  A    between atoms: N4_10  and  C6_11 
REMARK    4  A    between atoms: N4_10  and  C8_15 
REMARK    5  A    between atoms: C6_11  and  C7_12 
REMARK    6  A    between atoms: C7_12  and  O1_13 
REMARK    7  A    between atoms: C8_15  and  C9_16 
REMARK    8  A    between atoms: C9_16  and  O2_17 
REMARK    9  A    between atoms: C12_22  and  C13_23 
REMARK   10  A    between atoms: C13_23  and  O4_24 
REMARK   11  A    between atoms: N5_26  and  O5_28 
REMARK   12  A    between atoms: N6_30  and  C14_31 
REMARK   13  A    between atoms: C14_31  and  O6_32 
ROOT
HETATM    1  C4  UNL     1      15.725   9.867  -0.071  1.00  0.00     0.683 A 
HETATM    2  N3  UNL     1      16.988  10.111   0.296  1.00  0.00    -0.175 N 
ATOM      3  H3  UNL     1      17.664  10.354  -0.428  1.00  0.00     0.186 HD
HETATM    4  C5  UNL     1      17.420  10.051   1.594  1.00  0.00     0.141 A 
HETATM    5  C10 UNL     1      16.567   9.731   2.582  1.00  0.00     0.107 A 
HETATM    6  C11 UNL     1      16.912   9.631   3.895  1.00  0.00     0.222 A 
HETATM    7  O3  UNL     1      18.098   9.850   4.263  1.00  0.00    -0.285 OA
HETATM    8  C12 UNL     1      15.952   9.278   4.859  1.00  0.00     0.157 A 
HETATM    9  N6  UNL     1      14.697   9.039   4.462  1.00  0.00    -0.257 N 
HETATM   10  N7  UNL     1      14.366   9.142   3.162  1.00  0.00    -0.275 N 
HETATM   11  C15 UNL     1      12.993   8.892   2.730  1.00  0.00     0.180 C 
HETATM   12  C16 UNL     1      15.236   9.473   2.207  1.00  0.00     0.155 A 
HETATM   13  N8  UNL     1      14.860   9.549   0.904  1.00  0.00    -0.174 N 
ATOM     14  H8  UNL     1      13.889   9.358   0.659  1.00  0.00     0.186 HD
ENDROOT
BRANCH   4  15
HETATM   15  N4  UNL     1      18.804  10.415   1.872  1.00  0.00    -0.342 N 
BRANCH  15  16
HETATM   16  C6  UNL     1      18.995  11.827   2.008  1.00  0.00     0.155 C 
BRANCH  16  17
HETATM   17  C7  UNL     1      19.033  12.666   0.784  1.00  0.00     0.184 C 
BRANCH  17  18
HETATM   18  O1  UNL     1      19.860  12.374  -0.230  1.00  0.00    -0.399 OA
ATOM     19  H1  UNL     1      19.959  12.964  -0.967  1.00  0.00     0.209 HD
ENDBRANCH  17  18
ENDBRANCH  16  17
ENDBRANCH  15  16
BRANCH  15  20
HETATM   20  C8  UNL     1      19.708   9.336   1.902  1.00  0.00     0.091 C 
BRANCH  20  21
HETATM   21  C9  UNL     1      20.594   9.022   0.764  1.00  0.00     0.208 C 
BRANCH  21  22
HETATM   22  O2  UNL     1      19.881   8.768  -0.432  1.00  0.00    -0.396 OA
ATOM     23  H2  UNL     1      20.450   8.673  -1.187  1.00  0.00     0.209 HD
ENDBRANCH  21  22
ENDBRANCH  20  21
ENDBRANCH  15  20
ENDBRANCH   4  15
BRANCH   1  24
HETATM   24  N2  UNL     1      15.298   9.937  -1.438  1.00  0.00    -0.214 N 
HETATM   25  C3  UNL     1      14.300   8.969  -1.907  1.00  0.00     0.171 C 
HETATM   26  C2  UNL     1      13.257   9.831  -2.630  1.00  0.00     0.292 C 
HETATM   27  N1  UNL     1      13.880  10.312  -3.854  1.00  0.00     0.087 N 
HETATM   28  C1  UNL     1      13.495   9.399  -4.908  1.00  0.00     0.310 C 
HETATM   29  C18 UNL     1      15.321  10.386  -3.759  1.00  0.00     0.292 C 
HETATM   30  C17 UNL     1      15.769  10.883  -2.394  1.00  0.00     0.171 C 
ENDBRANCH   1  24
BRANCH   8  31
HETATM   31  C13 UNL     1      16.412   9.232   6.220  1.00  0.00     0.193 C 
HETATM   32  N5  UNL     1      15.797   9.891   7.138  1.00  0.00    -0.245 N 
ATOM     33  H5  UNL     1      14.977  10.451   6.901  1.00  0.00     0.196 HD
BRANCH  31  34
HETATM   34  O4  UNL     1      17.499   8.502   6.610  1.00  0.00    -0.343 OA
ATOM     35  H4  UNL     1      18.372   8.872   6.673  1.00  0.00     0.219 HD
ENDBRANCH  31  34
BRANCH  32  36
HETATM   36  O5  UNL     1      16.235   9.843   8.419  1.00  0.00    -0.288 OA
ATOM     37  H5  UNL     1      16.131  10.598   8.986  1.00  0.00     0.244 HD
ENDBRANCH  32  36
ENDBRANCH   8  31
BRANCH   9  38
HETATM   38  C14 UNL     1      13.656   8.614   5.406  1.00  0.00     0.314 C 
BRANCH  38  39
HETATM   39  O6  UNL     1      13.174   9.662   6.173  1.00  0.00    -0.380 OA
ATOM     40  H6  UNL     1      12.537  10.192   5.707  1.00  0.00     0.211 HD
ENDBRANCH  38  39
ENDBRANCH   9  38
TORSDOF 13
ENDMDL
