MODEL 1
REMARK VINA RESULT: -9.243811615      0.000      0.000
REMARK  9 active torsions:
REMARK  status: ('A' for Active; 'I' for Inactive)
REMARK    1  A    between atoms: N2_5  and  C4_6 
REMARK    2  A    between atoms: C4_6  and  C5_7 
REMARK    3  A    between atoms: C5_7  and  C6_8 
REMARK    4  A    between atoms: C6_8  and  N3_9 
REMARK    5  A    between atoms: N3_9  and  C8_11 
REMARK    6  A    between atoms: C9_14  and  N5_15 
REMARK    7  A    between atoms: N5_15  and  N6_17 
REMARK    8  A    between atoms: C11_23  and  C12_24 
REMARK    9  A    between atoms: N8_25  and  N9_27 
REMARK       I    between atoms: C13_29  and  N11_31 
REMARK       I    between atoms: N11_31  and  C14_33 
ROOT
HETATM    1  C8  UNL     1      17.665  10.148   1.798  1.00  0.00     0.717 A 
HETATM    2  N4  UNL     1      18.291   9.348   2.669  1.00  0.00    -0.019 N 
ATOM      3  H4  UNL     1      19.310   9.311   2.635  1.00  0.00     0.203 HD
HETATM    4  C9  UNL     1      17.669   8.596   3.577  1.00  0.00     0.712 A 
HETATM    5  N7  UNL     1      16.315   8.635   3.632  1.00  0.00    -0.171 N 
ATOM      6  H7  UNL     1      15.812   8.070   4.317  1.00  0.00     0.186 HD
HETATM    7  C10 UNL     1      15.649   9.411   2.792  1.00  0.00     0.173 A 
HETATM    8  C11 UNL     1      14.269   9.603   2.641  1.00  0.00     0.045 A 
HETATM    9  C15 UNL     1      14.134  10.498   1.609  1.00  0.00     0.125 A 
HETATM   10  N13 UNL     1      15.400  10.795   1.196  1.00  0.00    -0.288 N 
ATOM     11  H13 UNL     1      15.620  11.438   0.435  1.00  0.00     0.187 HD
HETATM   12  N14 UNL     1      16.284  10.160   1.889  1.00  0.00    -0.068 N 
ENDROOT
BRANCH   1  13
HETATM   13  N3  UNL     1      18.286  10.924   0.792  1.00  0.00    -0.220 N 
HETATM   14  C7  UNL     1      18.587  12.313   1.172  1.00  0.00     0.168 C 
BRANCH  13  15
HETATM   15  C6  UNL     1      18.653  10.393  -0.483  1.00  0.00     0.142 C 
BRANCH  15  16
HETATM   16  C5  UNL     1      17.847  10.920  -1.647  1.00  0.00     0.041 C 
BRANCH  16  17
HETATM   17  C4  UNL     1      16.657  10.086  -1.898  1.00  0.00     0.129 C 
BRANCH  17  18
HETATM   18  N2  UNL     1      15.651  10.667  -2.723  1.00  0.00    -0.368 N 
HETATM   19  C3  UNL     1      15.727  10.448  -4.096  1.00  0.00     0.078 C 
HETATM   20  C2  UNL     1      14.527  10.085  -4.864  1.00  0.00     0.139 C 
HETATM   21  N1  UNL     1      13.420   9.581  -4.119  1.00  0.00    -0.291 NA
HETATM   22  C1  UNL     1      13.239   8.134  -4.330  1.00  0.00     0.116 C 
HETATM   23  C17 UNL     1      13.416   9.839  -2.735  1.00  0.00     0.076 C 
HETATM   24  C16 UNL     1      14.364  10.847  -2.201  1.00  0.00     0.101 C 
ENDBRANCH  17  18
ENDBRANCH  16  17
ENDBRANCH  15  16
ENDBRANCH  13  15
ENDBRANCH   1  13
BRANCH   4  25
HETATM   25  N5  UNL     1      18.286   7.810   4.385  1.00  0.00    -0.138 N 
ATOM     26  H5  UNL     1      18.901   7.083   4.021  1.00  0.00     0.205 HD
BRANCH  25  27
HETATM   27  N6  UNL     1      18.114   7.950   5.754  1.00  0.00    -0.331 N 
ATOM     28  H62 UNL     1      17.871   8.866   6.131  1.00  0.00     0.177 HD
ATOM     29  H61 UNL     1      18.232   7.144   6.368  1.00  0.00     0.177 HD
ENDBRANCH  25  27
ENDBRANCH   4  25
BRANCH   8  30
HETATM   30  C12 UNL     1      13.247   8.943   3.463  1.00  0.00     0.124 C 
HETATM   31  N8  UNL     1      13.133   9.125   4.686  1.00  0.00    -0.309 N 
ATOM     32  H8  UNL     1      12.377   8.596   5.123  1.00  0.00     0.186 HD
BRANCH  31  33
HETATM   33  N9  UNL     1      13.831   9.894   5.530  1.00  0.00    -0.274 N 
HETATM   34  C13 UNL     1      13.904   9.617   6.804  1.00  0.00     0.210 C 
HETATM   35  N10 UNL     1      13.219   8.470   7.268  1.00  0.00    -0.062 NA
HETATM   36  N11 UNL     1      14.659  10.473   7.665  1.00  0.00    -0.284 N 
HETATM   37  C14 UNL     1      14.752  10.192   9.038  1.00  0.00     0.335 C 
ATOM     38  H11 UNL     1      15.131  11.291   7.281  1.00  0.00     0.172 HD
HETATM   39  N12 UNL     1      15.493  11.025   9.901  1.00  0.00    -0.040 NA
HETATM   40  O1  UNL     1      14.168   9.189   9.506  1.00  0.00    -0.251 OA
ATOM     41  H9  UNL     1      14.318  10.715   5.170  1.00  0.00     0.189 HD
ENDBRANCH  31  33
ENDBRANCH   8  30
TORSDOF 9
ENDMDL
MODEL 2
REMARK VINA RESULT: -9.220558614      3.656      6.082
REMARK  9 active torsions:
REMARK  status: ('A' for Active; 'I' for Inactive)
REMARK    1  A    between atoms: N2_5  and  C4_6 
REMARK    2  A    between atoms: C4_6  and  C5_7 
REMARK    3  A    between atoms: C5_7  and  C6_8 
REMARK    4  A    between atoms: C6_8  and  N3_9 
REMARK    5  A    between atoms: N3_9  and  C8_11 
REMARK    6  A    between atoms: C9_14  and  N5_15 
REMARK    7  A    between atoms: N5_15  and  N6_17 
REMARK    8  A    between atoms: C11_23  and  C12_24 
REMARK    9  A    between atoms: N8_25  and  N9_27 
REMARK       I    between atoms: C13_29  and  N11_31 
REMARK       I    between atoms: N11_31  and  C14_33 
ROOT
HETATM    1  C8  UNL     1      19.264   9.650   1.616  1.00  0.00     0.717 A 
HETATM    2  N4  UNL     1      18.469   9.210   2.599  1.00  0.00    -0.019 N 
ATOM      3  H4  UNL     1      17.478   9.446   2.552  1.00  0.00     0.203 HD
HETATM    4  C9  UNL     1      18.889   8.485   3.635  1.00  0.00     0.712 A 
HETATM    5  N7  UNL     1      20.205   8.164   3.709  1.00  0.00    -0.171 N 
ATOM      6  H7  UNL     1      20.555   7.609   4.491  1.00  0.00     0.186 HD
HETATM    7  C10 UNL     1      21.032   8.575   2.762  1.00  0.00     0.173 A 
HETATM    8  C11 UNL     1      22.416   8.394   2.630  1.00  0.00     0.045 A 
HETATM    9  C15 UNL     1      22.763   9.048   1.474  1.00  0.00     0.125 A 
HETATM   10  N13 UNL     1      21.608   9.578   0.976  1.00  0.00    -0.288 N 
ATOM     11  H13 UNL     1      21.551  10.125   0.117  1.00  0.00     0.187 HD
HETATM   12  N14 UNL     1      20.598   9.301   1.729  1.00  0.00    -0.068 N 
ENDROOT
BRANCH   1  13
HETATM   13  N3  UNL     1      18.865  10.460   0.527  1.00  0.00    -0.220 N 
HETATM   14  C7  UNL     1      18.582  11.863   0.865  1.00  0.00     0.168 C 
BRANCH  13  15
HETATM   15  C6  UNL     1      18.798   9.978  -0.816  1.00  0.00     0.142 C 
BRANCH  15  16
HETATM   16  C5  UNL     1      17.832  10.720  -1.710  1.00  0.00     0.041 C 
BRANCH  16  17
HETATM   17  C4  UNL     1      16.515  10.056  -1.745  1.00  0.00     0.129 C 
BRANCH  17  18
HETATM   18  N2  UNL     1      15.544  10.642  -2.608  1.00  0.00    -0.368 N 
HETATM   19  C3  UNL     1      15.691  10.451  -3.980  1.00  0.00     0.078 C 
HETATM   20  C2  UNL     1      14.535  10.090  -4.813  1.00  0.00     0.139 C 
HETATM   21  N1  UNL     1      13.398   9.560  -4.134  1.00  0.00    -0.291 NA
HETATM   22  C1  UNL     1      13.244   8.116  -4.380  1.00  0.00     0.116 C 
HETATM   23  C17 UNL     1      13.322   9.792  -2.746  1.00  0.00     0.076 C 
HETATM   24  C16 UNL     1      14.231  10.799  -2.148  1.00  0.00     0.101 C 
ENDBRANCH  17  18
ENDBRANCH  16  17
ENDBRANCH  15  16
ENDBRANCH  13  15
ENDBRANCH   1  13
BRANCH   4  25
HETATM   25  N5  UNL     1      18.117   8.096   4.585  1.00  0.00    -0.138 N 
ATOM     26  H5  UNL     1      17.108   8.220   4.505  1.00  0.00     0.205 HD
BRANCH  25  27
HETATM   27  N6  UNL     1      18.656   7.509   5.720  1.00  0.00    -0.331 N 
ATOM     28  H62 UNL     1      18.799   6.499   5.734  1.00  0.00     0.177 HD
ATOM     29  H61 UNL     1      18.902   8.085   6.525  1.00  0.00     0.177 HD
ENDBRANCH  25  27
ENDBRANCH   4  25
BRANCH   8  30
HETATM   30  C12 UNL     1      23.247   7.644   3.580  1.00  0.00     0.124 C 
HETATM   31  N8  UNL     1      23.270   6.403   3.634  1.00  0.00    -0.309 N 
ATOM     32  H8  UNL     1      23.894   6.023   4.346  1.00  0.00     0.186 HD
BRANCH  31  33
HETATM   33  N9  UNL     1      22.616   5.479   2.919  1.00  0.00    -0.274 N 
HETATM   34  C13 UNL     1      21.501   4.951   3.344  1.00  0.00     0.210 C 
HETATM   35  N10 UNL     1      20.997   5.390   4.590  1.00  0.00    -0.062 NA
HETATM   36  N11 UNL     1      20.844   3.964   2.545  1.00  0.00    -0.284 N 
HETATM   37  C14 UNL     1      19.641   3.385   2.983  1.00  0.00     0.335 C 
ATOM     38  H11 UNL     1      21.251   3.678   1.655  1.00  0.00     0.172 HD
HETATM   39  N12 UNL     1      18.980   2.411   2.207  1.00  0.00    -0.040 NA
HETATM   40  O1  UNL     1      19.147   3.736   4.077  1.00  0.00    -0.251 OA
ATOM     41  H9  UNL     1      23.000   5.180   2.022  1.00  0.00     0.189 HD
ENDBRANCH  31  33
ENDBRANCH   8  30
TORSDOF 9
ENDMDL
MODEL 3
REMARK VINA RESULT: -9.102998111      3.112      8.507
REMARK  9 active torsions:
REMARK  status: ('A' for Active; 'I' for Inactive)
REMARK    1  A    between atoms: N2_5  and  C4_6 
REMARK    2  A    between atoms: C4_6  and  C5_7 
REMARK    3  A    between atoms: C5_7  and  C6_8 
REMARK    4  A    between atoms: C6_8  and  N3_9 
REMARK    5  A    between atoms: N3_9  and  C8_11 
REMARK    6  A    between atoms: C9_14  and  N5_15 
REMARK    7  A    between atoms: N5_15  and  N6_17 
REMARK    8  A    between atoms: C11_23  and  C12_24 
REMARK    9  A    between atoms: N8_25  and  N9_27 
REMARK       I    between atoms: C13_29  and  N11_31 
REMARK       I    between atoms: N11_31  and  C14_33 
ROOT
HETATM    1  C8  UNL     1      14.115  10.010   0.487  1.00  0.00     0.717 A 
HETATM    2  N4  UNL     1      13.682   9.601  -0.711  1.00  0.00    -0.019 N 
ATOM      3  H4  UNL     1      12.716   9.281  -0.786  1.00  0.00     0.203 HD
HETATM    4  C9  UNL     1      14.431   9.584  -1.814  1.00  0.00     0.712 A 
HETATM    5  N7  UNL     1      15.717  10.006  -1.729  1.00  0.00    -0.171 N 
ATOM      6  H7  UNL     1      16.314  10.004  -2.556  1.00  0.00     0.186 HD
HETATM    7  C10 UNL     1      16.193  10.421  -0.566  1.00  0.00     0.173 A 
HETATM    8  C11 UNL     1      17.474  10.876  -0.226  1.00  0.00     0.045 A 
HETATM    9  C15 UNL     1      17.420  11.153   1.118  1.00  0.00     0.125 A 
HETATM   10  N13 UNL     1      16.148  10.861   1.515  1.00  0.00    -0.288 N 
ATOM     11  H13 UNL     1      15.805  10.967   2.470  1.00  0.00     0.187 HD
HETATM   12  N14 UNL     1      15.432  10.434   0.530  1.00  0.00    -0.068 N 
ENDROOT
BRANCH   1  13
HETATM   13  N3  UNL     1      13.367   9.999   1.687  1.00  0.00    -0.220 N 
HETATM   14  C7  UNL     1      12.619  11.234   1.966  1.00  0.00     0.168 C 
BRANCH  13  15
HETATM   15  C6  UNL     1      13.286   8.858   2.542  1.00  0.00     0.142 C 
BRANCH  15  16
HETATM   16  C5  UNL     1      13.615   9.125   3.992  1.00  0.00     0.041 C 
BRANCH  16  17
HETATM   17  C4  UNL     1      15.067   9.288   4.193  1.00  0.00     0.129 C 
BRANCH  17  18
HETATM   18  N2  UNL     1      15.461   9.965   5.383  1.00  0.00    -0.368 N 
HETATM   19  C3  UNL     1      14.460  10.493   6.194  1.00  0.00     0.078 C 
HETATM   20  C2  UNL     1      14.505  10.312   7.653  1.00  0.00     0.139 C 
HETATM   21  N1  UNL     1      15.347   9.269   8.141  1.00  0.00    -0.291 NA
HETATM   22  C1  UNL     1      14.562   8.128   8.644  1.00  0.00     0.116 C 
HETATM   23  C17 UNL     1      16.334   8.785   7.260  1.00  0.00     0.076 C 
HETATM   24  C16 UNL     1      16.634   9.567   6.036  1.00  0.00     0.101 C 
ENDBRANCH  17  18
ENDBRANCH  16  17
ENDBRANCH  15  16
ENDBRANCH  13  15
ENDBRANCH   1  13
BRANCH   4  25
HETATM   25  N5  UNL     1      14.007   9.159  -2.950  1.00  0.00    -0.138 N 
ATOM     26  H5  UNL     1      14.434   8.339  -3.379  1.00  0.00     0.205 HD
BRANCH  25  27
HETATM   27  N6  UNL     1      12.968   9.816  -3.592  1.00  0.00    -0.331 N 
ATOM     28  H62 UNL     1      12.669  10.727  -3.244  1.00  0.00     0.177 HD
ATOM     29  H61 UNL     1      12.515   9.387  -4.399  1.00  0.00     0.177 HD
ENDBRANCH  25  27
ENDBRANCH   4  25
BRANCH   8  30
HETATM   30  C12 UNL     1      18.588  11.001  -1.174  1.00  0.00     0.124 C 
HETATM   31  N8  UNL     1      19.547  10.212  -1.208  1.00  0.00    -0.309 N 
ATOM     32  H8  UNL     1      20.245  10.426  -1.920  1.00  0.00     0.186 HD
BRANCH  31  33
HETATM   33  N9  UNL     1      19.822   9.129  -0.469  1.00  0.00    -0.274 N 
HETATM   34  C13 UNL     1      20.965   8.996   0.145  1.00  0.00     0.210 C 
HETATM   35  N10 UNL     1      21.912  10.038   0.010  1.00  0.00    -0.062 NA
HETATM   36  N11 UNL     1      21.213   7.818   0.918  1.00  0.00    -0.284 N 
HETATM   37  C14 UNL     1      22.436   7.655   1.589  1.00  0.00     0.335 C 
ATOM     38  H11 UNL     1      20.498   7.094   0.980  1.00  0.00     0.172 HD
HETATM   39  N12 UNL     1      22.695   6.501   2.356  1.00  0.00    -0.040 NA
HETATM   40  O1  UNL     1      23.310   8.547   1.507  1.00  0.00    -0.251 OA
ATOM     41  H9  UNL     1      19.122   8.392  -0.386  1.00  0.00     0.189 HD
ENDBRANCH  31  33
ENDBRANCH   8  30
TORSDOF 9
ENDMDL
MODEL 4
REMARK VINA RESULT: -9.088419084      3.450      5.905
REMARK  9 active torsions:
REMARK  status: ('A' for Active; 'I' for Inactive)
REMARK    1  A    between atoms: N2_5  and  C4_6 
REMARK    2  A    between atoms: C4_6  and  C5_7 
REMARK    3  A    between atoms: C5_7  and  C6_8 
REMARK    4  A    between atoms: C6_8  and  N3_9 
REMARK    5  A    between atoms: N3_9  and  C8_11 
REMARK    6  A    between atoms: C9_14  and  N5_15 
REMARK    7  A    between atoms: N5_15  and  N6_17 
REMARK    8  A    between atoms: C11_23  and  C12_24 
REMARK    9  A    between atoms: N8_25  and  N9_27 
REMARK       I    between atoms: C13_29  and  N11_31 
REMARK       I    between atoms: N11_31  and  C14_33 
ROOT
HETATM    1  C8  UNL     1      17.659   9.995   2.670  1.00  0.00     0.717 A 
HETATM    2  N4  UNL     1      16.836   9.731   3.691  1.00  0.00    -0.019 N 
ATOM      3  H4  UNL     1      15.914  10.168   3.686  1.00  0.00     0.203 HD
HETATM    4  C9  UNL     1      17.142   8.935   4.715  1.00  0.00     0.712 A 
HETATM    5  N7  UNL     1      18.365   8.348   4.735  1.00  0.00    -0.171 N 
ATOM      6  H7  UNL     1      18.627   7.733   5.506  1.00  0.00     0.186 HD
HETATM    7  C10 UNL     1      19.215   8.577   3.747  1.00  0.00     0.173 A 
HETATM    8  C11 UNL     1      20.524   8.111   3.556  1.00  0.00     0.045 A 
HETATM    9  C15 UNL     1      20.946   8.677   2.379  1.00  0.00     0.125 A 
HETATM   10  N13 UNL     1      19.906   9.436   1.927  1.00  0.00    -0.288 N 
ATOM     11  H13 UNL     1      19.924   9.982   1.066  1.00  0.00     0.187 HD
HETATM   12  N14 UNL     1      18.895   9.375   2.727  1.00  0.00    -0.068 N 
ENDROOT
BRANCH   1  13
HETATM   13  N3  UNL     1      17.388  10.869   1.591  1.00  0.00    -0.220 N 
HETATM   14  C7  UNL     1      18.106  12.151   1.632  1.00  0.00     0.168 C 
BRANCH  13  15
HETATM   15  C6  UNL     1      16.530  10.518   0.504  1.00  0.00     0.142 C 
BRANCH  15  16
HETATM   16  C5  UNL     1      16.950  11.066  -0.840  1.00  0.00     0.041 C 
BRANCH  16  17
HETATM   17  C4  UNL     1      16.514  10.186  -1.940  1.00  0.00     0.129 C 
BRANCH  17  18
HETATM   18  N2  UNL     1      15.499  10.708  -2.792  1.00  0.00    -0.368 N 
HETATM   19  C3  UNL     1      15.612  10.474  -4.160  1.00  0.00     0.078 C 
HETATM   20  C2  UNL     1      14.445  10.046  -4.946  1.00  0.00     0.139 C 
HETATM   21  N1  UNL     1      13.347   9.503  -4.214  1.00  0.00    -0.291 NA
HETATM   22  C1  UNL     1      13.235   8.046  -4.407  1.00  0.00     0.116 C 
HETATM   23  C17 UNL     1      13.304   9.781  -2.834  1.00  0.00     0.076 C 
HETATM   24  C16 UNL     1      14.195  10.838  -2.298  1.00  0.00     0.101 C 
ENDBRANCH  17  18
ENDBRANCH  16  17
ENDBRANCH  15  16
ENDBRANCH  13  15
ENDBRANCH   1  13
BRANCH   4  25
HETATM   25  N5  UNL     1      16.350   8.717   5.703  1.00  0.00    -0.138 N 
ATOM     26  H5  UNL     1      15.342   8.807   5.578  1.00  0.00     0.205 HD
BRANCH  25  27
HETATM   27  N6  UNL     1      16.866   8.360   6.940  1.00  0.00    -0.331 N 
ATOM     28  H62 UNL     1      17.852   8.536   7.134  1.00  0.00     0.177 HD
ATOM     29  H61 UNL     1      16.262   7.929   7.639  1.00  0.00     0.177 HD
ENDBRANCH  25  27
ENDBRANCH   4  25
BRANCH   8  30
HETATM   30  C12 UNL     1      21.223   7.206   4.477  1.00  0.00     0.124 C 
HETATM   31  N8  UNL     1      21.514   6.033   4.189  1.00  0.00    -0.309 N 
ATOM     32  H8  UNL     1      21.998   5.524   4.930  1.00  0.00     0.186 HD
BRANCH  31  33
HETATM   33  N9  UNL     1      21.303   5.321   3.075  1.00  0.00    -0.274 N 
HETATM   34  C13 UNL     1      20.542   4.261   3.078  1.00  0.00     0.210 C 
HETATM   35  N10 UNL     1      19.941   3.884   4.301  1.00  0.00    -0.062 NA
HETATM   36  N11 UNL     1      20.351   3.532   1.863  1.00  0.00    -0.284 N 
HETATM   37  C14 UNL     1      19.535   2.389   1.843  1.00  0.00     0.335 C 
ATOM     38  H11 UNL     1      20.811   3.842   1.008  1.00  0.00     0.172 HD
HETATM   39  N12 UNL     1      19.336   1.659   0.653  1.00  0.00    -0.040 NA
HETATM   40  O1  UNL     1      18.975   2.010   2.896  1.00  0.00    -0.251 OA
ATOM     41  H9  UNL     1      21.747   5.614   2.205  1.00  0.00     0.189 HD
ENDBRANCH  31  33
ENDBRANCH   8  30
TORSDOF 9
ENDMDL
MODEL 5
REMARK VINA RESULT: -9.063595940      4.070      6.665
REMARK  9 active torsions:
REMARK  status: ('A' for Active; 'I' for Inactive)
REMARK    1  A    between atoms: N2_5  and  C4_6 
REMARK    2  A    between atoms: C4_6  and  C5_7 
REMARK    3  A    between atoms: C5_7  and  C6_8 
REMARK    4  A    between atoms: C6_8  and  N3_9 
REMARK    5  A    between atoms: N3_9  and  C8_11 
REMARK    6  A    between atoms: C9_14  and  N5_15 
REMARK    7  A    between atoms: N5_15  and  N6_17 
REMARK    8  A    between atoms: C11_23  and  C12_24 
REMARK    9  A    between atoms: N8_25  and  N9_27 
REMARK       I    between atoms: C13_29  and  N11_31 
REMARK       I    between atoms: N11_31  and  C14_33 
ROOT
HETATM    1  C8  UNL     1      20.079  10.010  -0.017  1.00  0.00     0.717 A 
HETATM    2  N4  UNL     1      21.263   9.734  -0.576  1.00  0.00    -0.019 N 
ATOM      3  H4  UNL     1      21.450  10.110  -1.506  1.00  0.00     0.203 HD
HETATM    4  C9  UNL     1      22.213   9.001   0.002  1.00  0.00     0.712 A 
HETATM    5  N7  UNL     1      21.978   8.495   1.238  1.00  0.00    -0.171 N 
ATOM      6  H7  UNL     1      22.687   7.929   1.706  1.00  0.00     0.186 HD
HETATM    7  C10 UNL     1      20.822   8.739   1.835  1.00  0.00     0.173 A 
HETATM    8  C11 UNL     1      20.342   8.315   3.082  1.00  0.00     0.045 A 
HETATM    9  C15 UNL     1      19.078   8.841   3.186  1.00  0.00     0.125 A 
HETATM   10  N13 UNL     1      18.860   9.536   2.033  1.00  0.00    -0.288 N 
ATOM     11  H13 UNL     1      17.998  10.040   1.820  1.00  0.00     0.187 HD
HETATM   12  N14 UNL     1      19.879   9.476   1.245  1.00  0.00    -0.068 N 
ENDROOT
BRANCH   1  13
HETATM   13  N3  UNL     1      19.030  10.744  -0.616  1.00  0.00    -0.220 N 
HETATM   14  C7  UNL     1      19.030  12.185  -0.322  1.00  0.00     0.168 C 
BRANCH  13  15
HETATM   15  C6  UNL     1      18.070  10.152  -1.494  1.00  0.00     0.142 C 
BRANCH  15  16
HETATM   16  C5  UNL     1      16.744  10.873  -1.565  1.00  0.00     0.041 C 
BRANCH  16  17
HETATM   17  C4  UNL     1      15.855  10.263  -2.572  1.00  0.00     0.129 C 
BRANCH  17  18
HETATM   18  N2  UNL     1      14.686   9.625  -2.067  1.00  0.00    -0.368 N 
HETATM   19  C3  UNL     1      14.849   8.638  -1.099  1.00  0.00     0.078 C 
HETATM   20  C2  UNL     1      13.985   8.606   0.091  1.00  0.00     0.139 C 
HETATM   21  N1  UNL     1      13.287   9.810   0.406  1.00  0.00    -0.291 NA
HETATM   22  C1  UNL     1      13.854  10.469   1.595  1.00  0.00     0.116 C 
HETATM   23  C17 UNL     1      13.167  10.762  -0.625  1.00  0.00     0.076 C 
HETATM   24  C16 UNL     1      13.487  10.346  -2.012  1.00  0.00     0.101 C 
ENDBRANCH  17  18
ENDBRANCH  16  17
ENDBRANCH  15  16
ENDBRANCH  13  15
ENDBRANCH   1  13
BRANCH   4  25
HETATM   25  N5  UNL     1      23.333   8.721  -0.563  1.00  0.00    -0.138 N 
ATOM     26  H5  UNL     1      24.050   8.211  -0.048  1.00  0.00     0.205 HD
BRANCH  25  27
HETATM   27  N6  UNL     1      23.565   9.113  -1.872  1.00  0.00    -0.331 N 
ATOM     28  H62 UNL     1      23.194  10.006  -2.195  1.00  0.00     0.177 HD
ATOM     29  H61 UNL     1      24.100   8.510  -2.498  1.00  0.00     0.177 HD
ENDBRANCH  25  27
ENDBRANCH   4  25
BRANCH   8  30
HETATM   30  C12 UNL     1      21.102   7.481   4.021  1.00  0.00     0.124 C 
HETATM   31  N8  UNL     1      21.388   6.293   3.801  1.00  0.00    -0.309 N 
ATOM     32  H8  UNL     1      21.919   5.841   4.546  1.00  0.00     0.186 HD
BRANCH  31  33
HETATM   33  N9  UNL     1      21.120   5.502   2.754  1.00  0.00    -0.274 N 
HETATM   34  C13 UNL     1      20.469   4.380   2.897  1.00  0.00     0.210 C 
HETATM   35  N10 UNL     1      20.052   4.022   4.200  1.00  0.00    -0.062 NA
HETATM   36  N11 UNL     1      20.212   3.569   1.748  1.00  0.00    -0.284 N 
HETATM   37  C14 UNL     1      19.512   2.358   1.879  1.00  0.00     0.335 C 
ATOM     38  H11 UNL     1      20.538   3.870   0.831  1.00  0.00     0.172 HD
HETATM   39  N12 UNL     1      19.248   1.546   0.757  1.00  0.00    -0.040 NA
HETATM   40  O1  UNL     1      19.115   1.991   3.008  1.00  0.00    -0.251 OA
ATOM     41  H9  UNL     1      21.430   5.784   1.824  1.00  0.00     0.189 HD
ENDBRANCH  31  33
ENDBRANCH   8  30
TORSDOF 9
ENDMDL
