MODEL 1
REMARK VINA RESULT: -9.097190980      0.000      0.000
REMARK  10 active torsions:
REMARK  status: ('A' for Active; 'I' for Inactive)
REMARK    1  A    between atoms: N2_8  and  C5_9 
REMARK    2  A    between atoms: C5_9  and  C6_10 
REMARK    3  A    between atoms: C6_10  and  O3_11 
REMARK    4  A    between atoms: C6_10  and  C7_13 
REMARK    5  A    between atoms: C7_13  and  O4_14 
REMARK    6  A    between atoms: O4_14  and  C8_15 
REMARK    7  A    between atoms: C11_19  and  C12_20 
REMARK    8  A    between atoms: C12_20  and  C13_21 
REMARK    9  A    between atoms: C13_21  and  O6_22 
REMARK   10  A    between atoms: C14_24  and  O7_25 
ROOT
HETATM    1  C6  UNL     1      16.077   9.822   2.946  1.00  0.00     0.162 C 
ENDROOT
BRANCH   1   2
HETATM    2  C5  UNL     1      17.172  10.842   2.725  1.00  0.00     0.186 C 
BRANCH   2   3
HETATM    3  N2  UNL     1      18.435  10.092   2.662  1.00  0.00    -0.251 N 
HETATM    4  C4  UNL     1      19.130  10.003   1.515  1.00  0.00     0.280 A 
HETATM    5  C3  UNL     1      20.304   9.337   1.354  1.00  0.00     0.134 A 
HETATM    6  O2  UNL     1      18.654  10.591   0.487  1.00  0.00    -0.265 OA
HETATM    7  C2  UNL     1      20.986   9.275   0.145  1.00  0.00     0.269 A 
HETATM    8  C16 UNL     1      20.840   8.685   2.470  1.00  0.00     0.129 A 
HETATM    9  N1  UNL     1      22.143   8.594   0.072  1.00  0.00    -0.270 N 
HETATM   10  O1  UNL     1      20.502   9.861  -0.854  1.00  0.00    -0.267 OA
HETATM   11  C1  UNL     1      22.894   8.506  -1.188  1.00  0.00     0.164 C 
HETATM   12  C18 UNL     1      22.608   7.996   1.156  1.00  0.00     0.331 A 
HETATM   13  N5  UNL     1      21.994   8.013   2.378  1.00  0.00    -0.298 N 
HETATM   14  O9  UNL     1      23.701   7.357   1.074  1.00  0.00    -0.246 OA
HETATM   15  C17 UNL     1      22.533   7.352   3.520  1.00  0.00     0.161 C 
HETATM   16  C15 UNL     1      20.120   8.785   3.630  1.00  0.00     0.288 A 
HETATM   17  N4  UNL     1      18.944   9.476   3.714  1.00  0.00    -0.259 N 
HETATM   18  O8  UNL     1      20.533   8.234   4.662  1.00  0.00    -0.264 OA
ATOM     19  H4  UNL     1      18.450   9.517   4.606  1.00  0.00     0.190 HD
ENDBRANCH   2   3
ENDBRANCH   1   2
BRANCH   1  20
HETATM   20  O3  UNL     1      16.552   8.531   2.809  1.00  0.00    -0.392 OA
ATOM     21  H3  UNL     1      16.090   7.927   3.380  1.00  0.00     0.210 HD
ENDBRANCH   1  20
BRANCH   1  22
HETATM   22  C7  UNL     1      14.864  10.087   2.093  1.00  0.00     0.210 C 
BRANCH  22  23
HETATM   23  O4  UNL     1      14.669   9.110   1.090  1.00  0.00    -0.333 OA
BRANCH  23  24
HETATM   24  C8  UNL     1      14.762   9.536  -0.227  1.00  0.00     0.147 A 
HETATM   25  C9  UNL     1      13.706   9.473  -1.116  1.00  0.00     0.111 A 
HETATM   26  C10 UNL     1      13.852   9.911  -2.415  1.00  0.00     0.186 A 
HETATM   27  O5  UNL     1      12.895   9.853  -3.222  1.00  0.00    -0.288 OA
HETATM   28  C11 UNL     1      15.055  10.420  -2.852  1.00  0.00     0.045 A 
HETATM   29  C14 UNL     1      16.087  10.469  -1.938  1.00  0.00     0.152 A 
HETATM   30  N3  UNL     1      15.918  10.029  -0.657  1.00  0.00    -0.317 N 
ATOM     31  H3  UNL     1      16.704  10.080  -0.010  1.00  0.00     0.170 HD
BRANCH  28  32
HETATM   32  C12 UNL     1      15.276  10.899  -4.218  1.00  0.00     0.073 C 
BRANCH  32  33
HETATM   33  C13 UNL     1      15.493   9.786  -5.214  1.00  0.00     0.169 C 
BRANCH  33  34
HETATM   34  O6  UNL     1      16.308  10.148  -6.264  1.00  0.00    -0.401 OA
ATOM     35  H6  UNL     1      15.970  10.883  -6.763  1.00  0.00     0.209 HD
ENDBRANCH  33  34
ENDBRANCH  32  33
ENDBRANCH  28  32
BRANCH  29  36
HETATM   36  O7  UNL     1      17.320  10.966  -2.305  1.00  0.00    -0.346 OA
ATOM     37  H7  UNL     1      18.072  10.853  -1.737  1.00  0.00     0.219 HD
ENDBRANCH  29  36
ENDBRANCH  23  24
ENDBRANCH  22  23
ENDBRANCH   1  22
TORSDOF 10
ENDMDL
MODEL 2
REMARK VINA RESULT: -8.974102091      2.170      3.101
REMARK  10 active torsions:
REMARK  status: ('A' for Active; 'I' for Inactive)
REMARK    1  A    between atoms: N2_8  and  C5_9 
REMARK    2  A    between atoms: C5_9  and  C6_10 
REMARK    3  A    between atoms: C6_10  and  O3_11 
REMARK    4  A    between atoms: C6_10  and  C7_13 
REMARK    5  A    between atoms: C7_13  and  O4_14 
REMARK    6  A    between atoms: O4_14  and  C8_15 
REMARK    7  A    between atoms: C11_19  and  C12_20 
REMARK    8  A    between atoms: C12_20  and  C13_21 
REMARK    9  A    between atoms: C13_21  and  O6_22 
REMARK   10  A    between atoms: C14_24  and  O7_25 
ROOT
HETATM    1  C6  UNL     1      14.928   9.554   5.173  1.00  0.00     0.162 C 
ENDROOT
BRANCH   1   2
HETATM    2  C5  UNL     1      15.760  10.803   4.985  1.00  0.00     0.186 C 
BRANCH   2   3
HETATM    3  N2  UNL     1      16.845  10.446   4.058  1.00  0.00    -0.251 N 
HETATM    4  C4  UNL     1      16.799  10.811   2.766  1.00  0.00     0.280 A 
HETATM    5  C3  UNL     1      17.748  10.532   1.833  1.00  0.00     0.134 A 
HETATM    6  O2  UNL     1      15.782  11.476   2.374  1.00  0.00    -0.265 OA
HETATM    7  C2  UNL     1      17.655  10.934   0.506  1.00  0.00     0.269 A 
HETATM    8  C16 UNL     1      18.869   9.803   2.244  1.00  0.00     0.129 A 
HETATM    9  N1  UNL     1      18.640  10.616  -0.352  1.00  0.00    -0.270 N 
HETATM   10  O1  UNL     1      16.648  11.588   0.141  1.00  0.00    -0.267 OA
HETATM   11  C1  UNL     1      18.578  11.024  -1.762  1.00  0.00     0.164 C 
HETATM   12  C18 UNL     1      19.679   9.927   0.087  1.00  0.00     0.331 A 
HETATM   13  N5  UNL     1      19.840   9.498   1.375  1.00  0.00    -0.298 N 
HETATM   14  O9  UNL     1      20.602   9.633  -0.733  1.00  0.00    -0.246 OA
HETATM   15  C17 UNL     1      20.979   8.754   1.803  1.00  0.00     0.161 C 
HETATM   16  C15 UNL     1      18.901   9.438   3.564  1.00  0.00     0.288 A 
HETATM   17  N4  UNL     1      17.904   9.758   4.444  1.00  0.00    -0.259 N 
HETATM   18  O8  UNL     1      19.863   8.790   4.002  1.00  0.00    -0.264 OA
ATOM     19  H4  UNL     1      17.982   9.460   5.416  1.00  0.00     0.190 HD
ENDBRANCH   2   3
ENDBRANCH   1   2
BRANCH   1  20
HETATM   20  O3  UNL     1      15.719   8.421   5.227  1.00  0.00    -0.392 OA
ATOM     21  H3  UNL     1      16.386   8.493   5.899  1.00  0.00     0.210 HD
ENDBRANCH   1  20
BRANCH   1  22
HETATM   22  C7  UNL     1      13.822   9.441   4.156  1.00  0.00     0.210 C 
BRANCH  22  23
HETATM   23  O4  UNL     1      14.053   8.428   3.197  1.00  0.00    -0.333 OA
BRANCH  23  24
HETATM   24  C8  UNL     1      13.935   8.791   1.864  1.00  0.00     0.147 A 
HETATM   25  C9  UNL     1      13.289   9.940   1.450  1.00  0.00     0.111 A 
HETATM   26  C10 UNL     1      13.199  10.254   0.110  1.00  0.00     0.186 A 
HETATM   27  O5  UNL     1      12.613  11.296  -0.266  1.00  0.00    -0.288 OA
HETATM   28  C11 UNL     1      13.752   9.427  -0.842  1.00  0.00     0.045 A 
HETATM   29  C14 UNL     1      14.390   8.288  -0.394  1.00  0.00     0.152 A 
HETATM   30  N3  UNL     1      14.465   8.000   0.938  1.00  0.00    -0.317 N 
ATOM     31  H3  UNL     1      14.943   7.148   1.232  1.00  0.00     0.170 HD
BRANCH  28  32
HETATM   32  C12 UNL     1      13.690   9.701  -2.279  1.00  0.00     0.073 C 
BRANCH  32  33
HETATM   33  C13 UNL     1      14.798  10.605  -2.763  1.00  0.00     0.169 C 
BRANCH  33  34
HETATM   34  O6  UNL     1      14.849  11.807  -2.093  1.00  0.00    -0.401 OA
ATOM     35  H6  UNL     1      15.434  12.437  -2.499  1.00  0.00     0.209 HD
ENDBRANCH  33  34
ENDBRANCH  32  33
ENDBRANCH  28  32
BRANCH  29  36
HETATM   36  O7  UNL     1      14.966   7.414  -1.290  1.00  0.00    -0.346 OA
ATOM     37  H7  UNL     1      15.657   7.708  -1.872  1.00  0.00     0.219 HD
ENDBRANCH  29  36
ENDBRANCH  23  24
ENDBRANCH  22  23
ENDBRANCH   1  22
TORSDOF 10
ENDMDL
MODEL 3
REMARK VINA RESULT: -8.965607602      1.678      3.179
REMARK  10 active torsions:
REMARK  status: ('A' for Active; 'I' for Inactive)
REMARK    1  A    between atoms: N2_8  and  C5_9 
REMARK    2  A    between atoms: C5_9  and  C6_10 
REMARK    3  A    between atoms: C6_10  and  O3_11 
REMARK    4  A    between atoms: C6_10  and  C7_13 
REMARK    5  A    between atoms: C7_13  and  O4_14 
REMARK    6  A    between atoms: O4_14  and  C8_15 
REMARK    7  A    between atoms: C11_19  and  C12_20 
REMARK    8  A    between atoms: C12_20  and  C13_21 
REMARK    9  A    between atoms: C13_21  and  O6_22 
REMARK   10  A    between atoms: C14_24  and  O7_25 
ROOT
HETATM    1  C6  UNL     1      13.481  10.544   2.205  1.00  0.00     0.162 C 
ENDROOT
BRANCH   1   2
HETATM    2  C5  UNL     1      14.376  10.351   3.409  1.00  0.00     0.186 C 
BRANCH   2   3
HETATM    3  N2  UNL     1      15.758  10.373   2.909  1.00  0.00    -0.251 N 
HETATM    4  C4  UNL     1      16.665   9.482   3.345  1.00  0.00     0.280 A 
HETATM    5  C3  UNL     1      17.963   9.418   2.945  1.00  0.00     0.134 A 
HETATM    6  O2  UNL     1      16.283   8.621   4.207  1.00  0.00    -0.265 OA
HETATM    7  C2  UNL     1      18.864   8.475   3.425  1.00  0.00     0.269 A 
HETATM    8  C16 UNL     1      18.400  10.354   2.001  1.00  0.00     0.129 A 
HETATM    9  N1  UNL     1      20.131   8.481   2.976  1.00  0.00    -0.270 N 
HETATM   10  O1  UNL     1      18.469   7.637   4.271  1.00  0.00    -0.267 OA
HETATM   11  C1  UNL     1      21.112   7.501   3.459  1.00  0.00     0.164 C 
HETATM   12  C18 UNL     1      20.494   9.387   2.083  1.00  0.00     0.331 A 
HETATM   13  N5  UNL     1      19.665  10.343   1.565  1.00  0.00    -0.298 N 
HETATM   14  O9  UNL     1      21.692   9.382   1.667  1.00  0.00    -0.246 OA
HETATM   15  C17 UNL     1      20.101  11.301   0.603  1.00  0.00     0.161 C 
HETATM   16  C15 UNL     1      17.464  11.254   1.567  1.00  0.00     0.288 A 
HETATM   17  N4  UNL     1      16.173  11.255   2.018  1.00  0.00    -0.259 N 
HETATM   18  O8  UNL     1      17.777  12.115   0.731  1.00  0.00    -0.264 OA
ATOM     19  H4  UNL     1      15.518  11.950   1.659  1.00  0.00     0.190 HD
ENDBRANCH   2   3
ENDBRANCH   1   2
BRANCH   1  20
HETATM   20  O3  UNL     1      12.492  11.478   2.452  1.00  0.00    -0.392 OA
ATOM     21  H3  UNL     1      12.860  12.317   2.706  1.00  0.00     0.210 HD
ENDBRANCH   1  20
BRANCH   1  22
HETATM   22  C7  UNL     1      12.930   9.242   1.684  1.00  0.00     0.210 C 
BRANCH  22  23
HETATM   23  O4  UNL     1      13.860   8.520   0.902  1.00  0.00    -0.333 OA
BRANCH  23  24
HETATM   24  C8  UNL     1      14.208   9.070  -0.323  1.00  0.00     0.147 A 
HETATM   25  C9  UNL     1      13.297   9.274  -1.343  1.00  0.00     0.111 A 
HETATM   26  C10 UNL     1      13.696   9.824  -2.543  1.00  0.00     0.186 A 
HETATM   27  O5  UNL     1      12.870  10.009  -3.468  1.00  0.00    -0.288 OA
HETATM   28  C11 UNL     1      15.009  10.182  -2.748  1.00  0.00     0.045 A 
HETATM   29  C14 UNL     1      15.891   9.965  -1.709  1.00  0.00     0.152 A 
HETATM   30  N3  UNL     1      15.472   9.418  -0.531  1.00  0.00    -0.317 N 
ATOM     31  H3  UNL     1      16.153   9.272   0.215  1.00  0.00     0.170 HD
BRANCH  28  32
HETATM   32  C12 UNL     1      15.497  10.769  -3.998  1.00  0.00     0.073 C 
BRANCH  32  33
HETATM   33  C13 UNL     1      15.422   9.822  -5.171  1.00  0.00     0.169 C 
BRANCH  33  34
HETATM   34  O6  UNL     1      16.221  10.202  -6.227  1.00  0.00    -0.401 OA
ATOM     35  H6  UNL     1      17.107  10.425  -5.964  1.00  0.00     0.209 HD
ENDBRANCH  33  34
ENDBRANCH  32  33
ENDBRANCH  28  32
BRANCH  29  36
HETATM   36  O7  UNL     1      17.222  10.298  -1.843  1.00  0.00    -0.346 OA
ATOM     37  H7  UNL     1      17.876   9.901  -1.280  1.00  0.00     0.219 HD
ENDBRANCH  29  36
ENDBRANCH  23  24
ENDBRANCH  22  23
ENDBRANCH   1  22
TORSDOF 10
ENDMDL
MODEL 4
REMARK VINA RESULT: -8.897194872      2.624      4.924
REMARK  10 active torsions:
REMARK  status: ('A' for Active; 'I' for Inactive)
REMARK    1  A    between atoms: N2_8  and  C5_9 
REMARK    2  A    between atoms: C5_9  and  C6_10 
REMARK    3  A    between atoms: C6_10  and  O3_11 
REMARK    4  A    between atoms: C6_10  and  C7_13 
REMARK    5  A    between atoms: C7_13  and  O4_14 
REMARK    6  A    between atoms: O4_14  and  C8_15 
REMARK    7  A    between atoms: C11_19  and  C12_20 
REMARK    8  A    between atoms: C12_20  and  C13_21 
REMARK    9  A    between atoms: C13_21  and  O6_22 
REMARK   10  A    between atoms: C14_24  and  O7_25 
ROOT
HETATM    1  C6  UNL     1      19.341  11.610   0.063  1.00  0.00     0.162 C 
ENDROOT
BRANCH   1   2
HETATM    2  C5  UNL     1      18.623  12.382   1.148  1.00  0.00     0.186 C 
BRANCH   2   3
HETATM    3  N2  UNL     1      18.409  11.440   2.257  1.00  0.00    -0.251 N 
HETATM    4  C4  UNL     1      17.321  11.531   3.041  1.00  0.00     0.280 A 
HETATM    5  C3  UNL     1      17.032  10.712   4.087  1.00  0.00     0.134 A 
HETATM    6  O2  UNL     1      16.485  12.462   2.789  1.00  0.00    -0.265 OA
HETATM    7  C2  UNL     1      15.891  10.846   4.869  1.00  0.00     0.269 A 
HETATM    8  C16 UNL     1      17.937   9.685   4.379  1.00  0.00     0.129 A 
HETATM    9  N1  UNL     1      15.681   9.992   5.885  1.00  0.00    -0.270 N 
HETATM   10  O1  UNL     1      15.081  11.767   4.603  1.00  0.00    -0.267 OA
HETATM   11  C1  UNL     1      14.486  10.101   6.733  1.00  0.00     0.164 C 
HETATM   12  C18 UNL     1      16.566   9.038   6.119  1.00  0.00     0.331 A 
HETATM   13  N5  UNL     1      17.710   8.844   5.394  1.00  0.00    -0.298 N 
HETATM   14  O9  UNL     1      16.356   8.239   7.081  1.00  0.00    -0.246 OA
HETATM   15  C17 UNL     1      18.638   7.802   5.684  1.00  0.00     0.161 C 
HETATM   16  C15 UNL     1      19.040   9.606   3.571  1.00  0.00     0.288 A 
HETATM   17  N4  UNL     1      19.261  10.470   2.535  1.00  0.00    -0.259 N 
HETATM   18  O8  UNL     1      19.887   8.723   3.768  1.00  0.00    -0.264 OA
ATOM     19  H4  UNL     1      20.101  10.364   1.965  1.00  0.00     0.190 HD
ENDBRANCH   2   3
ENDBRANCH   1   2
BRANCH   1  20
HETATM   20  O3  UNL     1      20.533  12.217  -0.287  1.00  0.00    -0.392 OA
ATOM     21  H3  UNL     1      20.517  13.149  -0.103  1.00  0.00     0.210 HD
ENDBRANCH   1  20
BRANCH   1  22
HETATM   22  C7  UNL     1      18.459  11.336  -1.127  1.00  0.00     0.210 C 
BRANCH  22  23
HETATM   23  O4  UNL     1      17.123  11.755  -0.934  1.00  0.00    -0.333 OA
BRANCH  23  24
HETATM   24  C8  UNL     1      16.171  11.226  -1.793  1.00  0.00     0.147 A 
HETATM   25  C9  UNL     1      14.893  10.889  -1.387  1.00  0.00     0.111 A 
HETATM   26  C10 UNL     1      13.984  10.366  -2.283  1.00  0.00     0.186 A 
HETATM   27  O5  UNL     1      12.825  10.061  -1.914  1.00  0.00    -0.288 OA
HETATM   28  C11 UNL     1      14.333  10.169  -3.599  1.00  0.00     0.045 A 
HETATM   29  C14 UNL     1      15.616  10.516  -3.971  1.00  0.00     0.152 A 
HETATM   30  N3  UNL     1      16.497  11.032  -3.066  1.00  0.00    -0.317 N 
ATOM     31  H3  UNL     1      17.437  11.276  -3.376  1.00  0.00     0.170 HD
BRANCH  28  32
HETATM   32  C12 UNL     1      13.416   9.616  -4.600  1.00  0.00     0.073 C 
BRANCH  32  33
HETATM   33  C13 UNL     1      13.428   8.108  -4.653  1.00  0.00     0.169 C 
BRANCH  33  34
HETATM   34  O6  UNL     1      12.167   7.555  -4.676  1.00  0.00    -0.401 OA
ATOM     35  H6  UNL     1      12.151   6.648  -4.393  1.00  0.00     0.209 HD
ENDBRANCH  33  34
ENDBRANCH  32  33
ENDBRANCH  28  32
BRANCH  29  36
HETATM   36  O7  UNL     1      16.034  10.346  -5.273  1.00  0.00    -0.346 OA
ATOM     37  H7  UNL     1      16.471  11.052  -5.734  1.00  0.00     0.219 HD
ENDBRANCH  29  36
ENDBRANCH  23  24
ENDBRANCH  22  23
ENDBRANCH   1  22
TORSDOF 10
ENDMDL
MODEL 5
REMARK VINA RESULT: -8.825063968      1.954      3.354
REMARK  10 active torsions:
REMARK  status: ('A' for Active; 'I' for Inactive)
REMARK    1  A    between atoms: N2_8  and  C5_9 
REMARK    2  A    between atoms: C5_9  and  C6_10 
REMARK    3  A    between atoms: C6_10  and  O3_11 
REMARK    4  A    between atoms: C6_10  and  C7_13 
REMARK    5  A    between atoms: C7_13  and  O4_14 
REMARK    6  A    between atoms: O4_14  and  C8_15 
REMARK    7  A    between atoms: C11_19  and  C12_20 
REMARK    8  A    between atoms: C12_20  and  C13_21 
REMARK    9  A    between atoms: C13_21  and  O6_22 
REMARK   10  A    between atoms: C14_24  and  O7_25 
ROOT
HETATM    1  C6  UNL     1      15.703   9.566   4.807  1.00  0.00     0.162 C 
ENDROOT
BRANCH   1   2
HETATM    2  C5  UNL     1      16.627  10.756   4.676  1.00  0.00     0.186 C 
BRANCH   2   3
HETATM    3  N2  UNL     1      17.314  10.611   3.384  1.00  0.00    -0.251 N 
HETATM    4  C4  UNL     1      18.493   9.972   3.295  1.00  0.00     0.280 A 
HETATM    5  C3  UNL     1      19.204   9.785   2.151  1.00  0.00     0.134 A 
HETATM    6  O2  UNL     1      18.993   9.500   4.370  1.00  0.00    -0.265 OA
HETATM    7  C2  UNL     1      20.421   9.115   2.111  1.00  0.00     0.269 A 
HETATM    8  C16 UNL     1      18.671  10.297   0.963  1.00  0.00     0.129 A 
HETATM    9  N1  UNL     1      21.059   8.973   0.936  1.00  0.00    -0.270 N 
HETATM   10  O1  UNL     1      20.895   8.658   3.178  1.00  0.00    -0.267 OA
HETATM   11  C1  UNL     1      22.347   8.271   0.852  1.00  0.00     0.164 C 
HETATM   12  C18 UNL     1      20.513   9.475  -0.159  1.00  0.00     0.331 A 
HETATM   13  N5  UNL     1      19.321  10.144  -0.197  1.00  0.00    -0.298 N 
HETATM   14  O9  UNL     1      21.126   9.334  -1.261  1.00  0.00    -0.246 OA
HETATM   15  C17 UNL     1      18.771  10.669  -1.402  1.00  0.00     0.161 C 
HETATM   16  C15 UNL     1      17.470  10.944   1.071  1.00  0.00     0.288 A 
HETATM   17  N4  UNL     1      16.813  11.093   2.261  1.00  0.00    -0.259 N 
HETATM   18  O8  UNL     1      16.935  11.425   0.060  1.00  0.00    -0.264 OA
ATOM     19  H4  UNL     1      15.920  11.584   2.281  1.00  0.00     0.190 HD
ENDBRANCH   2   3
ENDBRANCH   1   2
BRANCH   1  20
HETATM   20  O3  UNL     1      16.300   8.407   4.346  1.00  0.00    -0.392 OA
ATOM     21  H3  UNL     1      15.671   7.838   3.917  1.00  0.00     0.210 HD
ENDBRANCH   1  20
BRANCH   1  22
HETATM   22  C7  UNL     1      14.356   9.813   4.180  1.00  0.00     0.210 C 
BRANCH  22  23
HETATM   23  O4  UNL     1      13.923   8.745   3.361  1.00  0.00    -0.333 OA
BRANCH  23  24
HETATM   24  C8  UNL     1      13.869   8.986   1.995  1.00  0.00     0.147 A 
HETATM   25  C9  UNL     1      13.326  10.136   1.454  1.00  0.00     0.111 A 
HETATM   26  C10 UNL     1      13.297  10.326   0.088  1.00  0.00     0.186 A 
HETATM   27  O5  UNL     1      12.804  11.369  -0.403  1.00  0.00    -0.288 OA
HETATM   28  C11 UNL     1      13.808   9.372  -0.762  1.00  0.00     0.045 A 
HETATM   29  C14 UNL     1      14.343   8.237  -0.188  1.00  0.00     0.152 A 
HETATM   30  N3  UNL     1      14.360   8.073   1.166  1.00  0.00    -0.317 N 
ATOM     31  H3  UNL     1      14.762   7.220   1.555  1.00  0.00     0.170 HD
BRANCH  28  32
HETATM   32  C12 UNL     1      13.806   9.512  -2.221  1.00  0.00     0.073 C 
BRANCH  32  33
HETATM   33  C13 UNL     1      15.031  10.214  -2.755  1.00  0.00     0.169 C 
BRANCH  33  34
HETATM   34  O6  UNL     1      15.170  11.500  -2.280  1.00  0.00    -0.401 OA
ATOM     35  H6  UNL     1      15.983  11.911  -2.547  1.00  0.00     0.209 HD
ENDBRANCH  33  34
ENDBRANCH  32  33
ENDBRANCH  28  32
BRANCH  29  36
HETATM   36  O7  UNL     1      14.873   7.240  -0.979  1.00  0.00    -0.346 OA
ATOM     37  H7  UNL     1      14.309   6.720  -1.539  1.00  0.00     0.219 HD
ENDBRANCH  29  36
ENDBRANCH  23  24
ENDBRANCH  22  23
ENDBRANCH   1  22
TORSDOF 10
ENDMDL
