MODEL 1
REMARK VINA RESULT: -6.623744967      0.000      0.000
REMARK  5 active torsions:
REMARK  status: ('A' for Active; 'I' for Inactive)
REMARK    1  A    between atoms: N1_1  and  N2_4 
REMARK    2  A    between atoms: N2_4  and  C1_6 
REMARK    3  A    between atoms: C2_9  and  N4_10 
REMARK    4  A    between atoms: N4_10  and  C3_12 
REMARK    5  A    between atoms: C5_18  and  C6_19 
ROOT
HETATM    1  C1  UNL     1     -31.548   7.617  22.280  1.00  0.00     0.186 C 
HETATM    2  N3  UNL     1     -30.340   7.197  21.864  1.00  0.00    -0.171 N 
ATOM      3  H3  UNL     1     -30.265   6.200  21.665  1.00  0.00     0.186 HD
HETATM    4  C2  UNL     1     -29.213   7.917  21.675  1.00  0.00     0.687 C 
HETATM    5  N5  UNL     1     -28.996   9.194  22.040  1.00  0.00    -0.177 N 
ATOM      6  H5  UNL     1     -28.014   9.462  22.099  1.00  0.00     0.185 HD
HETATM    7  C4  UNL     1     -29.882  10.185  22.345  1.00  0.00     0.149 C 
HETATM    8  N6  UNL     1     -29.383  11.444  22.694  1.00  0.00    -0.081 NA
HETATM    9  C5  UNL     1     -31.273  10.104  22.355  1.00  0.00     0.097 C 
HETATM   10  C7  UNL     1     -32.000   8.924  22.435  1.00  0.00     0.234 C 
HETATM   11  O3  UNL     1     -33.215   9.045  22.675  1.00  0.00    -0.283 OA
ENDROOT
BRANCH   1  12
HETATM   12  N2  UNL     1     -32.415   6.709  22.580  1.00  0.00    -0.288 N 
ATOM     13  H2  UNL     1     -32.420   6.278  23.505  1.00  0.00     0.188 HD
BRANCH  12  14
HETATM   14  N1  UNL     1     -33.347   6.331  21.610  1.00  0.00    -0.344 N 
ATOM     15  H12 UNL     1     -33.104   5.613  20.928  1.00  0.00     0.176 HD
ATOM     16  H11 UNL     1     -34.258   6.789  21.607  1.00  0.00     0.176 HD
ENDBRANCH  12  14
ENDBRANCH   1  12
BRANCH   4  17
HETATM   17  N4  UNL     1     -28.230   7.316  21.076  1.00  0.00    -0.167 N 
ATOM     18  H4  UNL     1     -28.432   6.757  20.248  1.00  0.00     0.186 HD
BRANCH  17  19
HETATM   19  C3  UNL     1     -26.894   7.405  21.522  1.00  0.00     0.368 C 
HETATM   20  O1  UNL     1     -26.254   8.457  21.283  1.00  0.00    -0.283 OA
ENDBRANCH  17  19
ENDBRANCH   4  17
BRANCH   9  21
HETATM   21  C6  UNL     1     -32.019  11.346  22.278  1.00  0.00     0.277 C 
HETATM   22  O2  UNL     1     -32.357  11.811  21.170  1.00  0.00    -0.301 OA
ENDBRANCH   9  21
TORSDOF 5
ENDMDL
MODEL 2
REMARK VINA RESULT: -6.609972144      1.222      1.222
REMARK  5 active torsions:
REMARK  status: ('A' for Active; 'I' for Inactive)
REMARK    1  A    between atoms: N1_1  and  N2_4 
REMARK    2  A    between atoms: N2_4  and  C1_6 
REMARK    3  A    between atoms: C2_9  and  N4_10 
REMARK    4  A    between atoms: N4_10  and  C3_12 
REMARK    5  A    between atoms: C5_18  and  C6_19 
ROOT
HETATM    1  C1  UNL     1     -31.302   7.755  22.426  1.00  0.00     0.186 C 
HETATM    2  N3  UNL     1     -30.094   7.167  22.377  1.00  0.00    -0.171 N 
ATOM      3  H3  UNL     1     -30.100   6.152  22.278  1.00  0.00     0.186 HD
HETATM    4  C2  UNL     1     -28.871   7.739  22.442  1.00  0.00     0.687 C 
HETATM    5  N5  UNL     1     -28.590   9.016  22.759  1.00  0.00    -0.177 N 
ATOM      6  H5  UNL     1     -27.629   9.183  23.056  1.00  0.00     0.185 HD
HETATM    7  C4  UNL     1     -29.388  10.123  22.744  1.00  0.00     0.149 C 
HETATM    8  N6  UNL     1     -28.835  11.351  23.121  1.00  0.00    -0.081 NA
HETATM    9  C5  UNL     1     -30.733  10.192  22.391  1.00  0.00     0.097 C 
HETATM   10  C7  UNL     1     -31.604   9.112  22.360  1.00  0.00     0.234 C 
HETATM   11  O3  UNL     1     -32.814   9.386  22.259  1.00  0.00    -0.283 OA
ENDROOT
BRANCH   1  12
HETATM   12  N2  UNL     1     -32.327   6.981  22.550  1.00  0.00    -0.288 N 
ATOM     13  H2  UNL     1     -32.677   6.722  23.474  1.00  0.00     0.188 HD
BRANCH  12  14
HETATM   14  N1  UNL     1     -32.947   6.506  21.392  1.00  0.00    -0.344 N 
ATOM     15  H12 UNL     1     -33.918   6.192  21.429  1.00  0.00     0.176 HD
ATOM     16  H11 UNL     1     -32.408   6.482  20.527  1.00  0.00     0.176 HD
ENDBRANCH  12  14
ENDBRANCH   1  12
BRANCH   4  17
HETATM   17  N4  UNL     1     -27.855   6.978  22.171  1.00  0.00    -0.167 N 
ATOM     18  H4  UNL     1     -27.731   6.653  21.212  1.00  0.00     0.186 HD
BRANCH  17  19
HETATM   19  C3  UNL     1     -26.915   6.582  23.146  1.00  0.00     0.368 C 
HETATM   20  O1  UNL     1     -27.175   6.808  24.352  1.00  0.00    -0.283 OA
ENDBRANCH  17  19
ENDBRANCH   4  17
BRANCH   9  21
HETATM   21  C6  UNL     1     -31.267  11.491  22.028  1.00  0.00     0.277 C 
HETATM   22  O2  UNL     1     -31.197  11.896  20.849  1.00  0.00    -0.301 OA
ENDBRANCH   9  21
TORSDOF 5
ENDMDL
MODEL 3
REMARK VINA RESULT: -6.552623693      1.838      4.301
REMARK  5 active torsions:
REMARK  status: ('A' for Active; 'I' for Inactive)
REMARK    1  A    between atoms: N1_1  and  N2_4 
REMARK    2  A    between atoms: N2_4  and  C1_6 
REMARK    3  A    between atoms: C2_9  and  N4_10 
REMARK    4  A    between atoms: N4_10  and  C3_12 
REMARK    5  A    between atoms: C5_18  and  C6_19 
ROOT
HETATM    1  C1  UNL     1     -28.393   7.420  21.941  1.00  0.00     0.186 C 
HETATM    2  N3  UNL     1     -29.602   6.839  21.839  1.00  0.00    -0.171 N 
ATOM      3  H3  UNL     1     -29.596   5.831  21.685  1.00  0.00     0.186 HD
HETATM    4  C2  UNL     1     -30.824   7.412  21.911  1.00  0.00     0.687 C 
HETATM    5  N5  UNL     1     -31.103   8.728  21.918  1.00  0.00    -0.177 N 
ATOM      6  H5  UNL     1     -32.063   8.964  21.667  1.00  0.00     0.185 HD
HETATM    7  C4  UNL     1     -30.306   9.795  22.208  1.00  0.00     0.149 C 
HETATM    8  N6  UNL     1     -30.857  11.079  22.144  1.00  0.00    -0.081 NA
HETATM    9  C5  UNL     1     -28.962   9.774  22.574  1.00  0.00     0.097 C 
HETATM   10  C7  UNL     1     -28.091   8.718  22.341  1.00  0.00     0.234 C 
HETATM   11  O3  UNL     1     -26.882   8.957  22.512  1.00  0.00    -0.283 OA
ENDROOT
BRANCH   1  12
HETATM   12  N2  UNL     1     -27.368   6.699  21.634  1.00  0.00    -0.288 N 
ATOM     13  H2  UNL     1     -26.920   6.104  22.333  1.00  0.00     0.188 HD
BRANCH  12  14
HETATM   14  N1  UNL     1     -26.884   6.751  20.325  1.00  0.00    -0.344 N 
ATOM     15  H12 UNL     1     -26.160   7.426  20.078  1.00  0.00     0.176 HD
ATOM     16  H11 UNL     1     -27.273   6.106  19.637  1.00  0.00     0.176 HD
ENDBRANCH  12  14
ENDBRANCH   1  12
BRANCH   4  17
HETATM   17  N4  UNL     1     -31.842   6.608  21.982  1.00  0.00    -0.167 N 
ATOM     18  H4  UNL     1     -31.716   5.636  21.703  1.00  0.00     0.186 HD
BRANCH  17  19
HETATM   19  C3  UNL     1     -33.114   7.023  22.429  1.00  0.00     0.368 C 
HETATM   20  O1  UNL     1     -33.185   7.700  23.483  1.00  0.00    -0.283 OA
ENDBRANCH  17  19
ENDBRANCH   4  17
BRANCH   9  21
HETATM   21  C6  UNL     1     -28.429  10.943  23.248  1.00  0.00     0.277 C 
HETATM   22  O2  UNL     1     -27.855  11.840  22.598  1.00  0.00    -0.301 OA
ENDBRANCH   9  21
TORSDOF 5
ENDMDL
MODEL 4
REMARK VINA RESULT: -6.492341297      2.267      2.865
REMARK  5 active torsions:
REMARK  status: ('A' for Active; 'I' for Inactive)
REMARK    1  A    between atoms: N1_1  and  N2_4 
REMARK    2  A    between atoms: N2_4  and  C1_6 
REMARK    3  A    between atoms: C2_9  and  N4_10 
REMARK    4  A    between atoms: N4_10  and  C3_12 
REMARK    5  A    between atoms: C5_18  and  C6_19 
ROOT
HETATM    1  C1  UNL     1     -29.584   7.911  21.351  1.00  0.00     0.186 C 
HETATM    2  N3  UNL     1     -28.632   7.186  20.738  1.00  0.00    -0.171 N 
ATOM      3  H3  UNL     1     -28.965   6.518  20.044  1.00  0.00     0.186 HD
HETATM    4  C2  UNL     1     -27.293   7.224  20.919  1.00  0.00     0.687 C 
HETATM    5  N5  UNL     1     -26.625   7.869  21.892  1.00  0.00    -0.177 N 
ATOM      6  H5  UNL     1     -25.673   7.537  22.051  1.00  0.00     0.185 HD
HETATM    7  C4  UNL     1     -27.017   8.896  22.698  1.00  0.00     0.149 C 
HETATM    8  N6  UNL     1     -26.110   9.393  23.639  1.00  0.00    -0.081 NA
HETATM    9  C5  UNL     1     -28.253   9.539  22.708  1.00  0.00     0.097 C 
HETATM   10  C7  UNL     1     -29.426   9.017  22.181  1.00  0.00     0.234 C 
HETATM   11  O3  UNL     1     -30.476   9.611  22.487  1.00  0.00    -0.283 OA
ENDROOT
BRANCH   1  12
HETATM   12  N2  UNL     1     -30.810   7.554  21.158  1.00  0.00    -0.288 N 
ATOM     13  H2  UNL     1     -31.297   7.805  20.297  1.00  0.00     0.188 HD
BRANCH  12  14
HETATM   14  N1  UNL     1     -31.452   6.816  22.154  1.00  0.00    -0.344 N 
ATOM     15  H12 UNL     1     -31.739   7.273  23.020  1.00  0.00     0.176 HD
ATOM     16  H11 UNL     1     -31.622   5.823  21.991  1.00  0.00     0.176 HD
ENDBRANCH  12  14
ENDBRANCH   1  12
BRANCH   4  17
HETATM   17  N4  UNL     1     -26.570   6.567  20.063  1.00  0.00    -0.167 N 
ATOM     18  H4  UNL     1     -27.041   5.974  19.380  1.00  0.00     0.186 HD
BRANCH  17  19
HETATM   19  C3  UNL     1     -25.161   6.637  20.039  1.00  0.00     0.368 C 
HETATM   20  O1  UNL     1     -24.623   7.734  19.753  1.00  0.00    -0.283 OA
ENDBRANCH  17  19
ENDBRANCH   4  17
BRANCH   9  21
HETATM   21  C6  UNL     1     -28.321  10.855  23.316  1.00  0.00     0.277 C 
HETATM   22  O2  UNL     1     -28.109  11.878  22.633  1.00  0.00    -0.301 OA
ENDBRANCH   9  21
TORSDOF 5
ENDMDL
MODEL 5
REMARK VINA RESULT: -6.404703852      1.449      1.489
REMARK  5 active torsions:
REMARK  status: ('A' for Active; 'I' for Inactive)
REMARK    1  A    between atoms: N1_1  and  N2_4 
REMARK    2  A    between atoms: N2_4  and  C1_6 
REMARK    3  A    between atoms: C2_9  and  N4_10 
REMARK    4  A    between atoms: N4_10  and  C3_12 
REMARK    5  A    between atoms: C5_18  and  C6_19 
ROOT
HETATM    1  C1  UNL     1     -31.046   8.545  22.711  1.00  0.00     0.186 C 
HETATM    2  N3  UNL     1     -29.748   8.193  22.679  1.00  0.00    -0.171 N 
ATOM      3  H3  UNL     1     -29.558   7.199  22.798  1.00  0.00     0.186 HD
HETATM    4  C2  UNL     1     -28.663   8.981  22.512  1.00  0.00     0.687 C 
HETATM    5  N5  UNL     1     -28.627  10.325  22.526  1.00  0.00    -0.177 N 
ATOM      6  H5  UNL     1     -27.705  10.729  22.694  1.00  0.00     0.185 HD
HETATM    7  C4  UNL     1     -29.628  11.234  22.350  1.00  0.00     0.149 C 
HETATM    8  N6  UNL     1     -29.314  12.596  22.407  1.00  0.00    -0.081 NA
HETATM    9  C5  UNL     1     -30.976  10.974  22.111  1.00  0.00     0.097 C 
HETATM   10  C7  UNL     1     -31.615   9.773  22.387  1.00  0.00     0.234 C 
HETATM   11  O3  UNL     1     -32.858   9.790  22.339  1.00  0.00    -0.283 OA
ENDROOT
BRANCH   1  12
HETATM   12  N2  UNL     1     -31.889   7.644  23.087  1.00  0.00    -0.288 N 
ATOM     13  H2  UNL     1     -32.308   7.676  24.018  1.00  0.00     0.188 HD
BRANCH  12  14
HETATM   14  N1  UNL     1     -32.217   6.623  22.191  1.00  0.00    -0.344 N 
ATOM     15  H12 UNL     1     -33.056   6.064  22.345  1.00  0.00     0.176 HD
ATOM     16  H11 UNL     1     -31.602   6.459  21.395  1.00  0.00     0.176 HD
ENDBRANCH  12  14
ENDBRANCH   1  12
BRANCH   4  17
HETATM   17  N4  UNL     1     -27.529   8.378  22.318  1.00  0.00    -0.167 N 
ATOM     18  H4  UNL     1     -27.313   8.034  21.383  1.00  0.00     0.186 HD
BRANCH  17  19
HETATM   19  C3  UNL     1     -26.583   8.178  23.346  1.00  0.00     0.368 C 
HETATM   20  O1  UNL     1     -26.829   8.649  24.483  1.00  0.00    -0.283 OA
ENDBRANCH  17  19
ENDBRANCH   4  17
BRANCH   9  21
HETATM   21  C6  UNL     1     -31.774  12.038  21.531  1.00  0.00     0.277 C 
HETATM   22  O2  UNL     1     -31.800  12.205  20.295  1.00  0.00    -0.301 OA
ENDBRANCH   9  21
TORSDOF 5
ENDMDL
