MODEL 1
REMARK VINA RESULT: -6.795301910      0.000      0.000
REMARK  4 active torsions:
REMARK  status: ('A' for Active; 'I' for Inactive)
REMARK    1  A    between atoms: N1_1  and  C1_5 
REMARK    2  A    between atoms: C1_5  and  C2_6 
REMARK    3  A    between atoms: C2_6  and  N2_7 
REMARK    4  A    between atoms: N2_7  and  C3_9 
ROOT
HETATM    1  C3  UNL     1     -29.335   8.797  22.603  1.00  0.00     0.132 A 
HETATM    2  N3  UNL     1     -28.565   9.885  22.453  1.00  0.00    -0.337 N 
ATOM      3  H3  UNL     1     -27.549   9.810  22.451  1.00  0.00     0.168 HD
HETATM    4  C4  UNL     1     -29.171  11.079  22.303  1.00  0.00     0.182 A 
HETATM    5  N4  UNL     1     -30.511  11.210  22.300  1.00  0.00    -0.346 N 
ATOM      6  H4  UNL     1     -30.928  12.134  22.183  1.00  0.00     0.167 HD
HETATM    7  C5  UNL     1     -31.300  10.140  22.448  1.00  0.00     0.133 A 
HETATM    8  C6  UNL     1     -32.688  10.242  22.449  1.00  0.00     0.278 A 
HETATM    9  O1  UNL     1     -33.223  11.380  22.306  1.00  0.00    -0.265 OA
HETATM   10  N5  UNL     1     -33.401   9.123  22.603  1.00  0.00    -0.274 N 
ATOM     11  H5  UNL     1     -34.420   9.182  22.607  1.00  0.00     0.173 HD
HETATM   12  C7  UNL     1     -32.817   7.919  22.753  1.00  0.00     0.327 A 
HETATM   13  O2  UNL     1     -33.492   6.853  22.900  1.00  0.00    -0.247 OA
HETATM   14  N6  UNL     1     -31.486   7.797  22.756  1.00  0.00    -0.303 N 
ATOM     15  H6  UNL     1     -31.050   6.882  22.872  1.00  0.00     0.171 HD
HETATM   16  C8  UNL     1     -30.728   8.900  22.604  1.00  0.00     0.113 A 
ENDROOT
BRANCH   1  17
HETATM   17  N2  UNL     1     -28.854   7.625  22.751  1.00  0.00    -0.373 N 
ATOM     18  H2  UNL     1     -29.500   6.891  23.041  1.00  0.00     0.161 HD
BRANCH  17  19
HETATM   19  C2  UNL     1     -27.484   7.248  22.545  1.00  0.00     0.148 C 
BRANCH  19  20
HETATM   20  C1  UNL     1     -26.910   6.918  23.929  1.00  0.00     0.249 C 
BRANCH  20  21
HETATM   21  N1  UNL     1     -26.509   8.186  24.542  1.00  0.00    -0.078 N 
ATOM     22  H13 UNL     1     -25.636   8.554  24.165  1.00  0.00     0.274 HD
ATOM     23  H12 UNL     1     -27.108   8.967  24.273  1.00  0.00     0.274 HD
ATOM     24  H11 UNL     1     -26.477   8.034  25.550  1.00  0.00     0.274 HD
ENDBRANCH  20  21
ENDBRANCH  19  20
ENDBRANCH  17  19
ENDBRANCH   1  17
TORSDOF 4
ENDMDL
MODEL 2
REMARK VINA RESULT: -6.729899685      2.405      4.953
REMARK  4 active torsions:
REMARK  status: ('A' for Active; 'I' for Inactive)
REMARK    1  A    between atoms: N1_1  and  C1_5 
REMARK    2  A    between atoms: C1_5  and  C2_6 
REMARK    3  A    between atoms: C2_6  and  N2_7 
REMARK    4  A    between atoms: N2_7  and  C3_9 
ROOT
HETATM    1  C3  UNL     1     -29.737   8.015  22.064  1.00  0.00     0.132 A 
HETATM    2  N3  UNL     1     -29.104   6.847  22.240  1.00  0.00    -0.337 N 
ATOM      3  H3  UNL     1     -29.583   5.962  22.076  1.00  0.00     0.168 HD
HETATM    4  C4  UNL     1     -27.817   6.873  22.639  1.00  0.00     0.182 A 
HETATM    5  N4  UNL     1     -27.156   8.025  22.862  1.00  0.00    -0.346 N 
ATOM      6  H4  UNL     1     -26.182   7.999  23.163  1.00  0.00     0.167 HD
HETATM    7  C5  UNL     1     -27.768   9.203  22.693  1.00  0.00     0.133 A 
HETATM    8  C6  UNL     1     -27.113  10.411  22.915  1.00  0.00     0.278 A 
HETATM    9  O1  UNL     1     -25.904  10.398  23.289  1.00  0.00    -0.265 OA
HETATM   10  N5  UNL     1     -27.797  11.542  22.723  1.00  0.00    -0.274 N 
ATOM     11  H5  UNL     1     -27.331  12.435  22.883  1.00  0.00     0.173 HD
HETATM   12  C7  UNL     1     -29.083  11.540  22.325  1.00  0.00     0.327 A 
HETATM   13  O2  UNL     1     -29.737  12.613  22.141  1.00  0.00    -0.247 OA
HETATM   14  N6  UNL     1     -29.733  10.391  22.105  1.00  0.00    -0.303 N 
ATOM     15  H6  UNL     1     -30.707  10.397  21.805  1.00  0.00     0.171 HD
HETATM   16  C8  UNL     1     -29.080   9.227  22.287  1.00  0.00     0.113 A 
ENDROOT
BRANCH   1  17
HETATM   17  N2  UNL     1     -30.954   8.091  21.688  1.00  0.00    -0.373 N 
ATOM     18  H2  UNL     1     -31.128   8.429  20.742  1.00  0.00     0.161 HD
BRANCH  17  19
HETATM   19  C2  UNL     1     -32.100   7.744  22.480  1.00  0.00     0.148 C 
BRANCH  19  20
HETATM   20  C1  UNL     1     -33.062   8.937  22.402  1.00  0.00     0.249 C 
BRANCH  20  21
HETATM   21  N1  UNL     1     -32.809   9.772  23.577  1.00  0.00    -0.078 N 
ATOM     22  H13 UNL     1     -31.878  10.189  23.578  1.00  0.00     0.274 HD
ATOM     23  H12 UNL     1     -33.342  10.642  23.571  1.00  0.00     0.274 HD
ATOM     24  H11 UNL     1     -32.991   9.197  24.399  1.00  0.00     0.274 HD
ENDBRANCH  20  21
ENDBRANCH  19  20
ENDBRANCH  17  19
ENDBRANCH   1  17
TORSDOF 4
ENDMDL
MODEL 3
REMARK VINA RESULT: -6.682600619      2.390      4.560
REMARK  4 active torsions:
REMARK  status: ('A' for Active; 'I' for Inactive)
REMARK    1  A    between atoms: N1_1  and  C1_5 
REMARK    2  A    between atoms: C1_5  and  C2_6 
REMARK    3  A    between atoms: C2_6  and  N2_7 
REMARK    4  A    between atoms: N2_7  and  C3_9 
ROOT
HETATM    1  C3  UNL     1     -30.902  11.988  21.687  1.00  0.00     0.132 A 
HETATM    2  N3  UNL     1     -31.991  12.748  21.873  1.00  0.00    -0.337 N 
ATOM      3  H3  UNL     1     -32.000  13.727  21.588  1.00  0.00     0.168 HD
HETATM    4  C4  UNL     1     -33.072  12.184  22.445  1.00  0.00     0.182 A 
HETATM    5  N4  UNL     1     -33.091  10.894  22.831  1.00  0.00    -0.346 N 
ATOM      6  H4  UNL     1     -33.932  10.507  23.259  1.00  0.00     0.167 HD
HETATM    7  C5  UNL     1     -32.017  10.116  22.656  1.00  0.00     0.133 A 
HETATM    8  C6  UNL     1     -32.004   8.779  23.043  1.00  0.00     0.278 A 
HETATM    9  O1  UNL     1     -33.039   8.282  23.577  1.00  0.00    -0.265 OA
HETATM   10  N5  UNL     1     -30.890   8.073  22.832  1.00  0.00    -0.274 N 
ATOM     11  H5  UNL     1     -30.866   7.092  23.111  1.00  0.00     0.173 HD
HETATM   12  C7  UNL     1     -29.798   8.616  22.261  1.00  0.00     0.327 A 
HETATM   13  O2  UNL     1     -28.737   7.947  22.059  1.00  0.00    -0.247 OA
HETATM   14  N6  UNL     1     -29.787   9.898  21.881  1.00  0.00    -0.303 N 
ATOM     15  H6  UNL     1     -28.956  10.303  21.451  1.00  0.00     0.171 HD
HETATM   16  C8  UNL     1     -30.890  10.646  22.076  1.00  0.00     0.113 A 
ENDROOT
BRANCH   1  17
HETATM   17  N2  UNL     1     -29.832  12.433  21.154  1.00  0.00    -0.373 N 
ATOM     18  H2  UNL     1     -29.494  11.953  20.320  1.00  0.00     0.161 HD
BRANCH  17  19
HETATM   19  C2  UNL     1     -29.061  13.549  21.625  1.00  0.00     0.148 C 
BRANCH  19  20
HETATM   20  C1  UNL     1     -28.866  14.482  20.423  1.00  0.00     0.249 C 
BRANCH  20  21
HETATM   21  N1  UNL     1     -28.984  13.661  19.216  1.00  0.00    -0.078 N 
ATOM     22  H13 UNL     1     -29.692  12.932  19.296  1.00  0.00     0.274 HD
ATOM     23  H12 UNL     1     -29.401  14.162  18.431  1.00  0.00     0.274 HD
ATOM     24  H11 UNL     1     -28.054  13.296  19.010  1.00  0.00     0.274 HD
ENDBRANCH  20  21
ENDBRANCH  19  20
ENDBRANCH  17  19
ENDBRANCH   1  17
TORSDOF 4
ENDMDL
MODEL 4
REMARK VINA RESULT: -6.675506984      2.996      5.729
REMARK  4 active torsions:
REMARK  status: ('A' for Active; 'I' for Inactive)
REMARK    1  A    between atoms: N1_1  and  C1_5 
REMARK    2  A    between atoms: C1_5  and  C2_6 
REMARK    3  A    between atoms: C2_6  and  N2_7 
REMARK    4  A    between atoms: N2_7  and  C3_9 
ROOT
HETATM    1  C3  UNL     1     -29.873   9.078  21.666  1.00  0.00     0.132 A 
HETATM    2  N3  UNL     1     -30.687   8.060  21.354  1.00  0.00    -0.337 N 
ATOM      3  H3  UNL     1     -31.612   8.231  20.960  1.00  0.00     0.168 HD
HETATM    4  C4  UNL     1     -30.251   6.804  21.572  1.00  0.00     0.182 A 
HETATM    5  N4  UNL     1     -29.035   6.545  22.090  1.00  0.00    -0.346 N 
ATOM      6  H4  UNL     1     -28.744   5.579  22.238  1.00  0.00     0.167 HD
HETATM    7  C5  UNL     1     -28.205   7.544  22.410  1.00  0.00     0.133 A 
HETATM    8  C6  UNL     1     -26.942   7.310  22.946  1.00  0.00     0.278 A 
HETATM    9  O1  UNL     1     -26.564   6.118  23.137  1.00  0.00    -0.265 OA
HETATM   10  N5  UNL     1     -26.176   8.366  23.237  1.00  0.00    -0.274 N 
ATOM     11  H5  UNL     1     -25.248   8.209  23.632  1.00  0.00     0.173 HD
HETATM   12  C7  UNL     1     -26.591   9.629  23.027  1.00  0.00     0.327 A 
HETATM   13  O2  UNL     1     -25.866  10.635  23.302  1.00  0.00    -0.247 OA
HETATM   14  N6  UNL     1     -27.801   9.878  22.513  1.00  0.00    -0.303 N 
ATOM     15  H6  UNL     1     -28.109  10.837  22.357  1.00  0.00     0.171 HD
HETATM   16  C8  UNL     1     -28.605   8.843  22.204  1.00  0.00     0.113 A 
ENDROOT
BRANCH   1  17
HETATM   17  N2  UNL     1     -30.197  10.300  21.496  1.00  0.00    -0.373 N 
ATOM     18  H2  UNL     1     -29.688  10.821  20.782  1.00  0.00     0.161 HD
BRANCH  17  19
HETATM   19  C2  UNL     1     -31.216  11.007  22.219  1.00  0.00     0.148 C 
BRANCH  19  20
HETATM   20  C1  UNL     1     -31.521  12.277  21.414  1.00  0.00     0.249 C 
BRANCH  20  21
HETATM   21  N1  UNL     1     -30.947  12.090  20.081  1.00  0.00    -0.078 N 
ATOM     22  H13 UNL     1     -30.044  12.551  19.966  1.00  0.00     0.274 HD
ATOM     23  H12 UNL     1     -30.628  11.136  19.913  1.00  0.00     0.274 HD
ATOM     24  H11 UNL     1     -31.645  12.404  19.407  1.00  0.00     0.274 HD
ENDBRANCH  20  21
ENDBRANCH  19  20
ENDBRANCH  17  19
ENDBRANCH   1  17
TORSDOF 4
ENDMDL
MODEL 5
REMARK VINA RESULT: -6.669650569      2.512      5.513
REMARK  4 active torsions:
REMARK  status: ('A' for Active; 'I' for Inactive)
REMARK    1  A    between atoms: N1_1  and  C1_5 
REMARK    2  A    between atoms: C1_5  and  C2_6 
REMARK    3  A    between atoms: C2_6  and  N2_7 
REMARK    4  A    between atoms: N2_7  and  C3_9 
ROOT
HETATM    1  C3  UNL     1     -32.712  11.852  22.254  1.00  0.00     0.132 A 
HETATM    2  N3  UNL     1     -31.845  12.786  21.837  1.00  0.00    -0.337 N 
ATOM      3  H3  UNL     1     -32.145  13.749  21.690  1.00  0.00     0.168 HD
HETATM    4  C4  UNL     1     -30.568  12.418  21.619  1.00  0.00     0.182 A 
HETATM    5  N4  UNL     1     -30.141  11.155  21.806  1.00  0.00    -0.346 N 
ATOM      6  H4  UNL     1     -29.164  10.920  21.630  1.00  0.00     0.167 HD
HETATM    7  C5  UNL     1     -30.987  10.205  22.222  1.00  0.00     0.133 A 
HETATM    8  C6  UNL     1     -30.578   8.891  22.424  1.00  0.00     0.278 A 
HETATM    9  O1  UNL     1     -29.369   8.581  22.210  1.00  0.00    -0.265 OA
HETATM   10  N5  UNL     1     -31.488   8.005  22.840  1.00  0.00    -0.274 N 
ATOM     11  H5  UNL     1     -31.202   7.038  22.992  1.00  0.00     0.173 HD
HETATM   12  C7  UNL     1     -32.769   8.350  23.065  1.00  0.00     0.327 A 
HETATM   13  O2  UNL     1     -33.637   7.511  23.460  1.00  0.00    -0.247 OA
HETATM   14  N6  UNL     1     -33.185   9.607  22.876  1.00  0.00    -0.303 N 
ATOM     15  H6  UNL     1     -34.158   9.861  23.047  1.00  0.00     0.171 HD
HETATM   16  C8  UNL     1     -32.301  10.532  22.457  1.00  0.00     0.113 A 
ENDROOT
BRANCH   1  17
HETATM   17  N2  UNL     1     -33.941  12.104  22.487  1.00  0.00    -0.373 N 
ATOM     18  H2  UNL     1     -34.328  11.760  23.365  1.00  0.00     0.161 HD
BRANCH  17  19
HETATM   19  C2  UNL     1     -34.827  12.829  21.621  1.00  0.00     0.148 C 
BRANCH  19  20
HETATM   20  C1  UNL     1     -36.068  11.947  21.429  1.00  0.00     0.249 C 
BRANCH  20  21
HETATM   21  N1  UNL     1     -37.127  12.804  20.895  1.00  0.00    -0.078 N 
ATOM     22  H13 UNL     1     -38.047  12.364  20.919  1.00  0.00     0.274 HD
ATOM     23  H12 UNL     1     -37.345  13.595  21.500  1.00  0.00     0.274 HD
ATOM     24  H11 UNL     1     -36.842  13.084  19.956  1.00  0.00     0.274 HD
ENDBRANCH  20  21
ENDBRANCH  19  20
ENDBRANCH  17  19
ENDBRANCH   1  17
TORSDOF 4
ENDMDL
