MODEL 1
REMARK VINA RESULT: -5.168706975      0.000      0.000
REMARK  15 active torsions:
REMARK  status: ('A' for Active; 'I' for Inactive)
REMARK    1  A    between atoms: C2_2  and  C3_3 
REMARK    2  A    between atoms: C3_3  and  C4_4 
REMARK    3  A    between atoms: C5_6  and  O2_7 
REMARK    4  A    between atoms: O2_7  and  C6_8 
REMARK    5  A    between atoms: C7_9  and  O3_10 
REMARK    6  A    between atoms: C8_12  and  C9_13 
REMARK    7  A    between atoms: C9_13  and  N1_14 
REMARK    8  A    between atoms: C12_21  and  N2_22 
REMARK    9  A    between atoms: C14_25  and  N3_26 
REMARK   10  A    between atoms: C15_30  and  O5_31 
REMARK   11  A    between atoms: O5_31  and  C16_32 
REMARK   12  A    between atoms: C17_34  and  C18_35 
REMARK   13  A    between atoms: C18_35  and  N4_36 
REMARK       I    between atoms: N4_36  and  C19_37 
REMARK   14  A    between atoms: C23_42  and  N5_43 
REMARK   15  A    between atoms: C24_47  and  O8_48 
ROOT
HETATM    1  C4  UNL     1      26.437  16.782   0.469  1.00  0.00     0.156 C 
HETATM    2  O1  UNL     1      27.258  15.746  -0.100  1.00  0.00    -0.351 OA
HETATM    3  C5  UNL     1      26.521  15.251  -1.170  1.00  0.00     0.293 C 
HETATM    4  C14 UNL     1      25.117  15.024  -0.803  1.00  0.00     0.269 C 
HETATM    5  C15 UNL     1      24.859  14.962   0.734  1.00  0.00     0.191 C 
HETATM    6  C24 UNL     1      25.587  16.035   1.478  1.00  0.00     0.178 C 
ENDROOT
BRANCH   3   7
HETATM    7  O2  UNL     1      26.699  16.087  -2.278  1.00  0.00    -0.349 OA
BRANCH   7   8
HETATM    8  C6  UNL     1      27.296  15.467  -3.380  1.00  0.00     0.180 C 
HETATM    9  C7  UNL     1      28.075  16.523  -4.145  1.00  0.00     0.179 C 
HETATM   10  C8  UNL     1      29.349  16.853  -3.449  1.00  0.00     0.178 C 
HETATM   11  O4  UNL     1      30.034  15.769  -2.974  1.00  0.00    -0.374 OA
HETATM   12  C10 UNL     1      29.577  14.532  -3.260  1.00  0.00     0.143 C 
HETATM   13  C11 UNL     1      30.430  13.565  -2.411  1.00  0.00     0.042 C 
HETATM   14  C12 UNL     1      28.112  14.261  -3.049  1.00  0.00     0.136 C 
BRANCH   9  15
HETATM   15  O3  UNL     1      28.419  16.004  -5.401  1.00  0.00    -0.390 OA
ATOM     16  H3  UNL     1      28.734  16.714  -5.948  1.00  0.00     0.210 HD
ENDBRANCH   9  15
BRANCH  10  17
HETATM   17  C9  UNL     1      29.229  17.905  -2.353  1.00  0.00     0.264 C 
BRANCH  17  18
HETATM   18  N1  UNL     1      30.561  18.283  -1.875  1.00  0.00    -0.077 N 
ATOM     19  H13 UNL     1      31.228  17.516  -1.957  1.00  0.00     0.274 HD
ATOM     20  H12 UNL     1      31.019  18.946  -2.501  1.00  0.00     0.274 HD
ATOM     21  H11 UNL     1      30.500  18.638  -0.921  1.00  0.00     0.274 HD
ENDBRANCH  17  18
ENDBRANCH  10  17
BRANCH  14  22
HETATM   22  N2  UNL     1      27.775  13.195  -3.969  1.00  0.00    -0.417 N 
HETATM   23  C13 UNL     1      26.498  13.189  -4.552  1.00  0.00     0.140 C 
ATOM     24  H2  UNL     1      28.451  12.463  -4.188  1.00  0.00     0.153 HD
ENDBRANCH  14  22
ENDBRANCH   7   8
ENDBRANCH   3   7
BRANCH   4  25
HETATM   25  N3  UNL     1      24.110  15.790  -1.455  1.00  0.00    -0.068 N 
ATOM     26  H33 UNL     1      24.358  16.777  -1.402  1.00  0.00     0.275 HD
ATOM     27  H32 UNL     1      24.168  15.627  -2.460  1.00  0.00     0.275 HD
ATOM     28  H31 UNL     1      23.141  15.677  -1.158  1.00  0.00     0.275 HD
ENDBRANCH   4  25
BRANCH   1  29
HETATM   29  C3  UNL     1      27.142  17.935   0.789  1.00  0.00     0.034 C 
BRANCH  29  30
HETATM   30  C2  UNL     1      26.746  19.105   0.128  1.00  0.00    -0.002 C 
HETATM   31  C1  UNL     1      27.830  20.230   0.247  1.00  0.00     0.005 C 
ENDBRANCH  29  30
ENDBRANCH   1  29
BRANCH   5  32
HETATM   32  O5  UNL     1      23.478  15.115   0.798  1.00  0.00    -0.349 OA
BRANCH  32  33
HETATM   33  C16 UNL     1      22.870  13.911   1.295  1.00  0.00     0.291 C 
HETATM   34  O6  UNL     1      23.419  13.875   2.608  1.00  0.00    -0.348 OA
HETATM   35  C17 UNL     1      22.959  12.807   3.335  1.00  0.00     0.176 C 
HETATM   36  C21 UNL     1      23.533  11.553   2.795  1.00  0.00     0.041 C 
HETATM   37  C22 UNL     1      23.015  11.440   1.363  1.00  0.00     0.041 C 
HETATM   38  C23 UNL     1      23.230  12.695   0.570  1.00  0.00     0.238 C 
BRANCH  35  39
HETATM   39  C18 UNL     1      23.216  13.114   4.759  1.00  0.00     0.191 C 
BRANCH  39  40
HETATM   40  N4  UNL     1      23.950  14.198   5.189  1.00  0.00    -0.385 NA
HETATM   41  C19 UNL     1      24.669  15.231   5.591  1.00  0.00     0.286 C 
HETATM   42  C20 UNL     1      23.931  16.132   6.630  1.00  0.00     0.135 C 
HETATM   43  O7  UNL     1      25.835  15.677   5.353  1.00  0.00    -0.258 OA
ENDBRANCH  39  40
ENDBRANCH  35  39
BRANCH  38  44
HETATM   44  N5  UNL     1      22.449  12.559  -0.673  1.00  0.00    -0.070 N 
ATOM     45  H53 UNL     1      21.681  11.897  -0.562  1.00  0.00     0.274 HD
ATOM     46  H52 UNL     1      21.905  13.399  -0.868  1.00  0.00     0.274 HD
ATOM     47  H51 UNL     1      23.046  12.309  -1.462  1.00  0.00     0.274 HD
ENDBRANCH  38  44
ENDBRANCH  32  33
ENDBRANCH   5  32
BRANCH   6  48
HETATM   48  O8  UNL     1      26.356  15.414   2.448  1.00  0.00    -0.390 OA
ATOM     49  H8  UNL     1      25.890  14.704   2.873  1.00  0.00     0.210 HD
ENDBRANCH   6  48
TORSDOF 15
ENDMDL
MODEL 2
REMARK VINA RESULT: -5.141870586      1.598      2.865
REMARK  15 active torsions:
REMARK  status: ('A' for Active; 'I' for Inactive)
REMARK    1  A    between atoms: C2_2  and  C3_3 
REMARK    2  A    between atoms: C3_3  and  C4_4 
REMARK    3  A    between atoms: C5_6  and  O2_7 
REMARK    4  A    between atoms: O2_7  and  C6_8 
REMARK    5  A    between atoms: C7_9  and  O3_10 
REMARK    6  A    between atoms: C8_12  and  C9_13 
REMARK    7  A    between atoms: C9_13  and  N1_14 
REMARK    8  A    between atoms: C12_21  and  N2_22 
REMARK    9  A    between atoms: C14_25  and  N3_26 
REMARK   10  A    between atoms: C15_30  and  O5_31 
REMARK   11  A    between atoms: O5_31  and  C16_32 
REMARK   12  A    between atoms: C17_34  and  C18_35 
REMARK   13  A    between atoms: C18_35  and  N4_36 
REMARK       I    between atoms: N4_36  and  C19_37 
REMARK   14  A    between atoms: C23_42  and  N5_43 
REMARK   15  A    between atoms: C24_47  and  O8_48 
ROOT
HETATM    1  C4  UNL     1      26.525  16.645   0.151  1.00  0.00     0.156 C 
HETATM    2  O1  UNL     1      27.010  15.366  -0.297  1.00  0.00    -0.351 OA
HETATM    3  C5  UNL     1      26.043  14.906  -1.184  1.00  0.00     0.293 C 
HETATM    4  C14 UNL     1      24.687  15.085  -0.648  1.00  0.00     0.269 C 
HETATM    5  C15 UNL     1      24.633  15.324   0.892  1.00  0.00     0.191 C 
HETATM    6  C24 UNL     1      25.676  16.289   1.356  1.00  0.00     0.178 C 
ENDROOT
BRANCH   3   7
HETATM    7  O2  UNL     1      26.249  15.494  -2.437  1.00  0.00    -0.349 OA
BRANCH   7   8
HETATM    8  C6  UNL     1      27.251  14.887  -3.202  1.00  0.00     0.180 C 
HETATM    9  C7  UNL     1      26.731  13.535  -3.662  1.00  0.00     0.179 C 
HETATM   10  C8  UNL     1      25.760  13.691  -4.780  1.00  0.00     0.178 C 
HETATM   11  O4  UNL     1      26.134  14.593  -5.736  1.00  0.00    -0.374 OA
HETATM   12  C10 UNL     1      27.355  15.164  -5.652  1.00  0.00     0.143 C 
HETATM   13  C11 UNL     1      27.374  16.268  -6.731  1.00  0.00     0.042 C 
HETATM   14  C12 UNL     1      27.775  15.725  -4.321  1.00  0.00     0.136 C 
BRANCH   9  15
HETATM   15  O3  UNL     1      27.808  12.786  -4.157  1.00  0.00    -0.390 OA
ATOM     16  H3  UNL     1      27.470  12.121  -4.745  1.00  0.00     0.210 HD
ENDBRANCH   9  15
BRANCH  10  17
HETATM   17  C9  UNL     1      24.323  13.964  -4.350  1.00  0.00     0.264 C 
BRANCH  17  18
HETATM   18  N1  UNL     1      23.950  15.336  -4.699  1.00  0.00    -0.077 N 
ATOM     19  H13 UNL     1      24.257  16.007  -3.994  1.00  0.00     0.274 HD
ATOM     20  H12 UNL     1      24.491  15.692  -5.487  1.00  0.00     0.274 HD
ATOM     21  H11 UNL     1      22.946  15.391  -4.868  1.00  0.00     0.274 HD
ENDBRANCH  17  18
ENDBRANCH  10  17
BRANCH  14  22
HETATM   22  N2  UNL     1      29.221  15.673  -4.313  1.00  0.00    -0.417 N 
HETATM   23  C13 UNL     1      29.878  15.406  -3.100  1.00  0.00     0.140 C 
ATOM     24  H2  UNL     1      29.753  15.828  -5.171  1.00  0.00     0.153 HD
ENDBRANCH  14  22
ENDBRANCH   7   8
ENDBRANCH   3   7
BRANCH   4  25
HETATM   25  N3  UNL     1      23.796  15.963  -1.328  1.00  0.00    -0.068 N 
ATOM     26  H33 UNL     1      24.305  16.802  -1.605  1.00  0.00     0.275 HD
ATOM     27  H32 UNL     1      23.567  15.564  -2.238  1.00  0.00     0.275 HD
ATOM     28  H31 UNL     1      22.932  16.240  -0.862  1.00  0.00     0.275 HD
ENDBRANCH   4  25
BRANCH   1  29
HETATM   29  C3  UNL     1      27.506  17.627   0.187  1.00  0.00     0.034 C 
BRANCH  29  30
HETATM   30  C2  UNL     1      28.492  17.553  -0.805  1.00  0.00    -0.002 C 
HETATM   31  C1  UNL     1      29.091  18.963  -1.130  1.00  0.00     0.005 C 
ENDBRANCH  29  30
ENDBRANCH   1  29
BRANCH   5  32
HETATM   32  O5  UNL     1      23.343  15.815   1.060  1.00  0.00    -0.349 OA
BRANCH  32  33
HETATM   33  C16 UNL     1      22.605  14.969   1.957  1.00  0.00     0.291 C 
HETATM   34  O6  UNL     1      23.479  14.970   3.081  1.00  0.00    -0.348 OA
HETATM   35  C17 UNL     1      22.980  14.239   4.129  1.00  0.00     0.176 C 
HETATM   36  C21 UNL     1      23.015  12.797   3.791  1.00  0.00     0.041 C 
HETATM   37  C22 UNL     1      22.096  12.629   2.585  1.00  0.00     0.041 C 
HETATM   38  C23 UNL     1      22.400  13.602   1.485  1.00  0.00     0.238 C 
BRANCH  35  39
HETATM   39  C18 UNL     1      23.709  14.672   5.340  1.00  0.00     0.191 C 
BRANCH  39  40
HETATM   40  N4  UNL     1      24.887  15.386   5.311  1.00  0.00    -0.385 NA
HETATM   41  C19 UNL     1      26.027  16.054   5.283  1.00  0.00     0.286 C 
HETATM   42  C20 UNL     1      25.843  17.598   5.416  1.00  0.00     0.135 C 
HETATM   43  O7  UNL     1      27.257  15.752   5.189  1.00  0.00    -0.258 OA
ENDBRANCH  39  40
ENDBRANCH  35  39
BRANCH  38  44
HETATM   44  N5  UNL     1      21.287  13.526   0.521  1.00  0.00    -0.070 N 
ATOM     45  H53 UNL     1      21.333  14.280  -0.164  1.00  0.00     0.274 HD
ATOM     46  H52 UNL     1      21.393  12.733  -0.112  1.00  0.00     0.274 HD
ATOM     47  H51 UNL     1      20.385  13.507   0.996  1.00  0.00     0.274 HD
ENDBRANCH  38  44
ENDBRANCH  32  33
ENDBRANCH   5  32
BRANCH   6  48
HETATM   48  O8  UNL     1      26.412  15.657   2.344  1.00  0.00    -0.390 OA
ATOM     49  H8  UNL     1      25.892  15.028   2.830  1.00  0.00     0.210 HD
ENDBRANCH   6  48
TORSDOF 15
ENDMDL
MODEL 3
REMARK VINA RESULT: -5.092922552      4.203      9.983
REMARK  15 active torsions:
REMARK  status: ('A' for Active; 'I' for Inactive)
REMARK    1  A    between atoms: C2_2  and  C3_3 
REMARK    2  A    between atoms: C3_3  and  C4_4 
REMARK    3  A    between atoms: C5_6  and  O2_7 
REMARK    4  A    between atoms: O2_7  and  C6_8 
REMARK    5  A    between atoms: C7_9  and  O3_10 
REMARK    6  A    between atoms: C8_12  and  C9_13 
REMARK    7  A    between atoms: C9_13  and  N1_14 
REMARK    8  A    between atoms: C12_21  and  N2_22 
REMARK    9  A    between atoms: C14_25  and  N3_26 
REMARK   10  A    between atoms: C15_30  and  O5_31 
REMARK   11  A    between atoms: O5_31  and  C16_32 
REMARK   12  A    between atoms: C17_34  and  C18_35 
REMARK   13  A    between atoms: C18_35  and  N4_36 
REMARK       I    between atoms: N4_36  and  C19_37 
REMARK   14  A    between atoms: C23_42  and  N5_43 
REMARK   15  A    between atoms: C24_47  and  O8_48 
ROOT
HETATM    1  C4  UNL     1      28.498  19.689  -1.174  1.00  0.00     0.156 C 
HETATM    2  O1  UNL     1      27.331  19.324  -1.933  1.00  0.00    -0.351 OA
HETATM    3  C5  UNL     1      27.776  18.367  -2.838  1.00  0.00     0.293 C 
HETATM    4  C14 UNL     1      29.033  18.772  -3.482  1.00  0.00     0.269 C 
HETATM    5  C15 UNL     1      29.354  20.293  -3.360  1.00  0.00     0.191 C 
HETATM    6  C24 UNL     1      29.097  20.822  -1.985  1.00  0.00     0.178 C 
ENDROOT
BRANCH   3   7
HETATM    7  O2  UNL     1      27.830  17.121  -2.202  1.00  0.00    -0.349 OA
BRANCH   7   8
HETATM    8  C6  UNL     1      26.713  16.310  -2.427  1.00  0.00     0.180 C 
HETATM    9  C7  UNL     1      27.084  15.287  -3.486  1.00  0.00     0.179 C 
HETATM   10  C8  UNL     1      27.939  14.211  -2.911  1.00  0.00     0.178 C 
HETATM   11  O4  UNL     1      27.529  13.752  -1.691  1.00  0.00    -0.374 OA
HETATM   12  C10 UNL     1      26.367  14.210  -1.178  1.00  0.00     0.143 C 
HETATM   13  C11 UNL     1      26.311  13.674   0.269  1.00  0.00     0.042 C 
HETATM   14  C12 UNL     1      26.132  15.695  -1.195  1.00  0.00     0.136 C 
BRANCH   9  15
HETATM   15  O3  UNL     1      25.911  14.673  -3.947  1.00  0.00    -0.390 OA
ATOM     16  H3  UNL     1      25.500  14.219  -3.221  1.00  0.00     0.210 HD
ENDBRANCH   9  15
BRANCH  10  17
HETATM   17  C9  UNL     1      29.429  14.530  -2.866  1.00  0.00     0.264 C 
BRANCH  17  18
HETATM   18  N1  UNL     1      30.197  13.401  -3.396  1.00  0.00    -0.077 N 
ATOM     19  H13 UNL     1      29.768  13.005  -4.232  1.00  0.00     0.274 HD
ATOM     20  H12 UNL     1      31.081  13.699  -3.809  1.00  0.00     0.274 HD
ATOM     21  H11 UNL     1      30.332  12.701  -2.667  1.00  0.00     0.274 HD
ENDBRANCH  17  18
ENDBRANCH  10  17
BRANCH  14  22
HETATM   22  N2  UNL     1      24.694  15.863  -1.216  1.00  0.00    -0.417 N 
HETATM   23  C13 UNL     1      24.171  17.138  -1.491  1.00  0.00     0.140 C 
ATOM     24  H2  UNL     1      24.075  15.074  -1.034  1.00  0.00     0.153 HD
ENDBRANCH  14  22
ENDBRANCH   7   8
ENDBRANCH   3   7
BRANCH   4  25
HETATM   25  N3  UNL     1      30.200  17.989  -3.251  1.00  0.00    -0.068 N 
ATOM     26  H33 UNL     1      29.970  17.236  -2.603  1.00  0.00     0.275 HD
ATOM     27  H32 UNL     1      30.416  17.461  -4.097  1.00  0.00     0.275 HD
ATOM     28  H31 UNL     1      31.046  18.457  -2.928  1.00  0.00     0.275 HD
ENDBRANCH   4  25
BRANCH   1  29
HETATM   29  C3  UNL     1      28.263  19.785   0.191  1.00  0.00     0.034 C 
BRANCH  29  30
HETATM   30  C2  UNL     1      26.932  19.636   0.601  1.00  0.00    -0.002 C 
HETATM   31  C1  UNL     1      26.697  18.258   1.308  1.00  0.00     0.005 C 
ENDBRANCH  29  30
ENDBRANCH   1  29
BRANCH   5  32
HETATM   32  O5  UNL     1      30.701  20.330  -3.699  1.00  0.00    -0.349 OA
BRANCH  32  33
HETATM   33  C16 UNL     1      30.936  21.349  -4.685  1.00  0.00     0.291 C 
HETATM   34  O6  UNL     1      31.695  20.609  -5.636  1.00  0.00    -0.348 OA
HETATM   35  C17 UNL     1      32.032  21.361  -6.731  1.00  0.00     0.176 C 
HETATM   36  C21 UNL     1      33.040  22.376  -6.348  1.00  0.00     0.041 C 
HETATM   37  C22 UNL     1      32.358  23.274  -5.319  1.00  0.00     0.041 C 
HETATM   38  C23 UNL     1      31.708  22.496  -4.213  1.00  0.00     0.238 C 
BRANCH  35  39
HETATM   39  C18 UNL     1      32.396  20.415  -7.807  1.00  0.00     0.191 C 
BRANCH  39  40
HETATM   40  N4  UNL     1      33.619  19.785  -7.893  1.00  0.00    -0.385 NA
HETATM   41  C19 UNL     1      34.784  19.166  -7.967  1.00  0.00     0.286 C 
HETATM   42  C20 UNL     1      35.951  20.095  -8.427  1.00  0.00     0.135 C 
HETATM   43  O7  UNL     1      35.205  17.989  -7.742  1.00  0.00    -0.258 OA
ENDBRANCH  39  40
ENDBRANCH  35  39
BRANCH  38  44
HETATM   44  N5  UNL     1      30.862  23.441  -3.460  1.00  0.00    -0.070 N 
ATOM     45  H53 UNL     1      30.047  23.727  -4.003  1.00  0.00     0.274 HD
ATOM     46  H52 UNL     1      30.382  22.980  -2.688  1.00  0.00     0.274 HD
ATOM     47  H51 UNL     1      31.399  24.246  -3.139  1.00  0.00     0.274 HD
ENDBRANCH  38  44
ENDBRANCH  32  33
ENDBRANCH   5  32
BRANCH   6  48
HETATM   48  O8  UNL     1      28.224  21.890  -2.110  1.00  0.00    -0.390 OA
ATOM     49  H8  UNL     1      27.917  22.201  -1.267  1.00  0.00     0.210 HD
ENDBRANCH   6  48
TORSDOF 15
ENDMDL
MODEL 4
REMARK VINA RESULT: -5.064257787      3.224      6.711
REMARK  15 active torsions:
REMARK  status: ('A' for Active; 'I' for Inactive)
REMARK    1  A    between atoms: C2_2  and  C3_3 
REMARK    2  A    between atoms: C3_3  and  C4_4 
REMARK    3  A    between atoms: C5_6  and  O2_7 
REMARK    4  A    between atoms: O2_7  and  C6_8 
REMARK    5  A    between atoms: C7_9  and  O3_10 
REMARK    6  A    between atoms: C8_12  and  C9_13 
REMARK    7  A    between atoms: C9_13  and  N1_14 
REMARK    8  A    between atoms: C12_21  and  N2_22 
REMARK    9  A    between atoms: C14_25  and  N3_26 
REMARK   10  A    between atoms: C15_30  and  O5_31 
REMARK   11  A    between atoms: O5_31  and  C16_32 
REMARK   12  A    between atoms: C17_34  and  C18_35 
REMARK   13  A    between atoms: C18_35  and  N4_36 
REMARK       I    between atoms: N4_36  and  C19_37 
REMARK   14  A    between atoms: C23_42  and  N5_43 
REMARK   15  A    between atoms: C24_47  and  O8_48 
ROOT
HETATM    1  C4  UNL     1      28.047  15.563  -1.712  1.00  0.00     0.156 C 
HETATM    2  O1  UNL     1      27.056  15.901  -2.699  1.00  0.00    -0.351 OA
HETATM    3  C5  UNL     1      27.769  16.493  -3.736  1.00  0.00     0.293 C 
HETATM    4  C14 UNL     1      28.741  17.474  -3.234  1.00  0.00     0.269 C 
HETATM    5  C15 UNL     1      28.477  17.947  -1.772  1.00  0.00     0.191 C 
HETATM    6  C24 UNL     1      28.128  16.815  -0.860  1.00  0.00     0.178 C 
ENDROOT
BRANCH   3   7
HETATM    7  O2  UNL     1      28.323  15.494  -4.543  1.00  0.00    -0.349 OA
BRANCH   7   8
HETATM    8  C6  UNL     1      28.035  15.627  -5.906  1.00  0.00     0.180 C 
HETATM    9  C7  UNL     1      27.725  14.245  -6.454  1.00  0.00     0.179 C 
HETATM   10  C8  UNL     1      26.359  13.807  -6.052  1.00  0.00     0.178 C 
HETATM   11  O4  UNL     1      25.398  14.772  -6.164  1.00  0.00    -0.374 OA
HETATM   12  C10 UNL     1      25.727  15.960  -6.714  1.00  0.00     0.143 C 
HETATM   13  C11 UNL     1      24.503  16.875  -6.493  1.00  0.00     0.042 C 
HETATM   14  C12 UNL     1      26.979  16.634  -6.224  1.00  0.00     0.136 C 
BRANCH   9  15
HETATM   15  O3  UNL     1      27.739  14.304  -7.855  1.00  0.00    -0.390 OA
ATOM     16  H3  UNL     1      28.369  13.672  -8.179  1.00  0.00     0.210 HD
ENDBRANCH   9  15
BRANCH  10  17
HETATM   17  C9  UNL     1      26.272  13.152  -4.679  1.00  0.00     0.264 C 
BRANCH  17  18
HETATM   18  N1  UNL     1      27.545  12.504  -4.354  1.00  0.00    -0.077 N 
ATOM     19  H13 UNL     1      27.465  11.486  -4.344  1.00  0.00     0.274 HD
ATOM     20  H12 UNL     1      28.224  12.592  -5.110  1.00  0.00     0.274 HD
ATOM     21  H11 UNL     1      27.905  12.868  -3.472  1.00  0.00     0.274 HD
ENDBRANCH  17  18
ENDBRANCH  10  17
BRANCH  14  22
HETATM   22  N2  UNL     1      27.432  17.463  -7.321  1.00  0.00    -0.417 N 
HETATM   23  C13 UNL     1      27.358  18.859  -7.183  1.00  0.00     0.140 C 
ATOM     24  H2  UNL     1      27.797  17.043  -8.176  1.00  0.00     0.153 HD
ENDBRANCH  14  22
ENDBRANCH   7   8
ENDBRANCH   3   7
BRANCH   4  25
HETATM   25  N3  UNL     1      30.127  17.228  -3.444  1.00  0.00    -0.068 N 
ATOM     26  H33 UNL     1      30.362  17.458  -4.409  1.00  0.00     0.275 HD
ATOM     27  H32 UNL     1      30.669  17.928  -2.938  1.00  0.00     0.275 HD
ATOM     28  H31 UNL     1      30.497  16.303  -3.226  1.00  0.00     0.275 HD
ENDBRANCH   4  25
BRANCH   1  29
HETATM   29  C3  UNL     1      27.878  14.295  -1.170  1.00  0.00     0.034 C 
BRANCH  29  30
HETATM   30  C2  UNL     1      26.558  13.840  -1.062  1.00  0.00    -0.002 C 
HETATM   31  C1  UNL     1      26.113  13.709   0.434  1.00  0.00     0.005 C 
ENDBRANCH  29  30
ENDBRANCH   1  29
BRANCH   5  32
HETATM   32  O5  UNL     1      29.690  18.540  -1.440  1.00  0.00    -0.349 OA
BRANCH  32  33
HETATM   33  C16 UNL     1      29.482  19.908  -1.052  1.00  0.00     0.291 C 
HETATM   34  O6  UNL     1      28.131  19.841  -0.606  1.00  0.00    -0.348 OA
HETATM   35  C17 UNL     1      27.677  21.046  -0.135  1.00  0.00     0.176 C 
HETATM   36  C21 UNL     1      27.517  21.993  -1.262  1.00  0.00     0.041 C 
HETATM   37  C22 UNL     1      28.913  22.182  -1.850  1.00  0.00     0.041 C 
HETATM   38  C23 UNL     1      29.602  20.881  -2.135  1.00  0.00     0.238 C 
BRANCH  35  39
HETATM   39  C18 UNL     1      26.483  20.763   0.690  1.00  0.00     0.191 C 
BRANCH  39  40
HETATM   40  N4  UNL     1      26.438  19.789   1.664  1.00  0.00    -0.385 NA
HETATM   41  C19 UNL     1      26.394  18.841   2.584  1.00  0.00     0.286 C 
HETATM   42  C20 UNL     1      26.311  19.396   4.041  1.00  0.00     0.135 C 
HETATM   43  O7  UNL     1      26.387  17.571   2.584  1.00  0.00    -0.258 OA
ENDBRANCH  39  40
ENDBRANCH  35  39
BRANCH  38  44
HETATM   44  N5  UNL     1      31.013  21.194  -2.424  1.00  0.00    -0.070 N 
ATOM     45  H53 UNL     1      31.290  22.086  -2.014  1.00  0.00     0.274 HD
ATOM     46  H52 UNL     1      31.645  20.582  -1.908  1.00  0.00     0.274 HD
ATOM     47  H51 UNL     1      31.203  21.168  -3.425  1.00  0.00     0.274 HD
ENDBRANCH  38  44
ENDBRANCH  32  33
ENDBRANCH   5  32
BRANCH   6  48
HETATM   48  O8  UNL     1      26.914  17.121  -0.268  1.00  0.00    -0.390 OA
ATOM     49  H8  UNL     1      26.356  17.632  -0.842  1.00  0.00     0.210 HD
ENDBRANCH   6  48
TORSDOF 15
ENDMDL
MODEL 5
REMARK VINA RESULT: -5.051374367      2.491      4.152
REMARK  15 active torsions:
REMARK  status: ('A' for Active; 'I' for Inactive)
REMARK    1  A    between atoms: C2_2  and  C3_3 
REMARK    2  A    between atoms: C3_3  and  C4_4 
REMARK    3  A    between atoms: C5_6  and  O2_7 
REMARK    4  A    between atoms: O2_7  and  C6_8 
REMARK    5  A    between atoms: C7_9  and  O3_10 
REMARK    6  A    between atoms: C8_12  and  C9_13 
REMARK    7  A    between atoms: C9_13  and  N1_14 
REMARK    8  A    between atoms: C12_21  and  N2_22 
REMARK    9  A    between atoms: C14_25  and  N3_26 
REMARK   10  A    between atoms: C15_30  and  O5_31 
REMARK   11  A    between atoms: O5_31  and  C16_32 
REMARK   12  A    between atoms: C17_34  and  C18_35 
REMARK   13  A    between atoms: C18_35  and  N4_36 
REMARK       I    between atoms: N4_36  and  C19_37 
REMARK   14  A    between atoms: C23_42  and  N5_43 
REMARK   15  A    between atoms: C24_47  and  O8_48 
ROOT
HETATM    1  C4  UNL     1      26.917  16.291  -0.952  1.00  0.00     0.156 C 
HETATM    2  O1  UNL     1      26.662  14.929  -1.342  1.00  0.00    -0.351 OA
HETATM    3  C5  UNL     1      25.673  15.013  -2.316  1.00  0.00     0.293 C 
HETATM    4  C14 UNL     1      24.595  15.928  -1.916  1.00  0.00     0.269 C 
HETATM    5  C15 UNL     1      24.560  16.249  -0.390  1.00  0.00     0.191 C 
HETATM    6  C24 UNL     1      25.920  16.523   0.167  1.00  0.00     0.178 C 
ENDROOT
BRANCH   3   7
HETATM    7  O2  UNL     1      26.263  15.321  -3.546  1.00  0.00    -0.349 OA
BRANCH   7   8
HETATM    8  C6  UNL     1      27.195  14.377  -3.991  1.00  0.00     0.180 C 
HETATM    9  C7  UNL     1      26.447  13.093  -4.301  1.00  0.00     0.179 C 
HETATM   10  C8  UNL     1      25.713  13.202  -5.593  1.00  0.00     0.178 C 
HETATM   11  O4  UNL     1      26.424  13.789  -6.601  1.00  0.00    -0.374 OA
HETATM   12  C10 UNL     1      27.719  14.107  -6.388  1.00  0.00     0.143 C 
HETATM   13  C11 UNL     1      28.153  14.933  -7.618  1.00  0.00     0.042 C 
HETATM   14  C12 UNL     1      28.059  14.839  -5.119  1.00  0.00     0.136 C 
BRANCH   9  15
HETATM   15  O3  UNL     1      27.378  12.055  -4.447  1.00  0.00    -0.390 OA
ATOM     16  H3  UNL     1      27.804  12.145  -5.292  1.00  0.00     0.210 HD
ENDBRANCH   9  15
BRANCH  10  17
HETATM   17  C9  UNL     1      24.334  13.842  -5.496  1.00  0.00     0.264 C 
BRANCH  17  18
HETATM   18  N1  UNL     1      24.394  15.231  -5.958  1.00  0.00    -0.077 N 
ATOM     19  H13 UNL     1      25.122  15.762  -5.479  1.00  0.00     0.274 HD
ATOM     20  H12 UNL     1      24.759  15.303  -6.908  1.00  0.00     0.274 HD
ATOM     21  H11 UNL     1      23.478  15.668  -5.866  1.00  0.00     0.274 HD
ENDBRANCH  17  18
ENDBRANCH  10  17
BRANCH  14  22
HETATM   22  N2  UNL     1      29.436  14.500  -4.829  1.00  0.00    -0.417 N 
HETATM   23  C13 UNL     1      29.836  14.403  -3.486  1.00  0.00     0.140 C 
ATOM     24  H2  UNL     1      30.103  14.335  -5.584  1.00  0.00     0.153 HD
ENDBRANCH  14  22
ENDBRANCH   7   8
ENDBRANCH   3   7
BRANCH   4  25
HETATM   25  N3  UNL     1      24.382  17.107  -2.686  1.00  0.00    -0.068 N 
ATOM     26  H33 UNL     1      25.108  17.173  -3.398  1.00  0.00     0.275 HD
ATOM     27  H32 UNL     1      23.551  16.979  -3.264  1.00  0.00     0.275 HD
ATOM     28  H31 UNL     1      24.312  18.001  -2.201  1.00  0.00     0.275 HD
ENDBRANCH   4  25
BRANCH   1  29
HETATM   29  C3  UNL     1      28.268  16.587  -0.827  1.00  0.00     0.034 C 
BRANCH  29  30
HETATM   30  C2  UNL     1      28.634  17.918  -1.069  1.00  0.00    -0.002 C 
HETATM   31  C1  UNL     1      29.966  18.011  -1.889  1.00  0.00     0.005 C 
ENDBRANCH  29  30
ENDBRANCH   1  29
BRANCH   5  32
HETATM   32  O5  UNL     1      23.736  17.368  -0.352  1.00  0.00    -0.349 OA
BRANCH  32  33
HETATM   33  C16 UNL     1      23.164  17.517   0.958  1.00  0.00     0.291 C 
HETATM   34  O6  UNL     1      23.091  16.152   1.357  1.00  0.00    -0.348 OA
HETATM   35  C17 UNL     1      22.595  16.006   2.627  1.00  0.00     0.176 C 
HETATM   36  C21 UNL     1      21.153  16.344   2.640  1.00  0.00     0.041 C 
HETATM   37  C22 UNL     1      21.064  17.813   2.236  1.00  0.00     0.041 C 
HETATM   38  C23 UNL     1      21.832  18.116   0.984  1.00  0.00     0.238 C 
BRANCH  35  39
HETATM   39  C18 UNL     1      22.982  14.656   3.088  1.00  0.00     0.191 C 
BRANCH  39  40
HETATM   40  N4  UNL     1      23.622  13.729   2.293  1.00  0.00    -0.385 NA
HETATM   41  C19 UNL     1      24.251  12.853   1.531  1.00  0.00     0.286 C 
HETATM   42  C20 UNL     1      23.364  11.634   1.126  1.00  0.00     0.135 C 
HETATM   43  O7  UNL     1      25.412  12.755   1.023  1.00  0.00    -0.258 OA
ENDBRANCH  39  40
ENDBRANCH  35  39
BRANCH  38  44
HETATM   44  N5  UNL     1      21.900  19.584   0.864  1.00  0.00    -0.070 N 
ATOM     45  H53 UNL     1      22.502  19.869   0.091  1.00  0.00     0.274 HD
ATOM     46  H52 UNL     1      21.020  19.973   0.527  1.00  0.00     0.274 HD
ATOM     47  H51 UNL     1      22.188  20.016   1.741  1.00  0.00     0.274 HD
ENDBRANCH  38  44
ENDBRANCH  32  33
ENDBRANCH   5  32
BRANCH   6  48
HETATM   48  O8  UNL     1      26.115  15.652   1.226  1.00  0.00    -0.390 OA
ATOM     49  H8  UNL     1      25.965  14.748   0.978  1.00  0.00     0.210 HD
ENDBRANCH   6  48
TORSDOF 15
ENDMDL
