MODEL 1
REMARK VINA RESULT: -6.333291605      0.000      0.000
REMARK  12 active torsions:
REMARK  status: ('A' for Active; 'I' for Inactive)
REMARK    1  A    between atoms: N1_1  and  C1_5 
REMARK    2  A    between atoms: C2_8  and  N3_9 
REMARK    3  A    between atoms: N3_9  and  N4_11 
REMARK    4  A    between atoms: N4_11  and  C3_13 
REMARK    5  A    between atoms: C9_21  and  C10_22 
REMARK    6  A    between atoms: C10_22  and  N6_23 
REMARK    7  A    between atoms: N7_26  and  N8_28 
REMARK       I    between atoms: N8_28  and  C12_30 
REMARK    8  A    between atoms: C12_30  and  C13_32 
REMARK    9  A    between atoms: C13_32  and  C14_33 
REMARK   10  A    between atoms: C13_32  and  C15_36 
REMARK   11  A    between atoms: C14_33  and  O3_34 
REMARK   12  A    between atoms: C15_36  and  C16_37 
ROOT
HETATM    1  N6  UNL     1      25.535  15.752  -0.184  1.00  0.00    -0.056 NA
HETATM    2  O1  UNL     1      25.176  16.630   0.815  1.00  0.00    -0.207 OA
HETATM    3  C11 UNL     1      25.456  16.092   2.087  1.00  0.00     0.268 C 
HETATM    4  N7  UNL     1      26.078  16.738   3.031  1.00  0.00    -0.261 N 
ATOM      5  H7  UNL     1      26.400  17.695   2.885  1.00  0.00     0.190 HD
HETATM    6  N9  UNL     1      24.958  14.770   2.153  1.00  0.00    -0.233 N 
ATOM      7  H9  UNL     1      24.690  14.241   2.982  1.00  0.00     0.183 HD
HETATM    8  S1  UNL     1      24.911  14.261   0.506  1.00  0.00     0.328 S 
HETATM    9  O5  UNL     1      25.809  13.109   0.246  1.00  0.00    -0.186 OA
HETATM   10  O6  UNL     1      23.499  14.013   0.049  1.00  0.00    -0.186 OA
ENDROOT
BRANCH   1  11
HETATM   11  C10 UNL     1      26.975  15.671  -0.185  1.00  0.00     0.178 C 
BRANCH  11  12
HETATM   12  C9  UNL     1      27.552  15.959  -1.559  1.00  0.00     0.181 C 
HETATM   13  N5  UNL     1      28.700  16.816  -1.444  1.00  0.00    -0.210 N 
HETATM   14  C2  UNL     1      29.847  16.796  -2.286  1.00  0.00     0.691 C 
ATOM     15  H5  UNL     1      28.692  17.502  -0.688  1.00  0.00     0.179 HD
HETATM   16  N2  UNL     1      30.350  15.738  -2.779  1.00  0.00    -0.187 N 
HETATM   17  C1  UNL     1      29.870  14.399  -2.591  1.00  0.00     0.362 C 
ATOM     18  H2  UNL     1      31.176  15.852  -3.365  1.00  0.00     0.180 HD
HETATM   19  S2  UNL     1      28.105  14.365  -2.230  1.00  0.00    -0.088 SA
BRANCH  14  20
HETATM   20  N3  UNL     1      30.466  18.037  -2.585  1.00  0.00    -0.132 N 
ATOM     21  H3  UNL     1      31.459  18.059  -2.817  1.00  0.00     0.205 HD
BRANCH  20  22
HETATM   22  N4  UNL     1      29.749  19.210  -2.569  1.00  0.00    -0.287 N 
ATOM     23  H4  UNL     1      29.028  19.353  -3.275  1.00  0.00     0.187 HD
BRANCH  22  24
HETATM   24  C3  UNL     1      29.974  20.224  -1.612  1.00  0.00     0.048 A 
HETATM   25  C4  UNL     1      29.066  20.543  -0.623  1.00  0.00     0.031 A 
HETATM   26  C5  UNL     1      29.310  21.539   0.298  1.00  0.00     0.002 A 
HETATM   27  C6  UNL     1      30.494  22.257   0.251  1.00  0.00     0.000 A 
HETATM   28  C7  UNL     1      31.419  21.960  -0.727  1.00  0.00     0.002 A 
HETATM   29  C8  UNL     1      31.153  20.961  -1.636  1.00  0.00     0.031 A 
ENDBRANCH  22  24
ENDBRANCH  20  22
ENDBRANCH  14  20
BRANCH  17  30
HETATM   30  N1  UNL     1      30.110  13.540  -3.741  1.00  0.00    -0.049 N 
ATOM     31  H13 UNL     1      31.108  13.469  -3.939  1.00  0.00     0.277 HD
ATOM     32  H12 UNL     1      29.916  12.565  -3.512  1.00  0.00     0.277 HD
ATOM     33  H11 UNL     1      29.594  13.829  -4.571  1.00  0.00     0.277 HD
ENDBRANCH  17  30
ENDBRANCH  11  12
ENDBRANCH   1  11
BRANCH   4  34
HETATM   34  N8  UNL     1      26.296  16.085   4.260  1.00  0.00    -0.267 N 
HETATM   35  C12 UNL     1      25.824  16.641   5.458  1.00  0.00     0.242 C 
HETATM   36  O2  UNL     1      25.184  17.742   5.410  1.00  0.00    -0.271 OA
ATOM     37  H8  UNL     1      26.802  15.200   4.279  1.00  0.00     0.190 HD
BRANCH  35  38
HETATM   38  C13 UNL     1      26.067  15.961   6.763  1.00  0.00     0.105 C 
BRANCH  38  39
HETATM   39  C14 UNL     1      24.981  14.989   7.028  1.00  0.00     0.178 C 
BRANCH  39  40
HETATM   40  O3  UNL     1      24.387  14.578   5.823  1.00  0.00    -0.400 OA
ATOM     41  H3  UNL     1      23.747  13.895   5.986  1.00  0.00     0.209 HD
ENDBRANCH  39  40
ENDBRANCH  38  39
BRANCH  38  42
HETATM   42  C15 UNL     1      27.469  15.595   6.896  1.00  0.00     0.048 C 
BRANCH  42  43
HETATM   43  C16 UNL     1      28.463  16.517   7.483  1.00  0.00     0.124 C 
HETATM   44  C17 UNL     1      28.096  17.634   8.362  1.00  0.00     0.058 C 
HETATM   45  C18 UNL     1      28.307  16.577   9.454  1.00  0.00     0.170 C 
HETATM   46  O4  UNL     1      29.114  15.894   8.577  1.00  0.00    -0.386 OA
ENDBRANCH  42  43
ENDBRANCH  38  42
ENDBRANCH  35  38
ENDBRANCH   4  34
TORSDOF 12
ENDMDL
MODEL 2
REMARK VINA RESULT: -6.312198038      0.622      1.085
REMARK  12 active torsions:
REMARK  status: ('A' for Active; 'I' for Inactive)
REMARK    1  A    between atoms: N1_1  and  C1_5 
REMARK    2  A    between atoms: C2_8  and  N3_9 
REMARK    3  A    between atoms: N3_9  and  N4_11 
REMARK    4  A    between atoms: N4_11  and  C3_13 
REMARK    5  A    between atoms: C9_21  and  C10_22 
REMARK    6  A    between atoms: C10_22  and  N6_23 
REMARK    7  A    between atoms: N7_26  and  N8_28 
REMARK       I    between atoms: N8_28  and  C12_30 
REMARK    8  A    between atoms: C12_30  and  C13_32 
REMARK    9  A    between atoms: C13_32  and  C14_33 
REMARK   10  A    between atoms: C13_32  and  C15_36 
REMARK   11  A    between atoms: C14_33  and  O3_34 
REMARK   12  A    between atoms: C15_36  and  C16_37 
ROOT
HETATM    1  N6  UNL     1      25.420  15.579  -0.269  1.00  0.00    -0.056 NA
HETATM    2  O1  UNL     1      24.897  16.544   0.563  1.00  0.00    -0.207 OA
HETATM    3  C11 UNL     1      25.163  16.245   1.914  1.00  0.00     0.268 C 
HETATM    4  N7  UNL     1      25.644  17.102   2.770  1.00  0.00    -0.261 N 
ATOM      5  H7  UNL     1      25.854  18.059   2.488  1.00  0.00     0.190 HD
HETATM    6  N9  UNL     1      24.828  14.895   2.168  1.00  0.00    -0.233 N 
ATOM      7  H9  UNL     1      24.576  14.467   3.059  1.00  0.00     0.183 HD
HETATM    8  S1  UNL     1      24.942  14.141   0.621  1.00  0.00     0.328 S 
HETATM    9  O5  UNL     1      25.988  13.089   0.583  1.00  0.00    -0.186 OA
HETATM   10  O6  UNL     1      23.601  13.645   0.152  1.00  0.00    -0.186 OA
ENDROOT
BRANCH   1  11
HETATM   11  C10 UNL     1      26.856  15.686  -0.199  1.00  0.00     0.178 C 
BRANCH  11  12
HETATM   12  C9  UNL     1      27.467  15.942  -1.565  1.00  0.00     0.181 C 
HETATM   13  N5  UNL     1      28.636  16.769  -1.438  1.00  0.00    -0.210 N 
HETATM   14  C2  UNL     1      29.798  16.708  -2.258  1.00  0.00     0.691 C 
ATOM     15  H5  UNL     1      28.632  17.464  -0.691  1.00  0.00     0.179 HD
HETATM   16  N2  UNL     1      30.280  15.630  -2.728  1.00  0.00    -0.187 N 
HETATM   17  C1  UNL     1      29.761  14.307  -2.533  1.00  0.00     0.362 C 
ATOM     18  H2  UNL     1      31.120  15.715  -3.300  1.00  0.00     0.180 HD
HETATM   19  S2  UNL     1      27.989  14.325  -2.207  1.00  0.00    -0.088 SA
BRANCH  14  20
HETATM   20  N3  UNL     1      30.456  17.927  -2.560  1.00  0.00    -0.132 N 
ATOM     21  H3  UNL     1      31.456  17.921  -2.761  1.00  0.00     0.205 HD
BRANCH  20  22
HETATM   22  N4  UNL     1      29.768  19.117  -2.586  1.00  0.00    -0.287 N 
ATOM     23  H4  UNL     1      29.060  19.258  -3.305  1.00  0.00     0.187 HD
BRANCH  22  24
HETATM   24  C3  UNL     1      30.005  20.153  -1.654  1.00  0.00     0.048 A 
HETATM   25  C4  UNL     1      31.138  20.940  -1.672  1.00  0.00     0.031 A 
HETATM   26  C5  UNL     1      31.344  21.944  -0.750  1.00  0.00     0.002 A 
HETATM   27  C6  UNL     1      30.401  22.189   0.236  1.00  0.00     0.000 A 
HETATM   28  C7  UNL     1      29.260  21.417   0.277  1.00  0.00     0.002 A 
HETATM   29  C8  UNL     1      29.076  20.421  -0.655  1.00  0.00     0.031 A 
ENDBRANCH  22  24
ENDBRANCH  20  22
ENDBRANCH  14  20
BRANCH  17  30
HETATM   30  N1  UNL     1      29.999  13.427  -3.668  1.00  0.00    -0.049 N 
ATOM     31  H13 UNL     1      29.129  13.225  -4.159  1.00  0.00     0.277 HD
ATOM     32  H12 UNL     1      30.499  13.918  -4.409  1.00  0.00     0.277 HD
ATOM     33  H11 UNL     1      30.482  12.566  -3.412  1.00  0.00     0.277 HD
ENDBRANCH  17  30
ENDBRANCH  11  12
ENDBRANCH   1  11
BRANCH   4  34
HETATM   34  N8  UNL     1      25.866  16.676   4.094  1.00  0.00    -0.267 N 
HETATM   35  C12 UNL     1      24.879  16.850   5.074  1.00  0.00     0.242 C 
HETATM   36  O2  UNL     1      23.774  17.390   4.741  1.00  0.00    -0.271 OA
ATOM     37  H8  UNL     1      26.752  16.237   4.342  1.00  0.00     0.190 HD
BRANCH  35  38
HETATM   38  C13 UNL     1      25.115  16.416   6.482  1.00  0.00     0.105 C 
BRANCH  38  39
HETATM   39  C14 UNL     1      24.596  15.042   6.673  1.00  0.00     0.178 C 
BRANCH  39  40
HETATM   40  O3  UNL     1      24.380  14.422   5.430  1.00  0.00    -0.400 OA
ATOM     41  H3  UNL     1      25.158  13.952   5.154  1.00  0.00     0.209 HD
ENDBRANCH  39  40
ENDBRANCH  38  39
BRANCH  38  42
HETATM   42  C15 UNL     1      26.451  16.794   6.916  1.00  0.00     0.048 C 
BRANCH  42  43
HETATM   43  C16 UNL     1      27.326  15.858   7.651  1.00  0.00     0.124 C 
HETATM   44  C17 UNL     1      28.764  16.088   7.837  1.00  0.00     0.058 C 
HETATM   45  C18 UNL     1      28.281  16.776   9.121  1.00  0.00     0.170 C 
HETATM   46  O4  UNL     1      27.140  16.016   9.047  1.00  0.00    -0.386 OA
ENDBRANCH  42  43
ENDBRANCH  38  42
ENDBRANCH  35  38
ENDBRANCH   4  34
TORSDOF 12
ENDMDL
MODEL 3
REMARK VINA RESULT: -6.287266467      0.763      2.183
REMARK  12 active torsions:
REMARK  status: ('A' for Active; 'I' for Inactive)
REMARK    1  A    between atoms: N1_1  and  C1_5 
REMARK    2  A    between atoms: C2_8  and  N3_9 
REMARK    3  A    between atoms: N3_9  and  N4_11 
REMARK    4  A    between atoms: N4_11  and  C3_13 
REMARK    5  A    between atoms: C9_21  and  C10_22 
REMARK    6  A    between atoms: C10_22  and  N6_23 
REMARK    7  A    between atoms: N7_26  and  N8_28 
REMARK       I    between atoms: N8_28  and  C12_30 
REMARK    8  A    between atoms: C12_30  and  C13_32 
REMARK    9  A    between atoms: C13_32  and  C14_33 
REMARK   10  A    between atoms: C13_32  and  C15_36 
REMARK   11  A    between atoms: C14_33  and  O3_34 
REMARK   12  A    between atoms: C15_36  and  C16_37 
ROOT
HETATM    1  N6  UNL     1      25.464  15.686  -0.303  1.00  0.00    -0.056 NA
HETATM    2  O1  UNL     1      25.017  16.578   0.647  1.00  0.00    -0.207 OA
HETATM    3  C11 UNL     1      25.272  16.100   1.948  1.00  0.00     0.268 C 
HETATM    4  N7  UNL     1      25.819  16.812   2.892  1.00  0.00    -0.261 N 
ATOM      5  H7  UNL     1      26.095  17.778   2.723  1.00  0.00     0.190 HD
HETATM    6  N9  UNL     1      24.843  14.756   2.043  1.00  0.00    -0.233 N 
ATOM      7  H9  UNL     1      24.569  14.242   2.880  1.00  0.00     0.183 HD
HETATM    8  S1  UNL     1      24.891  14.188   0.415  1.00  0.00     0.328 S 
HETATM    9  O5  UNL     1      25.860  13.079   0.234  1.00  0.00    -0.186 OA
HETATM   10  O6  UNL     1      23.515  13.847  -0.088  1.00  0.00    -0.186 OA
ENDROOT
BRANCH   1  11
HETATM   11  C10 UNL     1      26.904  15.684  -0.245  1.00  0.00     0.178 C 
BRANCH  11  12
HETATM   12  C9  UNL     1      27.522  15.963  -1.603  1.00  0.00     0.181 C 
HETATM   13  N5  UNL     1      28.664  16.825  -1.460  1.00  0.00    -0.210 N 
HETATM   14  C2  UNL     1      29.836  16.802  -2.267  1.00  0.00     0.691 C 
ATOM     15  H5  UNL     1      28.631  17.517  -0.711  1.00  0.00     0.179 HD
HETATM   16  N2  UNL     1      30.357  15.741  -2.735  1.00  0.00    -0.187 N 
HETATM   17  C1  UNL     1      29.876  14.402  -2.551  1.00  0.00     0.362 C 
ATOM     18  H2  UNL     1      31.200  15.853  -3.297  1.00  0.00     0.180 HD
HETATM   19  S2  UNL     1      28.101  14.365  -2.244  1.00  0.00    -0.088 SA
BRANCH  14  20
HETATM   20  N3  UNL     1      30.460  18.042  -2.558  1.00  0.00    -0.132 N 
ATOM     21  H3  UNL     1      31.455  18.063  -2.781  1.00  0.00     0.205 HD
BRANCH  20  22
HETATM   22  N4  UNL     1      29.746  19.216  -2.544  1.00  0.00    -0.287 N 
ATOM     23  H4  UNL     1      29.030  19.363  -3.256  1.00  0.00     0.187 HD
BRANCH  22  24
HETATM   24  C3  UNL     1      29.965  20.228  -1.583  1.00  0.00     0.048 A 
HETATM   25  C4  UNL     1      29.065  20.525  -0.580  1.00  0.00     0.031 A 
HETATM   26  C5  UNL     1      29.305  21.518   0.345  1.00  0.00     0.002 A 
HETATM   27  C6  UNL     1      30.475  22.258   0.286  1.00  0.00     0.000 A 
HETATM   28  C7  UNL     1      31.391  21.983  -0.706  1.00  0.00     0.002 A 
HETATM   29  C8  UNL     1      31.131  20.985  -1.618  1.00  0.00     0.031 A 
ENDBRANCH  22  24
ENDBRANCH  20  22
ENDBRANCH  14  20
BRANCH  17  30
HETATM   30  N1  UNL     1      30.153  13.534  -3.685  1.00  0.00    -0.049 N 
ATOM     31  H13 UNL     1      30.800  13.981  -4.335  1.00  0.00     0.277 HD
ATOM     32  H12 UNL     1      30.725  12.738  -3.402  1.00  0.00     0.277 HD
ATOM     33  H11 UNL     1      29.310  13.223  -4.167  1.00  0.00     0.277 HD
ENDBRANCH  17  30
ENDBRANCH  11  12
ENDBRANCH   1  11
BRANCH   4  34
HETATM   34  N8  UNL     1      26.020  16.214   4.152  1.00  0.00    -0.267 N 
HETATM   35  C12 UNL     1      26.576  16.948   5.209  1.00  0.00     0.242 C 
HETATM   36  O2  UNL     1      26.885  18.168   5.011  1.00  0.00    -0.271 OA
ATOM     37  H8  UNL     1      25.759  15.239   4.296  1.00  0.00     0.190 HD
BRANCH  35  38
HETATM   38  C13 UNL     1      26.807  16.315   6.540  1.00  0.00     0.105 C 
BRANCH  38  39
HETATM   39  C14 UNL     1      27.960  16.963   7.206  1.00  0.00     0.178 C 
BRANCH  39  40
HETATM   40  O3  UNL     1      29.039  17.081   6.313  1.00  0.00    -0.400 OA
ATOM     41  H3  UNL     1      28.764  17.519   5.517  1.00  0.00     0.209 HD
ENDBRANCH  39  40
ENDBRANCH  38  39
BRANCH  38  42
HETATM   42  C15 UNL     1      25.544  16.106   7.232  1.00  0.00     0.048 C 
BRANCH  42  43
HETATM   43  C16 UNL     1      24.882  14.785   7.265  1.00  0.00     0.124 C 
HETATM   44  C17 UNL     1      23.484  14.603   7.675  1.00  0.00     0.058 C 
HETATM   45  C18 UNL     1      23.233  14.785   6.172  1.00  0.00     0.170 C 
HETATM   46  O4  UNL     1      24.529  14.388   5.951  1.00  0.00    -0.386 OA
ENDBRANCH  42  43
ENDBRANCH  38  42
ENDBRANCH  35  38
ENDBRANCH   4  34
TORSDOF 12
ENDMDL
MODEL 4
REMARK VINA RESULT: -6.257301628      3.820      6.403
REMARK  12 active torsions:
REMARK  status: ('A' for Active; 'I' for Inactive)
REMARK    1  A    between atoms: N1_1  and  C1_5 
REMARK    2  A    between atoms: C2_8  and  N3_9 
REMARK    3  A    between atoms: N3_9  and  N4_11 
REMARK    4  A    between atoms: N4_11  and  C3_13 
REMARK    5  A    between atoms: C9_21  and  C10_22 
REMARK    6  A    between atoms: C10_22  and  N6_23 
REMARK    7  A    between atoms: N7_26  and  N8_28 
REMARK       I    between atoms: N8_28  and  C12_30 
REMARK    8  A    between atoms: C12_30  and  C13_32 
REMARK    9  A    between atoms: C13_32  and  C14_33 
REMARK   10  A    between atoms: C13_32  and  C15_36 
REMARK   11  A    between atoms: C14_33  and  O3_34 
REMARK   12  A    between atoms: C15_36  and  C16_37 
ROOT
HETATM    1  N6  UNL     1      26.723  18.481   0.998  1.00  0.00    -0.056 NA
HETATM    2  O1  UNL     1      26.695  17.540   2.002  1.00  0.00    -0.207 OA
HETATM    3  C11 UNL     1      25.589  16.679   1.858  1.00  0.00     0.268 C 
HETATM    4  N7  UNL     1      25.662  15.380   1.924  1.00  0.00    -0.261 N 
ATOM      5  H7  UNL     1      26.554  14.915   2.089  1.00  0.00     0.190 HD
HETATM    6  N9  UNL     1      24.425  17.450   1.637  1.00  0.00    -0.233 N 
ATOM      7  H9  UNL     1      23.456  17.194   1.827  1.00  0.00     0.183 HD
HETATM    8  S1  UNL     1      25.022  18.924   0.970  1.00  0.00     0.328 S 
HETATM    9  O5  UNL     1      24.531  19.158  -0.410  1.00  0.00    -0.186 OA
HETATM   10  O6  UNL     1      24.759  20.087   1.887  1.00  0.00    -0.186 OA
ENDROOT
BRANCH   1  11
HETATM   11  C10 UNL     1      27.021  17.788  -0.231  1.00  0.00     0.178 C 
BRANCH  11  12
HETATM   12  C9  UNL     1      28.489  17.907  -0.601  1.00  0.00     0.181 C 
HETATM   13  N5  UNL     1      28.872  16.819  -1.459  1.00  0.00    -0.210 N 
HETATM   14  C2  UNL     1      29.841  16.876  -2.500  1.00  0.00     0.691 C 
ATOM     15  H5  UNL     1      28.407  15.923  -1.307  1.00  0.00     0.179 HD
HETATM   16  N2  UNL     1      30.021  17.886  -3.250  1.00  0.00    -0.187 N 
HETATM   17  C1  UNL     1      29.308  19.129  -3.191  1.00  0.00     0.362 C 
ATOM     18  H2  UNL     1      30.744  17.804  -3.964  1.00  0.00     0.180 HD
HETATM   19  S2  UNL     1      28.659  19.451  -1.541  1.00  0.00    -0.088 SA
BRANCH  14  20
HETATM   20  N3  UNL     1      30.648  15.729  -2.712  1.00  0.00    -0.132 N 
ATOM     21  H3  UNL     1      31.660  15.800  -2.604  1.00  0.00     0.205 HD
BRANCH  20  22
HETATM   22  N4  UNL     1      30.089  14.522  -3.060  1.00  0.00    -0.287 N 
ATOM     23  H4  UNL     1      30.443  13.673  -2.621  1.00  0.00     0.187 HD
BRANCH  22  24
HETATM   24  C3  UNL     1      29.043  14.413  -4.004  1.00  0.00     0.048 A 
HETATM   25  C4  UNL     1      29.161  14.830  -5.314  1.00  0.00     0.031 A 
HETATM   26  C5  UNL     1      28.123  14.713  -6.214  1.00  0.00     0.002 A 
HETATM   27  C6  UNL     1      26.914  14.165  -5.816  1.00  0.00     0.000 A 
HETATM   28  C7  UNL     1      26.769  13.740  -4.512  1.00  0.00     0.002 A 
HETATM   29  C8  UNL     1      27.819  13.867  -3.632  1.00  0.00     0.031 A 
ENDBRANCH  22  24
ENDBRANCH  20  22
ENDBRANCH  14  20
BRANCH  17  30
HETATM   30  N1  UNL     1      30.117  20.272  -3.586  1.00  0.00    -0.049 N 
ATOM     31  H13 UNL     1      30.241  20.296  -4.598  1.00  0.00     0.277 HD
ATOM     32  H12 UNL     1      29.602  21.144  -3.460  1.00  0.00     0.277 HD
ATOM     33  H11 UNL     1      31.018  20.309  -3.108  1.00  0.00     0.277 HD
ENDBRANCH  17  30
ENDBRANCH  11  12
ENDBRANCH   1  11
BRANCH   4  34
HETATM   34  N8  UNL     1      24.479  14.632   1.762  1.00  0.00    -0.267 N 
HETATM   35  C12 UNL     1      24.518  13.346   1.205  1.00  0.00     0.242 C 
HETATM   36  O2  UNL     1      25.646  12.864   0.858  1.00  0.00    -0.271 OA
ATOM     37  H8  UNL     1      23.586  15.030   2.053  1.00  0.00     0.190 HD
BRANCH  35  38
HETATM   38  C13 UNL     1      23.267  12.557   1.015  1.00  0.00     0.105 C 
BRANCH  38  39
HETATM   39  C14 UNL     1      22.705  12.830  -0.327  1.00  0.00     0.178 C 
BRANCH  39  40
HETATM   40  O3  UNL     1      23.541  13.705  -1.041  1.00  0.00    -0.400 OA
ATOM     41  H3  UNL     1      23.393  13.617  -1.975  1.00  0.00     0.209 HD
ENDBRANCH  39  40
ENDBRANCH  38  39
BRANCH  38  42
HETATM   42  C15 UNL     1      23.439  11.199   1.509  1.00  0.00     0.048 C 
BRANCH  42  43
HETATM   43  C16 UNL     1      23.791  10.920   2.917  1.00  0.00     0.124 C 
HETATM   44  C17 UNL     1      22.829  10.391   3.890  1.00  0.00     0.058 C 
HETATM   45  C18 UNL     1      23.381   9.046   3.398  1.00  0.00     0.170 C 
HETATM   46  O4  UNL     1      24.518   9.707   3.003  1.00  0.00    -0.386 OA
ENDBRANCH  42  43
ENDBRANCH  38  42
ENDBRANCH  35  38
ENDBRANCH   4  34
TORSDOF 12
ENDMDL
MODEL 5
REMARK VINA RESULT: -6.232077409      1.515      1.955
REMARK  12 active torsions:
REMARK  status: ('A' for Active; 'I' for Inactive)
REMARK    1  A    between atoms: N1_1  and  C1_5 
REMARK    2  A    between atoms: C2_8  and  N3_9 
REMARK    3  A    between atoms: N3_9  and  N4_11 
REMARK    4  A    between atoms: N4_11  and  C3_13 
REMARK    5  A    between atoms: C9_21  and  C10_22 
REMARK    6  A    between atoms: C10_22  and  N6_23 
REMARK    7  A    between atoms: N7_26  and  N8_28 
REMARK       I    between atoms: N8_28  and  C12_30 
REMARK    8  A    between atoms: C12_30  and  C13_32 
REMARK    9  A    between atoms: C13_32  and  C14_33 
REMARK   10  A    between atoms: C13_32  and  C15_36 
REMARK   11  A    between atoms: C14_33  and  O3_34 
REMARK   12  A    between atoms: C15_36  and  C16_37 
ROOT
HETATM    1  N6  UNL     1      25.348  15.246  -0.561  1.00  0.00    -0.056 NA
HETATM    2  O1  UNL     1      24.490  16.175  -0.016  1.00  0.00    -0.207 OA
HETATM    3  C11 UNL     1      24.633  16.235   1.385  1.00  0.00     0.268 C 
HETATM    4  N7  UNL     1      24.760  17.343   2.058  1.00  0.00    -0.261 N 
ATOM      5  H7  UNL     1      24.760  18.245   1.582  1.00  0.00     0.190 HD
HETATM    6  N9  UNL     1      24.616  14.923   1.911  1.00  0.00    -0.233 N 
ATOM      7  H9  UNL     1      24.360  14.628   2.853  1.00  0.00     0.183 HD
HETATM    8  S1  UNL     1      25.129  13.938   0.592  1.00  0.00     0.328 S 
HETATM    9  O5  UNL     1      26.400  13.230   0.878  1.00  0.00    -0.186 OA
HETATM   10  O6  UNL     1      24.033  13.010   0.142  1.00  0.00    -0.186 OA
ENDROOT
BRANCH   1  11
HETATM   11  C10 UNL     1      26.687  15.756  -0.403  1.00  0.00     0.178 C 
BRANCH  11  12
HETATM   12  C9  UNL     1      27.355  16.006  -1.744  1.00  0.00     0.181 C 
HETATM   13  N5  UNL     1      28.520  16.830  -1.571  1.00  0.00    -0.210 N 
HETATM   14  C2  UNL     1      29.715  16.762  -2.341  1.00  0.00     0.691 C 
ATOM     15  H5  UNL     1      28.488  17.528  -0.827  1.00  0.00     0.179 HD
HETATM   16  N2  UNL     1      30.213  15.682  -2.788  1.00  0.00    -0.187 N 
HETATM   17  C1  UNL     1      29.682  14.361  -2.611  1.00  0.00     0.362 C 
ATOM     18  H2  UNL     1      31.077  15.762  -3.324  1.00  0.00     0.180 HD
HETATM   19  S2  UNL     1      27.898  14.385  -2.358  1.00  0.00    -0.088 SA
BRANCH  14  20
HETATM   20  N3  UNL     1      30.389  17.979  -2.620  1.00  0.00    -0.132 N 
ATOM     21  H3  UNL     1      31.387  17.963  -2.828  1.00  0.00     0.205 HD
BRANCH  20  22
HETATM   22  N4  UNL     1      29.718  19.179  -2.614  1.00  0.00    -0.287 N 
ATOM     23  H4  UNL     1      28.997  19.340  -3.317  1.00  0.00     0.187 HD
BRANCH  22  24
HETATM   24  C3  UNL     1      29.990  20.197  -1.674  1.00  0.00     0.048 A 
HETATM   25  C4  UNL     1      31.164  20.922  -1.663  1.00  0.00     0.031 A 
HETATM   26  C5  UNL     1      31.403  21.910  -0.732  1.00  0.00     0.002 A 
HETATM   27  C6  UNL     1      30.453  22.203   0.233  1.00  0.00     0.000 A 
HETATM   28  C7  UNL     1      29.271  21.495   0.246  1.00  0.00     0.002 A 
HETATM   29  C8  UNL     1      29.054  20.513  -0.694  1.00  0.00     0.031 A 
ENDBRANCH  22  24
ENDBRANCH  20  22
ENDBRANCH  14  20
BRANCH  17  30
HETATM   30  N1  UNL     1      29.965  13.476  -3.731  1.00  0.00    -0.049 N 
ATOM     31  H13 UNL     1      29.962  12.501  -3.433  1.00  0.00     0.277 HD
ATOM     32  H12 UNL     1      29.180  13.454  -4.383  1.00  0.00     0.277 HD
ATOM     33  H11 UNL     1      30.833  13.707  -4.214  1.00  0.00     0.277 HD
ENDBRANCH  17  30
ENDBRANCH  11  12
ENDBRANCH   1  11
BRANCH   4  34
HETATM   34  N8  UNL     1      24.897  17.266   3.457  1.00  0.00    -0.267 N 
HETATM   35  C12 UNL     1      25.935  17.944   4.112  1.00  0.00     0.242 C 
HETATM   36  O2  UNL     1      26.745  18.639   3.415  1.00  0.00    -0.271 OA
ATOM     37  H8  UNL     1      24.234  16.712   4.000  1.00  0.00     0.190 HD
BRANCH  35  38
HETATM   38  C13 UNL     1      26.095  17.852   5.592  1.00  0.00     0.105 C 
BRANCH  38  39
HETATM   39  C14 UNL     1      26.561  16.495   5.959  1.00  0.00     0.178 C 
BRANCH  39  40
HETATM   40  O3  UNL     1      27.029  15.813   4.823  1.00  0.00    -0.400 OA
ATOM     41  H3  UNL     1      27.274  14.923   5.048  1.00  0.00     0.209 HD
ENDBRANCH  39  40
ENDBRANCH  38  39
BRANCH  38  42
HETATM   42  C15 UNL     1      26.741  19.048   6.112  1.00  0.00     0.048 C 
BRANCH  42  43
HETATM   43  C16 UNL     1      28.191  19.092   6.390  1.00  0.00     0.124 C 
HETATM   44  C17 UNL     1      29.028  20.259   6.084  1.00  0.00     0.058 C 
HETATM   45  C18 UNL     1      28.655  20.647   7.521  1.00  0.00     0.170 C 
HETATM   46  O4  UNL     1      28.412  19.319   7.771  1.00  0.00    -0.386 OA
ENDBRANCH  42  43
ENDBRANCH  38  42
ENDBRANCH  35  38
ENDBRANCH   4  34
TORSDOF 12
ENDMDL
