MODEL 1
REMARK VINA RESULT: -6.611101842      0.000      0.000
REMARK  13 active torsions:
REMARK  status: ('A' for Active; 'I' for Inactive)
REMARK    1  A    between atoms: O1_2  and  C2_3 
REMARK    2  A    between atoms: C4_5  and  C5_6 
REMARK    3  A    between atoms: N1_10  and  C8_11 
REMARK    4  A    between atoms: C8_11  and  C9_12 
REMARK    5  A    between atoms: C9_12  and  N2_13 
REMARK    6  A    between atoms: N2_13  and  C10_15 
REMARK    7  A    between atoms: C11_18  and  N4_19 
REMARK    8  A    between atoms: C12_24  and  N6_25 
REMARK    9  A    between atoms: C17_34  and  N8_35 
REMARK   10  A    between atoms: N8_35  and  N9_37 
REMARK   11  A    between atoms: N10_42  and  N11_43 
REMARK   12  A    between atoms: C20_47  and  O4_48 
REMARK   13  A    between atoms: C22_50  and  O5_51 
ROOT
HETATM    1  C5  UNL     1      26.989  16.710   0.080  1.00  0.00    -0.006 A 
HETATM    2  C6  UNL     1      27.371  18.021   0.210  1.00  0.00     0.088 A 
HETATM    3  C7  UNL     1      28.434  18.489  -0.496  1.00  0.00     0.254 A 
HETATM    4  O2  UNL     1      28.774  19.725  -0.359  1.00  0.00    -0.268 OA
HETATM    5  N1  UNL     1      29.201  17.731  -1.371  1.00  0.00    -0.271 N 
HETATM    6  C13 UNL     1      28.802  16.470  -1.476  1.00  0.00     0.150 A 
HETATM    7  C14 UNL     1      27.718  15.928  -0.775  1.00  0.00     0.022 A 
HETATM    8  C15 UNL     1      27.224  14.640  -0.778  1.00  0.00     0.018 C 
HETATM    9  C16 UNL     1      27.228  13.767  -1.856  1.00  0.00     0.038 C 
HETATM   10  C17 UNL     1      28.014  13.902  -3.020  1.00  0.00     0.117 C 
HETATM   11  C18 UNL     1      28.995  14.827  -3.279  1.00  0.00     0.295 C 
HETATM   12  O3  UNL     1      29.522  14.782  -4.428  1.00  0.00    -0.264 OA
HETATM   13  N10 UNL     1      29.463  15.797  -2.423  1.00  0.00    -0.207 N 
ENDROOT
BRANCH   5  14
HETATM   14  C8  UNL     1      30.223  18.332  -2.107  1.00  0.00     0.119 C 
BRANCH  14  15
HETATM   15  C9  UNL     1      29.910  19.287  -3.218  1.00  0.00     0.124 C 
BRANCH  15  16
HETATM   16  N2  UNL     1      30.522  20.517  -3.379  1.00  0.00    -0.199 N 
ATOM     17  H2  UNL     1      31.045  20.683  -4.238  1.00  0.00     0.183 HD
BRANCH  16  18
HETATM   18  C10 UNL     1      30.472  21.448  -2.525  1.00  0.00     0.711 A 
HETATM   19  N3  UNL     1      29.308  22.088  -2.314  1.00  0.00    -0.021 N 
HETATM   20  C11 UNL     1      29.203  23.100  -1.403  1.00  0.00     0.705 A 
ATOM     21  H3  UNL     1      28.484  21.811  -2.847  1.00  0.00     0.203 HD
HETATM   22  N5  UNL     1      30.319  23.436  -0.720  1.00  0.00    -0.022 N 
HETATM   23  C12 UNL     1      31.484  22.803  -0.925  1.00  0.00     0.705 A 
ATOM     24  H5  UNL     1      30.275  24.189  -0.032  1.00  0.00     0.203 HD
HETATM   25  N7  UNL     1      31.565  21.822  -1.814  1.00  0.00    -0.021 N 
ATOM     26  H7  UNL     1      32.455  21.345  -1.963  1.00  0.00     0.203 HD
BRANCH  20  27
HETATM   27  N4  UNL     1      28.092  23.721  -1.192  1.00  0.00    -0.234 N 
ATOM     28  H42 UNL     1      27.356  23.292  -0.631  1.00  0.00     0.174 HD
ATOM     29  H41 UNL     1      27.910  24.650  -1.570  1.00  0.00     0.174 HD
ENDBRANCH  20  27
BRANCH  23  30
HETATM   30  N6  UNL     1      32.545  23.144  -0.255  1.00  0.00    -0.234 N 
ATOM     31  H62 UNL     1      32.459  23.819   0.505  1.00  0.00     0.174 HD
ATOM     32  H61 UNL     1      33.453  22.741  -0.486  1.00  0.00     0.174 HD
ENDBRANCH  23  30
ENDBRANCH  16  18
ENDBRANCH  15  16
ENDBRANCH  14  15
ENDBRANCH   5  14
BRANCH  13  33
HETATM   33  N11 UNL     1      30.781  16.063  -2.600  1.00  0.00    -0.334 N 
ATOM     34 2H11 UNL     1      31.317  16.001  -1.734  1.00  0.00     0.177 HD
ATOM     35 1H11 UNL     1      31.106  16.297  -3.538  1.00  0.00     0.177 HD
ENDBRANCH  13  33
BRANCH   1  36
HETATM   36  C4  UNL     1      25.818  16.241   0.818  1.00  0.00    -0.019 A 
HETATM   37  C3  UNL     1      24.635  15.852   0.243  1.00  0.00     0.052 A 
HETATM   38  C2  UNL     1      23.586  15.425   1.016  1.00  0.00     0.105 A 
HETATM   39  C22 UNL     1      23.726  15.389   2.387  1.00  0.00     0.135 A 
HETATM   40  C20 UNL     1      24.905  15.773   3.005  1.00  0.00     0.105 A 
HETATM   41  C19 UNL     1      25.935  16.196   2.188  1.00  0.00     0.052 A 
BRANCH  38  42
HETATM   42  O1  UNL     1      22.369  15.022   0.480  1.00  0.00    -0.353 OA
HETATM   43  C1  UNL     1      22.354  13.807  -0.254  1.00  0.00     0.210 C 
ENDBRANCH  38  42
BRANCH  39  44
HETATM   44  O5  UNL     1      22.686  14.962   3.218  1.00  0.00    -0.351 OA
HETATM   45  C23 UNL     1      22.583  13.584   3.542  1.00  0.00     0.210 C 
ENDBRANCH  39  44
BRANCH  40  46
HETATM   46  O4  UNL     1      25.018  15.725   4.401  1.00  0.00    -0.353 OA
HETATM   47  C21 UNL     1      26.115  16.416   4.968  1.00  0.00     0.210 C 
ENDBRANCH  40  46
ENDBRANCH   1  36
BRANCH  10  48
HETATM   48  N8  UNL     1      27.760  13.042  -3.927  1.00  0.00    -0.302 N 
ATOM     49  H8  UNL     1      28.034  12.070  -3.778  1.00  0.00     0.186 HD
BRANCH  48  50
HETATM   50  N9  UNL     1      27.126  13.384  -5.104  1.00  0.00    -0.345 N 
ATOM     51  H92 UNL     1      27.073  14.373  -5.348  1.00  0.00     0.176 HD
ATOM     52  H91 UNL     1      26.718  12.684  -5.723  1.00  0.00     0.176 HD
ENDBRANCH  48  50
ENDBRANCH  10  48
TORSDOF 13
ENDMDL
MODEL 2
REMARK VINA RESULT: -6.599074084      0.020      1.281
REMARK  13 active torsions:
REMARK  status: ('A' for Active; 'I' for Inactive)
REMARK    1  A    between atoms: O1_2  and  C2_3 
REMARK    2  A    between atoms: C4_5  and  C5_6 
REMARK    3  A    between atoms: N1_10  and  C8_11 
REMARK    4  A    between atoms: C8_11  and  C9_12 
REMARK    5  A    between atoms: C9_12  and  N2_13 
REMARK    6  A    between atoms: N2_13  and  C10_15 
REMARK    7  A    between atoms: C11_18  and  N4_19 
REMARK    8  A    between atoms: C12_24  and  N6_25 
REMARK    9  A    between atoms: C17_34  and  N8_35 
REMARK   10  A    between atoms: N8_35  and  N9_37 
REMARK   11  A    between atoms: N10_42  and  N11_43 
REMARK   12  A    between atoms: C20_47  and  O4_48 
REMARK   13  A    between atoms: C22_50  and  O5_51 
ROOT
HETATM    1  C5  UNL     1      26.989  16.709   0.078  1.00  0.00    -0.006 A 
HETATM    2  C6  UNL     1      27.367  18.021   0.208  1.00  0.00     0.088 A 
HETATM    3  C7  UNL     1      28.429  18.493  -0.498  1.00  0.00     0.254 A 
HETATM    4  O2  UNL     1      28.765  19.730  -0.361  1.00  0.00    -0.268 OA
HETATM    5  N1  UNL     1      29.197  17.737  -1.373  1.00  0.00    -0.271 N 
HETATM    6  C13 UNL     1      28.801  16.475  -1.479  1.00  0.00     0.150 A 
HETATM    7  C14 UNL     1      27.719  15.929  -0.777  1.00  0.00     0.022 A 
HETATM    8  C15 UNL     1      27.230  14.640  -0.781  1.00  0.00     0.018 C 
HETATM    9  C16 UNL     1      27.235  13.768  -1.859  1.00  0.00     0.038 C 
HETATM   10  C17 UNL     1      28.021  13.905  -3.023  1.00  0.00     0.117 C 
HETATM   11  C18 UNL     1      28.999  14.833  -3.282  1.00  0.00     0.295 C 
HETATM   12  O3  UNL     1      29.525  14.790  -4.431  1.00  0.00    -0.264 OA
HETATM   13  N10 UNL     1      29.465  15.805  -2.426  1.00  0.00    -0.207 N 
ENDROOT
BRANCH   5  14
HETATM   14  C8  UNL     1      30.217  18.341  -2.110  1.00  0.00     0.119 C 
BRANCH  14  15
HETATM   15  C9  UNL     1      29.902  19.298  -3.218  1.00  0.00     0.124 C 
BRANCH  15  16
HETATM   16  N2  UNL     1      30.506  20.532  -3.374  1.00  0.00    -0.199 N 
ATOM     17  H2  UNL     1      31.040  20.699  -4.227  1.00  0.00     0.183 HD
BRANCH  16  18
HETATM   18  C10 UNL     1      30.438  21.465  -2.524  1.00  0.00     0.711 A 
HETATM   19  N3  UNL     1      31.541  21.815  -1.839  1.00  0.00    -0.021 N 
HETATM   20  C11 UNL     1      31.519  22.816  -0.910  1.00  0.00     0.705 A 
ATOM     21  H3  UNL     1      32.415  21.321  -2.017  1.00  0.00     0.203 HD
HETATM   22  N5  UNL     1      30.340  23.443  -0.704  1.00  0.00    -0.022 N 
HETATM   23  C12 UNL     1      29.236  23.099  -1.384  1.00  0.00     0.705 A 
ATOM     24  H5  UNL     1      30.289  24.195  -0.017  1.00  0.00     0.203 HD
HETATM   25  N7  UNL     1      29.277  22.125  -2.282  1.00  0.00    -0.021 N 
ATOM     26  H7  UNL     1      28.433  21.870  -2.794  1.00  0.00     0.203 HD
BRANCH  20  27
HETATM   27  N4  UNL     1      32.571  23.160  -0.247  1.00  0.00    -0.234 N 
ATOM     28  H42 UNL     1      33.407  23.484  -0.732  1.00  0.00     0.174 HD
ATOM     29  H41 UNL     1      32.605  23.125   0.772  1.00  0.00     0.174 HD
ENDBRANCH  20  27
BRANCH  23  30
HETATM   30  N6  UNL     1      28.112  23.718  -1.169  1.00  0.00    -0.234 N 
ATOM     31  H62 UNL     1      27.323  23.200  -0.784  1.00  0.00     0.174 HD
ATOM     32  H61 UNL     1      28.022  24.712  -1.382  1.00  0.00     0.174 HD
ENDBRANCH  23  30
ENDBRANCH  16  18
ENDBRANCH  15  16
ENDBRANCH  14  15
ENDBRANCH   5  14
BRANCH  13  33
HETATM   33  N11 UNL     1      30.781  16.074  -2.603  1.00  0.00    -0.334 N 
ATOM     34 2H11 UNL     1      30.987  17.073  -2.584  1.00  0.00     0.177 HD
ATOM     35 1H11 UNL     1      31.422  15.293  -2.740  1.00  0.00     0.177 HD
ENDBRANCH  13  33
BRANCH   1  36
HETATM   36  C4  UNL     1      25.819  16.237   0.816  1.00  0.00    -0.019 A 
HETATM   37  C3  UNL     1      24.639  15.842   0.241  1.00  0.00     0.052 A 
HETATM   38  C2  UNL     1      23.591  15.412   1.015  1.00  0.00     0.105 A 
HETATM   39  C22 UNL     1      23.730  15.378   2.385  1.00  0.00     0.135 A 
HETATM   40  C20 UNL     1      24.907  15.768   3.004  1.00  0.00     0.105 A 
HETATM   41  C19 UNL     1      25.935  16.194   2.187  1.00  0.00     0.052 A 
BRANCH  38  42
HETATM   42  O1  UNL     1      22.376  15.002   0.479  1.00  0.00    -0.353 OA
HETATM   43  C1  UNL     1      22.366  13.786  -0.253  1.00  0.00     0.210 C 
ENDBRANCH  38  42
BRANCH  39  44
HETATM   44  O5  UNL     1      22.691  14.948   3.217  1.00  0.00    -0.351 OA
HETATM   45  C23 UNL     1      22.595  13.571   3.544  1.00  0.00     0.210 C 
ENDBRANCH  39  44
BRANCH  40  46
HETATM   46  O4  UNL     1      25.019  15.723   4.399  1.00  0.00    -0.353 OA
HETATM   47  C21 UNL     1      26.110  16.424   4.967  1.00  0.00     0.210 C 
ENDBRANCH  40  46
ENDBRANCH   1  36
BRANCH  10  48
HETATM   48  N8  UNL     1      27.769  13.045  -3.930  1.00  0.00    -0.302 N 
ATOM     49  H8  UNL     1      28.041  12.073  -3.780  1.00  0.00     0.186 HD
BRANCH  48  50
HETATM   50  N9  UNL     1      27.139  13.388  -5.110  1.00  0.00    -0.345 N 
ATOM     51  H92 UNL     1      26.369  14.054  -5.065  1.00  0.00     0.176 HD
ATOM     52  H91 UNL     1      27.422  12.996  -6.008  1.00  0.00     0.176 HD
ENDBRANCH  48  50
ENDBRANCH  10  48
TORSDOF 13
ENDMDL
MODEL 3
REMARK VINA RESULT: -6.569574921      1.455      2.174
REMARK  13 active torsions:
REMARK  status: ('A' for Active; 'I' for Inactive)
REMARK    1  A    between atoms: O1_2  and  C2_3 
REMARK    2  A    between atoms: C4_5  and  C5_6 
REMARK    3  A    between atoms: N1_10  and  C8_11 
REMARK    4  A    between atoms: C8_11  and  C9_12 
REMARK    5  A    between atoms: C9_12  and  N2_13 
REMARK    6  A    between atoms: N2_13  and  C10_15 
REMARK    7  A    between atoms: C11_18  and  N4_19 
REMARK    8  A    between atoms: C12_24  and  N6_25 
REMARK    9  A    between atoms: C17_34  and  N8_35 
REMARK   10  A    between atoms: N8_35  and  N9_37 
REMARK   11  A    between atoms: N10_42  and  N11_43 
REMARK   12  A    between atoms: C20_47  and  O4_48 
REMARK   13  A    between atoms: C22_50  and  O5_51 
ROOT
HETATM    1  C5  UNL     1      26.983  16.598   0.110  1.00  0.00    -0.006 A 
HETATM    2  C6  UNL     1      27.336  17.917   0.235  1.00  0.00     0.088 A 
HETATM    3  C7  UNL     1      28.375  18.412  -0.490  1.00  0.00     0.254 A 
HETATM    4  O2  UNL     1      28.688  19.656  -0.357  1.00  0.00    -0.268 OA
HETATM    5  N1  UNL     1      29.143  17.673  -1.379  1.00  0.00    -0.271 N 
HETATM    6  C13 UNL     1      28.772  16.404  -1.479  1.00  0.00     0.150 A 
HETATM    7  C14 UNL     1      27.715  15.834  -0.759  1.00  0.00     0.022 A 
HETATM    8  C15 UNL     1      27.252  14.535  -0.756  1.00  0.00     0.018 C 
HETATM    9  C16 UNL     1      27.257  13.664  -1.835  1.00  0.00     0.038 C 
HETATM   10  C17 UNL     1      28.018  13.819  -3.013  1.00  0.00     0.117 C 
HETATM   11  C18 UNL     1      28.971  14.768  -3.288  1.00  0.00     0.295 C 
HETATM   12  O3  UNL     1      29.478  14.736  -4.446  1.00  0.00    -0.264 OA
HETATM   13  N10 UNL     1      29.432  15.748  -2.439  1.00  0.00    -0.207 N 
ENDROOT
BRANCH   5  14
HETATM   14  C8  UNL     1      30.137  18.299  -2.134  1.00  0.00     0.119 C 
BRANCH  14  15
HETATM   15  C9  UNL     1      29.786  19.335  -3.158  1.00  0.00     0.124 C 
BRANCH  15  16
HETATM   16  N2  UNL     1      30.240  20.641  -3.128  1.00  0.00    -0.199 N 
ATOM     17  H2  UNL     1      29.944  21.233  -2.352  1.00  0.00     0.183 HD
BRANCH  16  18
HETATM   18  C10 UNL     1      31.000  21.146  -4.003  1.00  0.00     0.711 A 
HETATM   19  N3  UNL     1      31.018  20.623  -5.242  1.00  0.00    -0.021 N 
HETATM   20  C11 UNL     1      31.820  21.133  -6.222  1.00  0.00     0.705 A 
ATOM     21  H3  UNL     1      30.417  19.827  -5.455  1.00  0.00     0.203 HD
HETATM   22  N5  UNL     1      32.602  22.186  -5.897  1.00  0.00    -0.022 N 
HETATM   23  C12 UNL     1      32.590  22.712  -4.663  1.00  0.00     0.705 A 
ATOM     24  H5  UNL     1      33.214  22.590  -6.606  1.00  0.00     0.203 HD
HETATM   25  N7  UNL     1      31.803  22.204  -3.725  1.00  0.00    -0.021 N 
ATOM     26  H7  UNL     1      31.800  22.611  -2.789  1.00  0.00     0.203 HD
BRANCH  20  27
HETATM   27  N4  UNL     1      31.845  20.640  -7.414  1.00  0.00    -0.234 N 
ATOM     28  H42 UNL     1      31.891  19.631  -7.558  1.00  0.00     0.174 HD
ATOM     29  H41 UNL     1      31.818  21.230  -8.246  1.00  0.00     0.174 HD
ENDBRANCH  20  27
BRANCH  23  30
HETATM   30  N6  UNL     1      33.351  23.727  -4.374  1.00  0.00    -0.234 N 
ATOM     31  H62 UNL     1      34.282  23.560  -3.994  1.00  0.00     0.174 HD
ATOM     32  H61 UNL     1      33.019  24.680  -4.526  1.00  0.00     0.174 HD
ENDBRANCH  23  30
ENDBRANCH  16  18
ENDBRANCH  15  16
ENDBRANCH  14  15
ENDBRANCH   5  14
BRANCH  13  33
HETATM   33  N11 UNL     1      30.739  16.045  -2.640  1.00  0.00    -0.334 N 
ATOM     34 2H11 UNL     1      30.896  17.037  -2.820  1.00  0.00     0.177 HD
ATOM     35 1H11 UNL     1      31.420  15.287  -2.601  1.00  0.00     0.177 HD
ENDBRANCH  13  33
BRANCH   1  36
HETATM   36  C4  UNL     1      25.837  16.100   0.869  1.00  0.00    -0.019 A 
HETATM   37  C3  UNL     1      24.690  15.597   0.311  1.00  0.00     0.052 A 
HETATM   38  C2  UNL     1      23.663  15.151   1.103  1.00  0.00     0.105 A 
HETATM   39  C22 UNL     1      23.789  15.213   2.475  1.00  0.00     0.135 A 
HETATM   40  C20 UNL     1      24.932  15.714   3.075  1.00  0.00     0.105 A 
HETATM   41  C19 UNL     1      25.941  16.152   2.240  1.00  0.00     0.052 A 
BRANCH  38  42
HETATM   42  O1  UNL     1      22.482  14.633   0.586  1.00  0.00    -0.353 OA
HETATM   43  C1  UNL     1      22.551  13.363  -0.045  1.00  0.00     0.210 C 
ENDBRANCH  38  42
BRANCH  39  44
HETATM   44  O5  UNL     1      22.770  14.771   3.324  1.00  0.00    -0.351 OA
HETATM   45  C23 UNL     1      22.756  13.414   3.737  1.00  0.00     0.210 C 
ENDBRANCH  39  44
BRANCH  40  46
HETATM   46  O4  UNL     1      25.032  15.764   4.471  1.00  0.00    -0.353 OA
HETATM   47  C21 UNL     1      25.972  16.679   5.004  1.00  0.00     0.210 C 
ENDBRANCH  40  46
ENDBRANCH   1  36
BRANCH  10  48
HETATM   48  N8  UNL     1      27.768  12.954  -3.916  1.00  0.00    -0.302 N 
ATOM     49  H8  UNL     1      28.109  12.000  -3.796  1.00  0.00     0.186 HD
BRANCH  48  50
HETATM   50  N9  UNL     1      27.050  13.269  -5.053  1.00  0.00    -0.345 N 
ATOM     51  H92 UNL     1      27.247  12.742  -5.903  1.00  0.00     0.176 HD
ATOM     52  H91 UNL     1      26.342  14.002  -5.060  1.00  0.00     0.176 HD
ENDBRANCH  48  50
ENDBRANCH  10  48
TORSDOF 13
ENDMDL
MODEL 4
REMARK VINA RESULT: -6.564499583      2.100      3.606
REMARK  13 active torsions:
REMARK  status: ('A' for Active; 'I' for Inactive)
REMARK    1  A    between atoms: O1_2  and  C2_3 
REMARK    2  A    between atoms: C4_5  and  C5_6 
REMARK    3  A    between atoms: N1_10  and  C8_11 
REMARK    4  A    between atoms: C8_11  and  C9_12 
REMARK    5  A    between atoms: C9_12  and  N2_13 
REMARK    6  A    between atoms: N2_13  and  C10_15 
REMARK    7  A    between atoms: C11_18  and  N4_19 
REMARK    8  A    between atoms: C12_24  and  N6_25 
REMARK    9  A    between atoms: C17_34  and  N8_35 
REMARK   10  A    between atoms: N8_35  and  N9_37 
REMARK   11  A    between atoms: N10_42  and  N11_43 
REMARK   12  A    between atoms: C20_47  and  O4_48 
REMARK   13  A    between atoms: C22_50  and  O5_51 
ROOT
HETATM    1  C5  UNL     1      26.944  16.611   0.171  1.00  0.00    -0.006 A 
HETATM    2  C6  UNL     1      27.243  17.941   0.315  1.00  0.00     0.088 A 
HETATM    3  C7  UNL     1      28.259  18.488  -0.404  1.00  0.00     0.254 A 
HETATM    4  O2  UNL     1      28.521  19.741  -0.254  1.00  0.00    -0.268 OA
HETATM    5  N1  UNL     1      29.054  17.794  -1.306  1.00  0.00    -0.271 N 
HETATM    6  C13 UNL     1      28.735  16.512  -1.424  1.00  0.00     0.150 A 
HETATM    7  C14 UNL     1      27.703  15.890  -0.710  1.00  0.00     0.022 A 
HETATM    8  C15 UNL     1      27.294  14.573  -0.724  1.00  0.00     0.018 C 
HETATM    9  C16 UNL     1      27.331  13.719  -1.816  1.00  0.00     0.038 C 
HETATM   10  C17 UNL     1      28.083  13.921  -2.993  1.00  0.00     0.117 C 
HETATM   11  C18 UNL     1      28.996  14.912  -3.256  1.00  0.00     0.295 C 
HETATM   12  O3  UNL     1      29.501  14.917  -4.416  1.00  0.00    -0.264 OA
HETATM   13  N10 UNL     1      29.419  15.897  -2.394  1.00  0.00    -0.207 N 
ENDROOT
BRANCH   5  14
HETATM   14  C8  UNL     1      30.020  18.471  -2.053  1.00  0.00     0.119 C 
BRANCH  14  15
HETATM   15  C9  UNL     1      29.626  19.364  -3.190  1.00  0.00     0.124 C 
BRANCH  15  16
HETATM   16  N2  UNL     1      28.322  19.566  -3.601  1.00  0.00    -0.199 N 
ATOM     17  H2  UNL     1      27.948  20.514  -3.561  1.00  0.00     0.183 HD
BRANCH  16  18
HETATM   18  C10 UNL     1      27.563  18.647  -4.024  1.00  0.00     0.711 A 
HETATM   19  N3  UNL     1      27.943  17.914  -5.085  1.00  0.00    -0.021 N 
HETATM   20  C11 UNL     1      27.159  16.911  -5.579  1.00  0.00     0.705 A 
ATOM     21  H3  UNL     1      28.838  18.112  -5.532  1.00  0.00     0.203 HD
HETATM   22  N5  UNL     1      25.980  16.684  -4.959  1.00  0.00    -0.022 N 
HETATM   23  C12 UNL     1      25.595  17.412  -3.900  1.00  0.00     0.705 A 
ATOM     24  H5  UNL     1      25.370  15.942  -5.304  1.00  0.00     0.203 HD
HETATM   25  N7  UNL     1      26.370  18.381  -3.434  1.00  0.00    -0.021 N 
ATOM     26  H7  UNL     1      26.069  18.929  -2.628  1.00  0.00     0.203 HD
BRANCH  20  27
HETATM   27  N4  UNL     1      27.513  16.201  -6.597  1.00  0.00    -0.234 N 
ATOM     28  H42 UNL     1      26.963  15.391  -6.882  1.00  0.00     0.174 HD
ATOM     29  H41 UNL     1      28.343  16.419  -7.148  1.00  0.00     0.174 HD
ENDBRANCH  20  27
BRANCH  23  30
HETATM   30  N6  UNL     1      24.455  17.174  -3.319  1.00  0.00    -0.234 N 
ATOM     31  H62 UNL     1      23.622  17.669  -3.634  1.00  0.00     0.174 HD
ATOM     32  H61 UNL     1      24.397  16.498  -2.557  1.00  0.00     0.174 HD
ENDBRANCH  23  30
ENDBRANCH  16  18
ENDBRANCH  15  16
ENDBRANCH  14  15
ENDBRANCH   5  14
BRANCH  13  33
HETATM   33  N11 UNL     1      30.712  16.251  -2.593  1.00  0.00    -0.334 N 
ATOM     34 2H11 UNL     1      30.809  17.140  -3.084  1.00  0.00     0.177 HD
ATOM     35 1H11 UNL     1      31.443  15.624  -2.255  1.00  0.00     0.177 HD
ENDBRANCH  13  33
BRANCH   1  36
HETATM   36  C4  UNL     1      25.821  16.056   0.925  1.00  0.00    -0.019 A 
HETATM   37  C3  UNL     1      24.715  15.472   0.363  1.00  0.00     0.052 A 
HETATM   38  C2  UNL     1      23.706  14.977   1.151  1.00  0.00     0.105 A 
HETATM   39  C22 UNL     1      23.810  15.071   2.522  1.00  0.00     0.135 A 
HETATM   40  C20 UNL     1      24.912  15.653   3.127  1.00  0.00     0.105 A 
HETATM   41  C19 UNL     1      25.903  16.138   2.296  1.00  0.00     0.052 A 
BRANCH  38  42
HETATM   42  O1  UNL     1      22.567  14.377   0.629  1.00  0.00    -0.353 OA
HETATM   43  C1  UNL     1      22.739  13.155  -0.073  1.00  0.00     0.210 C 
ENDBRANCH  38  42
BRANCH  39  44
HETATM   44  O5  UNL     1      22.809  14.582   3.367  1.00  0.00    -0.351 OA
HETATM   45  C23 UNL     1      22.856  13.224   3.778  1.00  0.00     0.210 C 
ENDBRANCH  39  44
BRANCH  40  46
HETATM   46  O4  UNL     1      24.989  15.734   4.524  1.00  0.00    -0.353 OA
HETATM   47  C21 UNL     1      25.921  16.661   5.050  1.00  0.00     0.210 C 
ENDBRANCH  40  46
ENDBRANCH   1  36
BRANCH  10  48
HETATM   48  N8  UNL     1      27.866  13.060  -3.908  1.00  0.00    -0.302 N 
ATOM     49  H8  UNL     1      28.433  12.212  -3.934  1.00  0.00     0.186 HD
BRANCH  48  50
HETATM   50  N9  UNL     1      26.888  13.239  -4.866  1.00  0.00    -0.345 N 
ATOM     51  H92 UNL     1      26.865  14.129  -5.364  1.00  0.00     0.176 HD
ATOM     52  H91 UNL     1      26.201  12.517  -5.080  1.00  0.00     0.176 HD
ENDBRANCH  48  50
ENDBRANCH  10  48
TORSDOF 13
ENDMDL
MODEL 5
REMARK VINA RESULT: -6.563709019      2.092      3.474
REMARK  13 active torsions:
REMARK  status: ('A' for Active; 'I' for Inactive)
REMARK    1  A    between atoms: O1_2  and  C2_3 
REMARK    2  A    between atoms: C4_5  and  C5_6 
REMARK    3  A    between atoms: N1_10  and  C8_11 
REMARK    4  A    between atoms: C8_11  and  C9_12 
REMARK    5  A    between atoms: C9_12  and  N2_13 
REMARK    6  A    between atoms: N2_13  and  C10_15 
REMARK    7  A    between atoms: C11_18  and  N4_19 
REMARK    8  A    between atoms: C12_24  and  N6_25 
REMARK    9  A    between atoms: C17_34  and  N8_35 
REMARK   10  A    between atoms: N8_35  and  N9_37 
REMARK   11  A    between atoms: N10_42  and  N11_43 
REMARK   12  A    between atoms: C20_47  and  O4_48 
REMARK   13  A    between atoms: C22_50  and  O5_51 
ROOT
HETATM    1  C5  UNL     1      26.938  16.603   0.168  1.00  0.00    -0.006 A 
HETATM    2  C6  UNL     1      27.239  17.932   0.318  1.00  0.00     0.088 A 
HETATM    3  C7  UNL     1      28.258  18.480  -0.396  1.00  0.00     0.254 A 
HETATM    4  O2  UNL     1      28.522  19.732  -0.240  1.00  0.00    -0.268 OA
HETATM    5  N1  UNL     1      29.054  17.788  -1.298  1.00  0.00    -0.271 N 
HETATM    6  C13 UNL     1      28.733  16.507  -1.422  1.00  0.00     0.150 A 
HETATM    7  C14 UNL     1      27.699  15.884  -0.714  1.00  0.00     0.022 A 
HETATM    8  C15 UNL     1      27.287  14.568  -0.735  1.00  0.00     0.018 C 
HETATM    9  C16 UNL     1      27.326  13.718  -1.830  1.00  0.00     0.038 C 
HETATM   10  C17 UNL     1      28.081  13.924  -3.004  1.00  0.00     0.117 C 
HETATM   11  C18 UNL     1      28.997  14.914  -3.261  1.00  0.00     0.295 C 
HETATM   12  O3  UNL     1      29.505  14.924  -4.419  1.00  0.00    -0.264 OA
HETATM   13  N10 UNL     1      29.419  15.896  -2.393  1.00  0.00    -0.207 N 
ENDROOT
BRANCH   5  14
HETATM   14  C8  UNL     1      30.023  18.467  -2.040  1.00  0.00     0.119 C 
BRANCH  14  15
HETATM   15  C9  UNL     1      29.633  19.375  -3.166  1.00  0.00     0.124 C 
BRANCH  15  16
HETATM   16  N2  UNL     1      28.332  19.573  -3.587  1.00  0.00    -0.199 N 
ATOM     17  H2  UNL     1      27.952  20.518  -3.540  1.00  0.00     0.183 HD
BRANCH  16  18
HETATM   18  C10 UNL     1      27.583  18.654  -4.027  1.00  0.00     0.711 A 
HETATM   19  N3  UNL     1      26.403  18.420  -3.426  1.00  0.00    -0.021 N 
HETATM   20  C11 UNL     1      25.560  17.439  -3.863  1.00  0.00     0.705 A 
ATOM     21  H3  UNL     1      26.132  18.988  -2.623  1.00  0.00     0.203 HD
HETATM   22  N5  UNL     1      25.958  16.709  -4.928  1.00  0.00    -0.022 N 
HETATM   23  C12 UNL     1      27.134  16.937  -5.533  1.00  0.00     0.705 A 
ATOM     24  H5  UNL     1      25.352  15.968  -5.280  1.00  0.00     0.203 HD
HETATM   25  N7  UNL     1      27.939  17.895  -5.094  1.00  0.00    -0.021 N 
ATOM     26  H7  UNL     1      28.831  18.062  -5.560  1.00  0.00     0.203 HD
BRANCH  20  27
HETATM   27  N4  UNL     1      24.426  17.205  -3.294  1.00  0.00    -0.234 N 
ATOM     28  H42 UNL     1      24.199  16.272  -2.951  1.00  0.00     0.174 HD
ATOM     29  H41 UNL     1      23.723  17.933  -3.166  1.00  0.00     0.174 HD
ENDBRANCH  20  27
BRANCH  23  30
HETATM   30  N6  UNL     1      27.496  16.222  -6.557  1.00  0.00    -0.234 N 
ATOM     31  H62 UNL     1      27.959  15.327  -6.401  1.00  0.00     0.174 HD
ATOM     32  H61 UNL     1      27.318  16.552  -7.506  1.00  0.00     0.174 HD
ENDBRANCH  23  30
ENDBRANCH  16  18
ENDBRANCH  15  16
ENDBRANCH  14  15
ENDBRANCH   5  14
BRANCH  13  33
HETATM   33  N11 UNL     1      30.714  16.248  -2.587  1.00  0.00    -0.334 N 
ATOM     34 2H11 UNL     1      31.291  16.104  -1.758  1.00  0.00     0.177 HD
ATOM     35 1H11 UNL     1      30.985  16.614  -3.500  1.00  0.00     0.177 HD
ENDBRANCH  13  33
BRANCH   1  36
HETATM   36  C4  UNL     1      25.812  16.046   0.917  1.00  0.00    -0.019 A 
HETATM   37  C3  UNL     1      24.706  15.467   0.349  1.00  0.00     0.052 A 
HETATM   38  C2  UNL     1      23.694  14.971   1.131  1.00  0.00     0.105 A 
HETATM   39  C22 UNL     1      23.795  15.058   2.503  1.00  0.00     0.135 A 
HETATM   40  C20 UNL     1      24.896  15.635   3.114  1.00  0.00     0.105 A 
HETATM   41  C19 UNL     1      25.890  16.122   2.288  1.00  0.00     0.052 A 
BRANCH  38  42
HETATM   42  O1  UNL     1      22.555  14.376   0.603  1.00  0.00    -0.353 OA
HETATM   43  C1  UNL     1      22.724  13.144  -0.081  1.00  0.00     0.210 C 
ENDBRANCH  38  42
BRANCH  39  44
HETATM   44  O5  UNL     1      22.790  14.567   3.343  1.00  0.00    -0.351 OA
HETATM   45  C23 UNL     1      22.843  13.212   3.762  1.00  0.00     0.210 C 
ENDBRANCH  39  44
BRANCH  40  46
HETATM   46  O4  UNL     1      24.970  15.710   4.511  1.00  0.00    -0.353 OA
HETATM   47  C21 UNL     1      25.912  16.622   5.045  1.00  0.00     0.210 C 
ENDBRANCH  40  46
ENDBRANCH   1  36
BRANCH  10  48
HETATM   48  N8  UNL     1      27.866  13.067  -3.923  1.00  0.00    -0.302 N 
ATOM     49  H8  UNL     1      28.437  12.223  -3.956  1.00  0.00     0.186 HD
BRANCH  48  50
HETATM   50  N9  UNL     1      26.883  13.247  -4.876  1.00  0.00    -0.345 N 
ATOM     51  H92 UNL     1      26.013  12.727  -4.769  1.00  0.00     0.176 HD
ATOM     52  H91 UNL     1      27.007  13.875  -5.670  1.00  0.00     0.176 HD
ENDBRANCH  48  50
ENDBRANCH  10  48
TORSDOF 13
ENDMDL
