MODEL 1
REMARK VINA RESULT: -5.179492936      0.000      0.000
REMARK  16 active torsions:
REMARK  status: ('A' for Active; 'I' for Inactive)
REMARK    1  A    between atoms: C3_3  and  N1_4 
REMARK    2  A    between atoms: C4_8  and  O1_9 
REMARK    3  A    between atoms: O1_9  and  C5_10 
REMARK    4  A    between atoms: C7_12  and  C8_13 
REMARK    5  A    between atoms: C8_13  and  N2_14 
REMARK    6  A    between atoms: C11_20  and  N3_21 
REMARK    7  A    between atoms: C12_26  and  O3_27 
REMARK    8  A    between atoms: O3_27  and  C13_28 
REMARK    9  A    between atoms: C14_30  and  C15_31 
REMARK   10  A    between atoms: C15_31  and  O5_32 
REMARK   11  A    between atoms: C16_37  and  C17_38 
REMARK   12  A    between atoms: C17_38  and  O6_39 
REMARK   13  A    between atoms: C18_41  and  O7_42 
REMARK   14  A    between atoms: C19_44  and  O8_45 
REMARK   15  A    between atoms: O8_45  and  C20_46 
REMARK   16  A    between atoms: C24_50  and  N5_51 
ROOT
HETATM    1  C1  UNL     1      26.508  13.864   0.651  1.00  0.00     0.015 C 
HETATM    2  C2  UNL     1      25.804  14.860  -0.266  1.00  0.00     0.051 C 
HETATM    3  C3  UNL     1      24.969  15.816   0.559  1.00  0.00     0.244 C 
HETATM    4  C4  UNL     1      25.848  16.320   1.681  1.00  0.00     0.294 C 
HETATM    5  O2  UNL     1      27.056  16.734   1.159  1.00  0.00    -0.327 OA
HETATM    6  C12 UNL     1      27.058  16.943  -0.192  1.00  0.00     0.295 C 
HETATM    7  C19 UNL     1      26.849  15.683  -1.004  1.00  0.00     0.183 C 
ENDROOT
BRANCH   6   8
HETATM    8  O3  UNL     1      28.347  17.417  -0.528  1.00  0.00    -0.326 OA
BRANCH   8   9
HETATM    9  C13 UNL     1      28.393  18.783  -0.595  1.00  0.00     0.296 C 
HETATM   10  O4  UNL     1      27.201  19.243  -1.161  1.00  0.00    -0.324 OA
HETATM   11  C14 UNL     1      27.263  20.565  -1.526  1.00  0.00     0.347 C 
HETATM   12  N4  UNL     1      28.069  20.715  -2.695  1.00  0.00    -0.038 N 
HETATM   13  C16 UNL     1      29.166  19.806  -2.744  1.00  0.00     0.245 C 
ATOM     14  H42 UNL     1      27.501  20.643  -3.539  1.00  0.00     0.281 HD
ATOM     15  H41 UNL     1      28.392  21.678  -2.792  1.00  0.00     0.281 HD
HETATM   16  C18 UNL     1      29.579  19.216  -1.432  1.00  0.00     0.206 C 
BRANCH  11  17
HETATM   17  C15 UNL     1      25.851  21.011  -1.880  1.00  0.00     0.225 C 
BRANCH  17  18
HETATM   18  O5  UNL     1      24.917  20.138  -1.355  1.00  0.00    -0.397 OA
ATOM     19  H5  UNL     1      24.525  19.613  -2.043  1.00  0.00     0.209 HD
ENDBRANCH  17  18
ENDBRANCH  11  17
BRANCH  13  20
HETATM   20  C17 UNL     1      30.394  20.529  -3.314  1.00  0.00     0.200 C 
BRANCH  20  21
HETATM   21  O6  UNL     1      30.805  19.851  -4.449  1.00  0.00    -0.399 OA
ATOM     22  H6  UNL     1      31.705  20.095  -4.629  1.00  0.00     0.209 HD
ENDBRANCH  20  21
ENDBRANCH  13  20
BRANCH  16  23
HETATM   23  O7  UNL     1      30.388  18.096  -1.728  1.00  0.00    -0.388 OA
ATOM     24  H7  UNL     1      31.071  18.346  -2.340  1.00  0.00     0.210 HD
ENDBRANCH  16  23
ENDBRANCH   8   9
ENDBRANCH   6   8
BRANCH   7  25
HETATM   25  O8  UNL     1      27.961  14.912  -1.149  1.00  0.00    -0.373 OA
BRANCH  25  26
HETATM   26  C20 UNL     1      28.215  14.435  -2.404  1.00  0.00     0.152 C 
HETATM   27  C21 UNL     1      27.427  15.060  -3.502  1.00  0.00     0.034 C 
HETATM   28  C22 UNL     1      28.274  16.197  -4.058  1.00  0.00     0.005 C 
HETATM   29  C23 UNL     1      29.680  15.826  -3.733  1.00  0.00     0.035 C 
HETATM   30  C24 UNL     1      29.647  14.601  -2.851  1.00  0.00     0.212 C 
BRANCH  30  31
HETATM   31  N5  UNL     1      30.055  13.476  -3.709  1.00  0.00    -0.073 N 
ATOM     32  H53 UNL     1      29.508  12.637  -3.520  1.00  0.00     0.274 HD
ATOM     33  H52 UNL     1      29.780  13.621  -4.680  1.00  0.00     0.274 HD
ATOM     34  H51 UNL     1      31.057  13.303  -3.622  1.00  0.00     0.274 HD
ENDBRANCH  30  31
ENDBRANCH  25  26
ENDBRANCH   7  25
BRANCH   4  35
HETATM   35  O1  UNL     1      25.220  17.278   2.459  1.00  0.00    -0.352 OA
BRANCH  35  36
HETATM   36  C5  UNL     1      26.098  18.081   3.162  1.00  0.00     0.155 C 
HETATM   37  C6  UNL     1      26.240  17.695   4.601  1.00  0.00     0.040 C 
HETATM   38  C7  UNL     1      26.423  18.915   5.510  1.00  0.00     0.013 C 
HETATM   39  C9  UNL     1      27.378  19.852   4.841  1.00  0.00     0.008 C 
HETATM   40  C10 UNL     1      26.700  20.449   3.629  1.00  0.00     0.036 C 
HETATM   41  C11 UNL     1      25.676  19.529   3.033  1.00  0.00     0.212 C 
BRANCH  38  42
HETATM   42  C8  UNL     1      27.077  18.414   6.787  1.00  0.00     0.234 C 
BRANCH  42  43
HETATM   43  N2  UNL     1      28.508  18.351   6.652  1.00  0.00    -0.079 N 
ATOM     44  H23 UNL     1      28.852  17.395   6.742  1.00  0.00     0.274 HD
ATOM     45  H22 UNL     1      28.802  18.533   5.692  1.00  0.00     0.274 HD
ATOM     46  H21 UNL     1      28.971  18.979   7.309  1.00  0.00     0.274 HD
ENDBRANCH  42  43
ENDBRANCH  38  42
BRANCH  41  47
HETATM   47  N3  UNL     1      25.641  19.807   1.588  1.00  0.00    -0.073 N 
ATOM     48  H33 UNL     1      26.496  20.235   1.234  1.00  0.00     0.274 HD
ATOM     49  H32 UNL     1      25.676  18.968   1.010  1.00  0.00     0.274 HD
ATOM     50  H31 UNL     1      24.807  20.374   1.436  1.00  0.00     0.274 HD
ENDBRANCH  41  47
ENDBRANCH  35  36
ENDBRANCH   4  35
BRANCH   3  51
HETATM   51  N1  UNL     1      23.832  15.067   1.060  1.00  0.00    -0.070 N 
ATOM     52  H13 UNL     1      23.211  14.740   0.320  1.00  0.00     0.274 HD
ATOM     53  H12 UNL     1      24.088  14.152   1.429  1.00  0.00     0.274 HD
ATOM     54  H11 UNL     1      23.361  15.658   1.746  1.00  0.00     0.274 HD
ENDBRANCH   3  51
TORSDOF 16
ENDMDL
MODEL 2
REMARK VINA RESULT: -4.971685888      2.589      7.178
REMARK  16 active torsions:
REMARK  status: ('A' for Active; 'I' for Inactive)
REMARK    1  A    between atoms: C3_3  and  N1_4 
REMARK    2  A    between atoms: C4_8  and  O1_9 
REMARK    3  A    between atoms: O1_9  and  C5_10 
REMARK    4  A    between atoms: C7_12  and  C8_13 
REMARK    5  A    between atoms: C8_13  and  N2_14 
REMARK    6  A    between atoms: C11_20  and  N3_21 
REMARK    7  A    between atoms: C12_26  and  O3_27 
REMARK    8  A    between atoms: O3_27  and  C13_28 
REMARK    9  A    between atoms: C14_30  and  C15_31 
REMARK   10  A    between atoms: C15_31  and  O5_32 
REMARK   11  A    between atoms: C16_37  and  C17_38 
REMARK   12  A    between atoms: C17_38  and  O6_39 
REMARK   13  A    between atoms: C18_41  and  O7_42 
REMARK   14  A    between atoms: C19_44  and  O8_45 
REMARK   15  A    between atoms: O8_45  and  C20_46 
REMARK   16  A    between atoms: C24_50  and  N5_51 
ROOT
HETATM    1  C1  UNL     1      25.866  15.684  -0.958  1.00  0.00     0.015 C 
HETATM    2  C2  UNL     1      27.297  15.696  -0.428  1.00  0.00     0.051 C 
HETATM    3  C3  UNL     1      28.191  14.886  -1.344  1.00  0.00     0.244 C 
HETATM    4  C4  UNL     1      27.909  15.343  -2.757  1.00  0.00     0.294 C 
HETATM    5  O2  UNL     1      27.943  16.721  -2.803  1.00  0.00    -0.327 OA
HETATM    6  C12 UNL     1      28.553  17.319  -1.736  1.00  0.00     0.295 C 
HETATM    7  C19 UNL     1      27.816  17.126  -0.427  1.00  0.00     0.183 C 
ENDROOT
BRANCH   6   8
HETATM    8  O3  UNL     1      28.545  18.709  -1.988  1.00  0.00    -0.326 OA
BRANCH   8   9
HETATM    9  C13 UNL     1      29.810  19.216  -2.119  1.00  0.00     0.296 C 
HETATM   10  O4  UNL     1      29.944  20.310  -1.261  1.00  0.00    -0.324 OA
HETATM   11  C14 UNL     1      31.069  21.052  -1.519  1.00  0.00     0.347 C 
HETATM   12  N4  UNL     1      30.897  21.806  -2.719  1.00  0.00    -0.038 N 
HETATM   13  C16 UNL     1      30.128  21.124  -3.707  1.00  0.00     0.245 C 
ATOM     14  H42 UNL     1      30.497  22.722  -2.518  1.00  0.00     0.281 HD
ATOM     15  H41 UNL     1      31.798  22.096  -3.099  1.00  0.00     0.281 HD
HETATM   16  C18 UNL     1      30.048  19.638  -3.555  1.00  0.00     0.206 C 
BRANCH  11  17
HETATM   17  C15 UNL     1      31.241  22.042  -0.375  1.00  0.00     0.225 C 
BRANCH  17  18
HETATM   18  O5  UNL     1      32.408  22.766  -0.526  1.00  0.00    -0.397 OA
ATOM     19  H5  UNL     1      32.233  23.601  -0.945  1.00  0.00     0.209 HD
ENDBRANCH  17  18
ENDBRANCH  11  17
BRANCH  13  20
HETATM   20  C17 UNL     1      30.730  21.398  -5.092  1.00  0.00     0.200 C 
BRANCH  20  21
HETATM   21  O6  UNL     1      31.418  20.266  -5.495  1.00  0.00    -0.399 OA
ATOM     22  H6  UNL     1      31.269  20.146  -6.426  1.00  0.00     0.209 HD
ENDBRANCH  20  21
ENDBRANCH  13  20
BRANCH  16  23
HETATM   23  O7  UNL     1      28.972  19.204  -4.363  1.00  0.00    -0.388 OA
ATOM     24  H7  UNL     1      29.082  19.536  -5.247  1.00  0.00     0.210 HD
ENDBRANCH  16  23
ENDBRANCH   8   9
ENDBRANCH   6   8
BRANCH   7  25
HETATM   25  O8  UNL     1      26.752  17.956  -0.248  1.00  0.00    -0.373 OA
BRANCH  25  26
HETATM   26  C20 UNL     1      26.650  18.565   0.970  1.00  0.00     0.152 C 
HETATM   27  C21 UNL     1      27.418  19.831   1.124  1.00  0.00     0.034 C 
HETATM   28  C22 UNL     1      26.463  20.967   0.780  1.00  0.00     0.005 C 
HETATM   29  C23 UNL     1      25.102  20.420   1.042  1.00  0.00     0.035 C 
HETATM   30  C24 UNL     1      25.242  18.950   1.353  1.00  0.00     0.212 C 
BRANCH  30  31
HETATM   31  N5  UNL     1      25.048  18.826   2.807  1.00  0.00    -0.073 N 
ATOM     32  H53 UNL     1      24.888  17.858   3.087  1.00  0.00     0.274 HD
ATOM     33  H52 UNL     1      25.913  18.992   3.320  1.00  0.00     0.274 HD
ATOM     34  H51 UNL     1      24.297  19.441   3.123  1.00  0.00     0.274 HD
ENDBRANCH  30  31
ENDBRANCH  25  26
ENDBRANCH   7  25
BRANCH   4  35
HETATM   35  O1  UNL     1      28.736  14.735  -3.688  1.00  0.00    -0.352 OA
BRANCH  35  36
HETATM   36  C5  UNL     1      28.167  14.622  -4.942  1.00  0.00     0.155 C 
HETATM   37  C6  UNL     1      27.791  15.937  -5.548  1.00  0.00     0.040 C 
HETATM   38  C7  UNL     1      26.504  15.845  -6.374  1.00  0.00     0.013 C 
HETATM   39  C9  UNL     1      26.561  14.587  -7.181  1.00  0.00     0.008 C 
HETATM   40  C10 UNL     1      26.431  13.407  -6.244  1.00  0.00     0.036 C 
HETATM   41  C11 UNL     1      26.969  13.699  -4.874  1.00  0.00     0.212 C 
BRANCH  38  42
HETATM   42  C8  UNL     1      26.518  17.019  -7.339  1.00  0.00     0.234 C 
BRANCH  42  43
HETATM   43  N2  UNL     1      27.391  18.066  -6.875  1.00  0.00    -0.079 N 
ATOM     44  H23 UNL     1      27.275  18.920  -7.421  1.00  0.00     0.274 HD
ATOM     45  H22 UNL     1      27.099  18.421  -5.965  1.00  0.00     0.274 HD
ATOM     46  H21 UNL     1      28.363  17.759  -6.862  1.00  0.00     0.274 HD
ENDBRANCH  42  43
ENDBRANCH  38  42
BRANCH  41  47
HETATM   47  N3  UNL     1      27.475  12.428  -4.334  1.00  0.00    -0.073 N 
ATOM     48  H33 UNL     1      27.994  11.872  -5.015  1.00  0.00     0.274 HD
ATOM     49  H32 UNL     1      28.237  12.542  -3.665  1.00  0.00     0.274 HD
ATOM     50  H31 UNL     1      26.662  11.947  -3.949  1.00  0.00     0.274 HD
ENDBRANCH  41  47
ENDBRANCH  35  36
ENDBRANCH   4  35
BRANCH   3  51
HETATM   51  N1  UNL     1      27.848  13.491  -1.150  1.00  0.00    -0.070 N 
ATOM     52  H13 UNL     1      28.188  13.115  -0.266  1.00  0.00     0.274 HD
ATOM     53  H12 UNL     1      26.854  13.343  -0.981  1.00  0.00     0.274 HD
ATOM     54  H11 UNL     1      28.196  12.980  -1.963  1.00  0.00     0.274 HD
ENDBRANCH   3  51
TORSDOF 16
ENDMDL
MODEL 3
REMARK VINA RESULT: -4.948198247      2.295      6.568
REMARK  16 active torsions:
REMARK  status: ('A' for Active; 'I' for Inactive)
REMARK    1  A    between atoms: C3_3  and  N1_4 
REMARK    2  A    between atoms: C4_8  and  O1_9 
REMARK    3  A    between atoms: O1_9  and  C5_10 
REMARK    4  A    between atoms: C7_12  and  C8_13 
REMARK    5  A    between atoms: C8_13  and  N2_14 
REMARK    6  A    between atoms: C11_20  and  N3_21 
REMARK    7  A    between atoms: C12_26  and  O3_27 
REMARK    8  A    between atoms: O3_27  and  C13_28 
REMARK    9  A    between atoms: C14_30  and  C15_31 
REMARK   10  A    between atoms: C15_31  and  O5_32 
REMARK   11  A    between atoms: C16_37  and  C17_38 
REMARK   12  A    between atoms: C17_38  and  O6_39 
REMARK   13  A    between atoms: C18_41  and  O7_42 
REMARK   14  A    between atoms: C19_44  and  O8_45 
REMARK   15  A    between atoms: O8_45  and  C20_46 
REMARK   16  A    between atoms: C24_50  and  N5_51 
ROOT
HETATM    1  C1  UNL     1      26.705  20.530   3.660  1.00  0.00     0.015 C 
HETATM    2  C2  UNL     1      25.672  20.159   2.599  1.00  0.00     0.051 C 
HETATM    3  C3  UNL     1      25.797  21.092   1.413  1.00  0.00     0.244 C 
HETATM    4  C4  UNL     1      27.262  21.152   1.047  1.00  0.00     0.294 C 
HETATM    5  O2  UNL     1      27.763  19.869   0.970  1.00  0.00    -0.327 OA
HETATM    6  C12 UNL     1      26.818  18.887   0.870  1.00  0.00     0.295 C 
HETATM    7  C19 UNL     1      25.952  18.747   2.104  1.00  0.00     0.183 C 
ENDROOT
BRANCH   6   8
HETATM    8  O3  UNL     1      27.515  17.663   0.741  1.00  0.00    -0.326 OA
BRANCH   8   9
HETATM    9  C13 UNL     1      27.037  16.906  -0.294  1.00  0.00     0.296 C 
HETATM   10  O4  UNL     1      26.787  15.614   0.176  1.00  0.00    -0.324 OA
HETATM   11  C14 UNL     1      26.574  14.713  -0.837  1.00  0.00     0.347 C 
HETATM   12  N4  UNL     1      27.805  14.412  -1.495  1.00  0.00    -0.038 N 
HETATM   13  C16 UNL     1      28.690  15.527  -1.571  1.00  0.00     0.245 C 
ATOM     14  H42 UNL     1      28.265  13.614  -1.057  1.00  0.00     0.281 HD
ATOM     15  H41 UNL     1      27.636  14.020  -2.421  1.00  0.00     0.281 HD
HETATM   16  C18 UNL     1      28.053  16.872  -1.418  1.00  0.00     0.206 C 
BRANCH  11  17
HETATM   17  C15 UNL     1      26.062  13.425  -0.207  1.00  0.00     0.225 C 
BRANCH  17  18
HETATM   18  O5  UNL     1      26.386  13.375   1.136  1.00  0.00    -0.397 OA
ATOM     19  H5  UNL     1      25.734  12.883   1.621  1.00  0.00     0.209 HD
ENDBRANCH  17  18
ENDBRANCH  11  17
BRANCH  13  20
HETATM   20  C17 UNL     1      29.392  15.519  -2.936  1.00  0.00     0.200 C 
BRANCH  20  21
HETATM   21  O6  UNL     1      30.737  15.779  -2.730  1.00  0.00    -0.399 OA
ATOM     22  H6  UNL     1      30.809  16.543  -2.171  1.00  0.00     0.209 HD
ENDBRANCH  20  21
ENDBRANCH  13  20
BRANCH  16  23
HETATM   23  O7  UNL     1      29.097  17.786  -1.144  1.00  0.00    -0.388 OA
ATOM     24  H7  UNL     1      29.896  17.496  -1.568  1.00  0.00     0.210 HD
ENDBRANCH  16  23
ENDBRANCH   8   9
ENDBRANCH   6   8
BRANCH   7  25
HETATM   25  O8  UNL     1      26.526  18.053   3.124  1.00  0.00    -0.373 OA
BRANCH  25  26
HETATM   26  C20 UNL     1      25.973  16.841   3.426  1.00  0.00     0.152 C 
HETATM   27  C21 UNL     1      25.741  16.581   4.872  1.00  0.00     0.034 C 
HETATM   28  C22 UNL     1      24.308  17.003   5.170  1.00  0.00     0.005 C 
HETATM   29  C23 UNL     1      23.596  16.899   3.864  1.00  0.00     0.035 C 
HETATM   30  C24 UNL     1      24.621  16.604   2.797  1.00  0.00     0.212 C 
BRANCH  30  31
HETATM   31  N5  UNL     1      24.450  15.182   2.457  1.00  0.00    -0.073 N 
ATOM     32  H53 UNL     1      23.849  14.702   3.127  1.00  0.00     0.274 HD
ATOM     33  H52 UNL     1      23.877  15.058   1.623  1.00  0.00     0.274 HD
ATOM     34  H51 UNL     1      25.357  14.722   2.366  1.00  0.00     0.274 HD
ENDBRANCH  30  31
ENDBRANCH  25  26
ENDBRANCH   7  25
BRANCH   4  35
HETATM   35  O1  UNL     1      27.496  21.910  -0.089  1.00  0.00    -0.352 OA
BRANCH  35  36
HETATM   36  C5  UNL     1      28.777  21.776  -0.588  1.00  0.00     0.155 C 
HETATM   37  C6  UNL     1      29.660  22.947  -0.290  1.00  0.00     0.040 C 
HETATM   38  C7  UNL     1      30.632  23.243  -1.437  1.00  0.00     0.013 C 
HETATM   39  C9  UNL     1      31.180  21.941  -1.928  1.00  0.00     0.008 C 
HETATM   40  C10 UNL     1      30.073  21.184  -2.627  1.00  0.00     0.036 C 
HETATM   41  C11 UNL     1      28.716  21.514  -2.077  1.00  0.00     0.212 C 
BRANCH  38  42
HETATM   42  C8  UNL     1      31.782  24.039  -0.842  1.00  0.00     0.234 C 
BRANCH  42  43
HETATM   43  N2  UNL     1      32.670  23.191  -0.090  1.00  0.00    -0.079 N 
ATOM     44  H23 UNL     1      32.208  22.330   0.201  1.00  0.00     0.274 HD
ATOM     45  H22 UNL     1      33.394  22.788  -0.684  1.00  0.00     0.274 HD
ATOM     46  H21 UNL     1      33.071  23.688   0.705  1.00  0.00     0.274 HD
ENDBRANCH  42  43
ENDBRANCH  38  42
BRANCH  41  47
HETATM   47  N3  UNL     1      27.887  20.309  -2.237  1.00  0.00    -0.073 N 
ATOM     48  H33 UNL     1      26.896  20.510  -2.378  1.00  0.00     0.274 HD
ATOM     49  H32 UNL     1      28.039  19.823  -3.121  1.00  0.00     0.274 HD
ATOM     50  H31 UNL     1      28.074  19.733  -1.416  1.00  0.00     0.274 HD
ENDBRANCH  41  47
ENDBRANCH  35  36
ENDBRANCH   4  35
BRANCH   3  51
HETATM   51  N1  UNL     1      25.292  22.385   1.833  1.00  0.00    -0.070 N 
ATOM     52  H13 UNL     1      24.585  22.762   1.202  1.00  0.00     0.274 HD
ATOM     53  H12 UNL     1      24.709  22.334   2.668  1.00  0.00     0.274 HD
ATOM     54  H11 UNL     1      26.099  23.000   1.945  1.00  0.00     0.274 HD
ENDBRANCH   3  51
TORSDOF 16
ENDMDL
MODEL 4
REMARK VINA RESULT: -4.888096344      1.624      1.817
REMARK  16 active torsions:
REMARK  status: ('A' for Active; 'I' for Inactive)
REMARK    1  A    between atoms: C3_3  and  N1_4 
REMARK    2  A    between atoms: C4_8  and  O1_9 
REMARK    3  A    between atoms: O1_9  and  C5_10 
REMARK    4  A    between atoms: C7_12  and  C8_13 
REMARK    5  A    between atoms: C8_13  and  N2_14 
REMARK    6  A    between atoms: C11_20  and  N3_21 
REMARK    7  A    between atoms: C12_26  and  O3_27 
REMARK    8  A    between atoms: O3_27  and  C13_28 
REMARK    9  A    between atoms: C14_30  and  C15_31 
REMARK   10  A    between atoms: C15_31  and  O5_32 
REMARK   11  A    between atoms: C16_37  and  C17_38 
REMARK   12  A    between atoms: C17_38  and  O6_39 
REMARK   13  A    between atoms: C18_41  and  O7_42 
REMARK   14  A    between atoms: C19_44  and  O8_45 
REMARK   15  A    between atoms: O8_45  and  C20_46 
REMARK   16  A    between atoms: C24_50  and  N5_51 
ROOT
HETATM    1  C1  UNL     1      26.583  13.716   0.232  1.00  0.00     0.015 C 
HETATM    2  C2  UNL     1      25.238  14.319  -0.164  1.00  0.00     0.051 C 
HETATM    3  C3  UNL     1      24.523  14.832   1.068  1.00  0.00     0.244 C 
HETATM    4  C4  UNL     1      25.518  15.663   1.845  1.00  0.00     0.294 C 
HETATM    5  O2  UNL     1      26.137  16.549   0.988  1.00  0.00    -0.327 OA
HETATM    6  C12 UNL     1      25.499  16.737  -0.205  1.00  0.00     0.295 C 
HETATM    7  C19 UNL     1      25.476  15.506  -1.085  1.00  0.00     0.183 C 
ENDROOT
BRANCH   6   8
HETATM    8  O3  UNL     1      26.239  17.712  -0.914  1.00  0.00    -0.326 OA
BRANCH   8   9
HETATM    9  C13 UNL     1      27.268  18.220  -0.168  1.00  0.00     0.296 C 
HETATM   10  O4  UNL     1      26.907  19.491   0.284  1.00  0.00    -0.324 OA
HETATM   11  C14 UNL     1      27.968  20.192   0.800  1.00  0.00     0.347 C 
HETATM   12  N4  UNL     1      28.826  20.631  -0.254  1.00  0.00    -0.038 N 
HETATM   13  C16 UNL     1      28.911  19.704  -1.334  1.00  0.00     0.245 C 
ATOM     14  H42 UNL     1      28.548  21.552  -0.588  1.00  0.00     0.281 HD
ATOM     15  H41 UNL     1      29.755  20.856   0.104  1.00  0.00     0.281 HD
HETATM   16  C18 UNL     1      28.524  18.295  -1.012  1.00  0.00     0.206 C 
BRANCH  11  17
HETATM   17  C15 UNL     1      27.411  21.431   1.487  1.00  0.00     0.225 C 
BRANCH  17  18
HETATM   18  O5  UNL     1      26.030  21.432   1.449  1.00  0.00    -0.397 OA
ATOM     19  H5  UNL     1      25.703  20.618   1.083  1.00  0.00     0.209 HD
ENDBRANCH  17  18
ENDBRANCH  11  17
BRANCH  13  20
HETATM   20  C17 UNL     1      30.356  19.663  -1.849  1.00  0.00     0.200 C 
BRANCH  20  21
HETATM   21  O6  UNL     1      30.845  18.381  -1.662  1.00  0.00    -0.399 OA
ATOM     22  H6  UNL     1      31.012  18.001  -2.516  1.00  0.00     0.209 HD
ENDBRANCH  20  21
ENDBRANCH  13  20
BRANCH  16  23
HETATM   23  O7  UNL     1      28.309  17.641  -2.246  1.00  0.00    -0.388 OA
ATOM     24  H7  UNL     1      28.832  16.848  -2.284  1.00  0.00     0.210 HD
ENDBRANCH  16  23
ENDBRANCH   8   9
ENDBRANCH   6   8
BRANCH   7  25
HETATM   25  O8  UNL     1      26.630  15.278  -1.770  1.00  0.00    -0.373 OA
BRANCH  25  26
HETATM   26  C20 UNL     1      26.521  14.567  -2.932  1.00  0.00     0.152 C 
HETATM   27  C21 UNL     1      26.044  15.333  -4.115  1.00  0.00     0.034 C 
HETATM   28  C22 UNL     1      27.284  15.824  -4.850  1.00  0.00     0.005 C 
HETATM   29  C23 UNL     1      28.361  14.865  -4.471  1.00  0.00     0.035 C 
HETATM   30  C24 UNL     1      27.816  13.950  -3.403  1.00  0.00     0.212 C 
BRANCH  30  31
HETATM   31  N5  UNL     1      27.563  12.660  -4.067  1.00  0.00    -0.073 N 
ATOM     32  H53 UNL     1      28.204  11.935  -3.743  1.00  0.00     0.274 HD
ATOM     33  H52 UNL     1      26.688  12.239  -3.757  1.00  0.00     0.274 HD
ATOM     34  H51 UNL     1      27.594  12.767  -5.082  1.00  0.00     0.274 HD
ENDBRANCH  30  31
ENDBRANCH  25  26
ENDBRANCH   7  25
BRANCH   4  35
HETATM   35  O1  UNL     1      24.953  16.267   2.957  1.00  0.00    -0.352 OA
BRANCH  35  36
HETATM   36  C5  UNL     1      25.842  17.046   3.673  1.00  0.00     0.155 C 
HETATM   37  C6  UNL     1      26.280  16.424   4.961  1.00  0.00     0.040 C 
HETATM   38  C7  UNL     1      26.475  17.465   6.068  1.00  0.00     0.013 C 
HETATM   39  C9  UNL     1      27.182  18.643   5.476  1.00  0.00     0.008 C 
HETATM   40  C10 UNL     1      26.235  19.348   4.531  1.00  0.00     0.036 C 
HETATM   41  C11 UNL     1      25.236  18.412   3.915  1.00  0.00     0.212 C 
BRANCH  38  42
HETATM   42  C8  UNL     1      27.398  16.838   7.100  1.00  0.00     0.234 C 
BRANCH  42  43
HETATM   43  N2  UNL     1      28.776  17.160   6.833  1.00  0.00    -0.079 N 
ATOM     44  H23 UNL     1      28.861  17.857   6.094  1.00  0.00     0.274 HD
ATOM     45  H22 UNL     1      29.191  17.691   7.598  1.00  0.00     0.274 HD
ATOM     46  H21 UNL     1      29.317  16.322   6.622  1.00  0.00     0.274 HD
ENDBRANCH  42  43
ENDBRANCH  38  42
BRANCH  41  47
HETATM   47  N3  UNL     1      24.915  18.948   2.582  1.00  0.00    -0.073 N 
ATOM     48  H33 UNL     1      25.727  19.041   1.972  1.00  0.00     0.274 HD
ATOM     49  H32 UNL     1      24.395  18.296   1.995  1.00  0.00     0.274 HD
ATOM     50  H31 UNL     1      24.426  19.828   2.748  1.00  0.00     0.274 HD
ENDBRANCH  41  47
ENDBRANCH  35  36
ENDBRANCH   4  35
BRANCH   3  51
HETATM   51  N1  UNL     1      24.083  13.674   1.820  1.00  0.00    -0.070 N 
ATOM     52  H13 UNL     1      23.076  13.522   1.768  1.00  0.00     0.274 HD
ATOM     53  H12 UNL     1      24.370  12.791   1.398  1.00  0.00     0.274 HD
ATOM     54  H11 UNL     1      24.422  13.789   2.776  1.00  0.00     0.274 HD
ENDBRANCH   3  51
TORSDOF 16
ENDMDL
MODEL 5
REMARK VINA RESULT: -4.849439757      0.976      1.221
REMARK  16 active torsions:
REMARK  status: ('A' for Active; 'I' for Inactive)
REMARK    1  A    between atoms: C3_3  and  N1_4 
REMARK    2  A    between atoms: C4_8  and  O1_9 
REMARK    3  A    between atoms: O1_9  and  C5_10 
REMARK    4  A    between atoms: C7_12  and  C8_13 
REMARK    5  A    between atoms: C8_13  and  N2_14 
REMARK    6  A    between atoms: C11_20  and  N3_21 
REMARK    7  A    between atoms: C12_26  and  O3_27 
REMARK    8  A    between atoms: O3_27  and  C13_28 
REMARK    9  A    between atoms: C14_30  and  C15_31 
REMARK   10  A    between atoms: C15_31  and  O5_32 
REMARK   11  A    between atoms: C16_37  and  C17_38 
REMARK   12  A    between atoms: C17_38  and  O6_39 
REMARK   13  A    between atoms: C18_41  and  O7_42 
REMARK   14  A    between atoms: C19_44  and  O8_45 
REMARK   15  A    between atoms: O8_45  and  C20_46 
REMARK   16  A    between atoms: C24_50  and  N5_51 
ROOT
HETATM    1  C1  UNL     1      26.431  13.834   0.262  1.00  0.00     0.015 C 
HETATM    2  C2  UNL     1      25.801  14.965  -0.548  1.00  0.00     0.051 C 
HETATM    3  C3  UNL     1      24.913  15.803   0.347  1.00  0.00     0.244 C 
HETATM    4  C4  UNL     1      25.711  16.124   1.590  1.00  0.00     0.294 C 
HETATM    5  O2  UNL     1      26.956  16.591   1.221  1.00  0.00    -0.327 OA
HETATM    6  C12 UNL     1      27.058  16.994  -0.081  1.00  0.00     0.295 C 
HETATM    7  C19 UNL     1      26.901  15.869  -1.081  1.00  0.00     0.183 C 
ENDROOT
BRANCH   6   8
HETATM    8  O3  UNL     1      28.370  17.491  -0.252  1.00  0.00    -0.326 OA
BRANCH   8   9
HETATM    9  C13 UNL     1      28.392  18.853  -0.389  1.00  0.00     0.296 C 
HETATM   10  O4  UNL     1      27.125  19.282  -0.792  1.00  0.00    -0.324 OA
HETATM   11  C14 UNL     1      27.119  20.585  -1.224  1.00  0.00     0.347 C 
HETATM   12  N4  UNL     1      27.741  20.681  -2.506  1.00  0.00    -0.038 N 
HETATM   13  C16 UNL     1      28.828  19.774  -2.674  1.00  0.00     0.245 C 
ATOM     14  H42 UNL     1      27.055  20.568  -3.251  1.00  0.00     0.281 HD
ATOM     15  H41 UNL     1      28.037  21.639  -2.694  1.00  0.00     0.281 HD
HETATM   16  C18 UNL     1      29.436  19.249  -1.412  1.00  0.00     0.206 C 
BRANCH  11  17
HETATM   17  C15 UNL     1      25.666  21.009  -1.384  1.00  0.00     0.225 C 
BRANCH  17  18
HETATM   18  O5  UNL     1      24.825  20.132  -0.726  1.00  0.00    -0.397 OA
ATOM     19  H5  UNL     1      25.203  19.261  -0.699  1.00  0.00     0.209 HD
ENDBRANCH  17  18
ENDBRANCH  11  17
BRANCH  13  20
HETATM   20  C17 UNL     1      29.950  20.472  -3.454  1.00  0.00     0.200 C 
BRANCH  20  21
HETATM   21  O6  UNL     1      30.543  19.539  -4.286  1.00  0.00    -0.399 OA
ATOM     22  H6  UNL     1      30.209  19.670  -5.165  1.00  0.00     0.209 HD
ENDBRANCH  20  21
ENDBRANCH  13  20
BRANCH  16  23
HETATM   23  O7  UNL     1      30.204  18.118  -1.772  1.00  0.00    -0.388 OA
ATOM     24  H7  UNL     1      29.905  17.781  -2.609  1.00  0.00     0.210 HD
ENDBRANCH  16  23
ENDBRANCH   8   9
ENDBRANCH   6   8
BRANCH   7  25
HETATM   25  O8  UNL     1      28.017  15.110  -1.259  1.00  0.00    -0.373 OA
BRANCH  25  26
HETATM   26  C20 UNL     1      28.620  15.187  -2.482  1.00  0.00     0.152 C 
HETATM   27  C21 UNL     1      28.774  13.895  -3.207  1.00  0.00     0.034 C 
HETATM   28  C22 UNL     1      27.561  13.755  -4.116  1.00  0.00     0.005 C 
HETATM   29  C23 UNL     1      27.097  15.151  -4.360  1.00  0.00     0.035 C 
HETATM   30  C24 UNL     1      27.900  16.070  -3.473  1.00  0.00     0.212 C 
BRANCH  30  31
HETATM   31  N5  UNL     1      28.862  16.745  -4.359  1.00  0.00    -0.073 N 
ATOM     32  H53 UNL     1      29.215  16.119  -5.083  1.00  0.00     0.274 HD
ATOM     33  H52 UNL     1      28.407  17.432  -4.960  1.00  0.00     0.274 HD
ATOM     34  H51 UNL     1      29.621  17.161  -3.816  1.00  0.00     0.274 HD
ENDBRANCH  30  31
ENDBRANCH  25  26
ENDBRANCH   7  25
BRANCH   4  35
HETATM   35  O1  UNL     1      25.034  16.969   2.454  1.00  0.00    -0.352 OA
BRANCH  35  36
HETATM   36  C5  UNL     1      25.842  17.531   3.424  1.00  0.00     0.155 C 
HETATM   37  C6  UNL     1      25.673  16.912   4.775  1.00  0.00     0.040 C 
HETATM   38  C7  UNL     1      25.805  17.942   5.902  1.00  0.00     0.013 C 
HETATM   39  C9  UNL     1      26.958  18.837   5.578  1.00  0.00     0.008 C 
HETATM   40  C10 UNL     1      26.583  19.699   4.393  1.00  0.00     0.036 C 
HETATM   41  C11 UNL     1      25.600  19.024   3.482  1.00  0.00     0.212 C 
BRANCH  38  42
HETATM   42  C8  UNL     1      26.154  17.168   7.163  1.00  0.00     0.234 C 
BRANCH  42  43
HETATM   43  N2  UNL     1      27.073  16.097   6.881  1.00  0.00    -0.079 N 
ATOM     44  H23 UNL     1      27.849  16.413   6.298  1.00  0.00     0.274 HD
ATOM     45  H22 UNL     1      27.601  15.828   7.711  1.00  0.00     0.274 HD
ATOM     46  H21 UNL     1      26.595  15.298   6.466  1.00  0.00     0.274 HD
ENDBRANCH  42  43
ENDBRANCH  38  42
BRANCH  41  47
HETATM   47  N3  UNL     1      25.864  19.525   2.124  1.00  0.00    -0.073 N 
ATOM     48  H33 UNL     1      26.840  19.435   1.837  1.00  0.00     0.274 HD
ATOM     49  H32 UNL     1      25.468  18.940   1.388  1.00  0.00     0.274 HD
ATOM     50  H31 UNL     1      25.522  20.486   2.111  1.00  0.00     0.274 HD
ENDBRANCH  41  47
ENDBRANCH  35  36
ENDBRANCH   4  35
BRANCH   3  51
HETATM   51  N1  UNL     1      23.739  15.008   0.650  1.00  0.00    -0.070 N 
ATOM     52  H13 UNL     1      23.055  15.000  -0.106  1.00  0.00     0.274 HD
ATOM     53  H12 UNL     1      23.929  14.006   0.666  1.00  0.00     0.274 HD
ATOM     54  H11 UNL     1      23.359  15.357   1.531  1.00  0.00     0.274 HD
ENDBRANCH   3  51
TORSDOF 16
ENDMDL
