MODEL 1
REMARK VINA RESULT: -5.624332875      0.000      0.000
REMARK  12 active torsions:
REMARK  status: ('A' for Active; 'I' for Inactive)
REMARK    1  A    between atoms: C1_4  and  C2_5 
REMARK    2  A    between atoms: C1_4  and  S3_43 
REMARK    3  A    between atoms: C2_5  and  C3_6 
REMARK    4  A    between atoms: C3_6  and  N2_7 
REMARK    5  A    between atoms: C3_6  and  C4_11 
REMARK       I    between atoms: C4_11  and  N3_13 
REMARK    6  A    between atoms: N3_13  and  C5_15 
REMARK    7  A    between atoms: C7_19  and  C8_20 
REMARK    8  A    between atoms: C9_21  and  O2_22 
REMARK    9  A    between atoms: C10_24  and  C11_25 
REMARK   10  A    between atoms: C11_25  and  C12_26 
REMARK   11  A    between atoms: C11_25  and  S1_29 
REMARK   12  A    between atoms: S1_29  and  N5_30 
ROOT
HETATM    1  C5  UNL     1      27.793  16.503  -0.904  1.00  0.00     0.110 A 
HETATM    2  N4  UNL     1      26.925  15.895  -0.133  1.00  0.00    -0.325 N 
ATOM      3  H4  UNL     1      26.538  14.968  -0.303  1.00  0.00     0.169 HD
HETATM    4  C6  UNL     1      26.600  16.733   0.992  1.00  0.00     0.144 A 
HETATM    5  C7  UNL     1      25.761  16.414   1.959  1.00  0.00     0.073 C 
HETATM    6  O7  UNL     1      27.343  17.879   0.819  1.00  0.00    -0.328 OA
HETATM    7  C15 UNL     1      28.137  17.827  -0.341  1.00  0.00     0.254 A 
ENDROOT
BRANCH   5   8
HETATM    8  C8  UNL     1      25.446  17.283   3.088  1.00  0.00     0.035 A 
HETATM    9  C9  UNL     1      25.920  16.922   4.337  1.00  0.00     0.087 A 
HETATM   10  C10 UNL     1      25.725  17.567   5.519  1.00  0.00     0.013 A 
HETATM   11  C13 UNL     1      24.991  18.737   5.671  1.00  0.00     0.063 A 
HETATM   12  S2  UNL     1      24.318  19.343   4.218  1.00  0.00    -0.083 SA
HETATM   13  C14 UNL     1      24.673  18.395   2.848  1.00  0.00     0.080 A 
HETATM   14  N6  UNL     1      24.216  18.696   1.658  1.00  0.00    -0.393 N 
ATOM     15  H62 UNL     1      24.428  18.128   0.838  1.00  0.00     0.156 HD
ATOM     16  H61 UNL     1      23.643  19.521   1.480  1.00  0.00     0.156 HD
BRANCH   9  17
HETATM   17  O2  UNL     1      26.695  15.749   4.384  1.00  0.00    -0.359 OA
ATOM     18  H2  UNL     1      27.496  15.762   3.875  1.00  0.00     0.217 HD
ENDBRANCH   9  17
BRANCH  10  19
HETATM   19  C11 UNL     1      26.360  17.003   6.760  1.00  0.00     0.265 C 
BRANCH  19  20
HETATM   20  C12 UNL     1      25.755  17.425   8.013  1.00  0.00     0.198 C 
HETATM   21  O3  UNL     1      24.817  16.706   8.528  1.00  0.00    -0.647 OA
HETATM   22  O4  UNL     1      26.068  18.543   8.754  1.00  0.00    -0.647 OA
ENDBRANCH  19  20
BRANCH  19  23
HETATM   23  S1  UNL     1      28.091  17.443   6.800  1.00  0.00     0.243 S 
HETATM   24  O5  UNL     1      28.913  16.433   6.045  1.00  0.00    -0.205 OA
HETATM   25  O6  UNL     1      28.343  18.783   6.196  1.00  0.00    -0.205 OA
BRANCH  23  26
HETATM   26  N5  UNL     1      28.651  17.472   8.430  1.00  0.00    -0.327 N 
ATOM     27  H52 UNL     1      28.232  16.937   9.190  1.00  0.00     0.168 HD
ATOM     28  H51 UNL     1      29.452  18.098   8.511  1.00  0.00     0.168 HD
ENDBRANCH  23  26
ENDBRANCH  19  23
ENDBRANCH  10  19
ENDBRANCH   5   8
BRANCH   1  29
HETATM   29  N3  UNL     1      28.322  15.958  -2.091  1.00  0.00    -0.313 N 
HETATM   30  C4  UNL     1      28.482  14.557  -2.228  1.00  0.00     0.254 C 
HETATM   31  O1  UNL     1      28.152  13.810  -1.290  1.00  0.00    -0.271 OA
ATOM     32  H3  UNL     1      28.590  16.576  -2.857  1.00  0.00     0.170 HD
BRANCH  30  33
HETATM   33  C3  UNL     1      29.046  13.990  -3.508  1.00  0.00     0.281 C 
BRANCH  33  34
HETATM   34  C2  UNL     1      29.305  15.135  -4.432  1.00  0.00     0.114 C 
BRANCH  34  35
HETATM   35  C1  UNL     1      28.598  15.019  -5.700  1.00  0.00     0.123 C 
HETATM   36  N1  UNL     1      28.897  14.304  -6.702  1.00  0.00    -0.391 N 
ATOM     37  H12 UNL     1      29.717  13.711  -6.575  1.00  0.00     0.156 HD
ATOM     38  H11 UNL     1      28.401  14.222  -7.590  1.00  0.00     0.156 HD
BRANCH  35  39
HETATM   39  S3  UNL     1      27.168  16.052  -5.921  1.00  0.00     0.149 S 
HETATM   40  O8  UNL     1      25.946  15.157  -5.978  1.00  0.00    -0.590 OA
HETATM   41  O9  UNL     1      27.295  16.823  -7.185  1.00  0.00    -0.590 OA
HETATM   42  O10 UNL     1      27.047  17.068  -4.604  1.00  0.00    -0.590 OA
ENDBRANCH  35  39
ENDBRANCH  34  35
ENDBRANCH  33  34
BRANCH  33  43
HETATM   43  N2  UNL     1      30.361  13.391  -3.176  1.00  0.00    -0.066 N 
ATOM     44  H23 UNL     1      30.801  12.926  -3.970  1.00  0.00     0.275 HD
ATOM     45  H22 UNL     1      31.088  14.088  -3.013  1.00  0.00     0.275 HD
ATOM     46  H21 UNL     1      30.215  12.772  -2.379  1.00  0.00     0.275 HD
ENDBRANCH  33  43
ENDBRANCH  30  33
ENDBRANCH   1  29
TORSDOF 12
ENDMDL
MODEL 2
REMARK VINA RESULT: -5.531305248      2.297      2.759
REMARK  12 active torsions:
REMARK  status: ('A' for Active; 'I' for Inactive)
REMARK    1  A    between atoms: C1_4  and  C2_5 
REMARK    2  A    between atoms: C1_4  and  S3_43 
REMARK    3  A    between atoms: C2_5  and  C3_6 
REMARK    4  A    between atoms: C3_6  and  N2_7 
REMARK    5  A    between atoms: C3_6  and  C4_11 
REMARK       I    between atoms: C4_11  and  N3_13 
REMARK    6  A    between atoms: N3_13  and  C5_15 
REMARK    7  A    between atoms: C7_19  and  C8_20 
REMARK    8  A    between atoms: C9_21  and  O2_22 
REMARK    9  A    between atoms: C10_24  and  C11_25 
REMARK   10  A    between atoms: C11_25  and  C12_26 
REMARK   11  A    between atoms: C11_25  and  S1_29 
REMARK   12  A    between atoms: S1_29  and  N5_30 
ROOT
HETATM    1  C5  UNL     1      26.529  14.322  -0.348  1.00  0.00     0.110 A 
HETATM    2  N4  UNL     1      26.680  15.502   0.203  1.00  0.00    -0.325 N 
ATOM      3  H4  UNL     1      27.234  16.264  -0.186  1.00  0.00     0.169 HD
HETATM    4  C6  UNL     1      25.947  15.559   1.441  1.00  0.00     0.144 A 
HETATM    5  C7  UNL     1      25.888  16.609   2.240  1.00  0.00     0.073 C 
HETATM    6  O7  UNL     1      25.357  14.323   1.572  1.00  0.00    -0.328 OA
HETATM    7  C15 UNL     1      25.652  13.475   0.490  1.00  0.00     0.254 A 
ENDROOT
BRANCH   5   8
HETATM    8  C8  UNL     1      25.139  16.641   3.492  1.00  0.00     0.035 A 
HETATM    9  C9  UNL     1      25.748  16.130   4.625  1.00  0.00     0.087 A 
HETATM   10  C10 UNL     1      25.227  16.038   5.878  1.00  0.00     0.013 A 
HETATM   11  C13 UNL     1      23.953  16.457   6.240  1.00  0.00     0.063 A 
HETATM   12  S2  UNL     1      23.038  17.125   4.956  1.00  0.00    -0.083 SA
HETATM   13  C14 UNL     1      23.863  17.151   3.465  1.00  0.00     0.080 A 
HETATM   14  N6  UNL     1      23.303  17.603   2.371  1.00  0.00    -0.393 N 
ATOM     15  H62 UNL     1      23.797  17.619   1.479  1.00  0.00     0.156 HD
ATOM     16  H61 UNL     1      22.356  17.982   2.352  1.00  0.00     0.156 HD
BRANCH   9  17
HETATM   17  O2  UNL     1      27.060  15.652   4.454  1.00  0.00    -0.359 OA
ATOM     18  H2  UNL     1      27.225  14.772   4.772  1.00  0.00     0.217 HD
ENDBRANCH   9  17
BRANCH  10  19
HETATM   19  C11 UNL     1      26.086  15.465   6.973  1.00  0.00     0.265 C 
BRANCH  19  20
HETATM   20  C12 UNL     1      25.366  15.025   8.158  1.00  0.00     0.198 C 
HETATM   21  O3  UNL     1      25.071  13.776   8.283  1.00  0.00    -0.647 OA
HETATM   22  O4  UNL     1      24.942  15.804   9.212  1.00  0.00    -0.647 OA
ENDBRANCH  19  20
BRANCH  19  23
HETATM   23  S1  UNL     1      27.303  16.672   7.475  1.00  0.00     0.243 S 
HETATM   24  O5  UNL     1      28.487  16.649   6.547  1.00  0.00    -0.205 OA
HETATM   25  O6  UNL     1      26.750  18.057   7.478  1.00  0.00    -0.205 OA
BRANCH  23  26
HETATM   26  N5  UNL     1      27.866  16.312   9.064  1.00  0.00    -0.327 N 
ATOM     27  H52 UNL     1      27.532  16.775   9.909  1.00  0.00     0.168 HD
ATOM     28  H51 UNL     1      28.572  15.578   9.024  1.00  0.00     0.168 HD
ENDBRANCH  23  26
ENDBRANCH  19  23
ENDBRANCH  10  19
ENDBRANCH   5   8
BRANCH   1  29
HETATM   29  N3  UNL     1      27.114  13.935  -1.570  1.00  0.00    -0.313 N 
HETATM   30  C4  UNL     1      26.564  14.371  -2.801  1.00  0.00     0.254 C 
HETATM   31  O1  UNL     1      25.557  15.100  -2.794  1.00  0.00    -0.271 OA
ATOM     32  H3  UNL     1      27.940  13.336  -1.569  1.00  0.00     0.170 HD
BRANCH  30  33
HETATM   33  C3  UNL     1      27.206  13.950  -4.099  1.00  0.00     0.281 C 
BRANCH  33  34
HETATM   34  C2  UNL     1      28.584  14.528  -4.129  1.00  0.00     0.114 C 
BRANCH  34  35
HETATM   35  C1  UNL     1      28.595  15.983  -4.057  1.00  0.00     0.123 C 
HETATM   36  N1  UNL     1      28.058  16.812  -4.851  1.00  0.00    -0.391 N 
ATOM     37  H12 UNL     1      27.522  16.391  -5.610  1.00  0.00     0.156 HD
ATOM     38  H11 UNL     1      28.066  17.831  -4.801  1.00  0.00     0.156 HD
BRANCH  35  39
HETATM   39  S3  UNL     1      29.530  16.717  -2.734  1.00  0.00     0.149 S 
HETATM   40  O8  UNL     1      30.758  15.862  -2.496  1.00  0.00    -0.590 OA
HETATM   41  O9  UNL     1      28.700  16.773  -1.503  1.00  0.00    -0.590 OA
HETATM   42  O10 UNL     1      30.003  18.243  -3.213  1.00  0.00    -0.590 OA
ENDBRANCH  35  39
ENDBRANCH  34  35
ENDBRANCH  33  34
BRANCH  33  43
HETATM   43  N2  UNL     1      27.355  12.475  -4.053  1.00  0.00    -0.066 N 
ATOM     44  H23 UNL     1      28.305  12.175  -3.834  1.00  0.00     0.275 HD
ATOM     45  H22 UNL     1      26.895  12.052  -3.246  1.00  0.00     0.275 HD
ATOM     46  H21 UNL     1      27.015  12.112  -4.943  1.00  0.00     0.275 HD
ENDBRANCH  33  43
ENDBRANCH  30  33
ENDBRANCH   1  29
TORSDOF 12
ENDMDL
MODEL 3
REMARK VINA RESULT: -5.310622452      1.886      2.602
REMARK  12 active torsions:
REMARK  status: ('A' for Active; 'I' for Inactive)
REMARK    1  A    between atoms: C1_4  and  C2_5 
REMARK    2  A    between atoms: C1_4  and  S3_43 
REMARK    3  A    between atoms: C2_5  and  C3_6 
REMARK    4  A    between atoms: C3_6  and  N2_7 
REMARK    5  A    between atoms: C3_6  and  C4_11 
REMARK       I    between atoms: C4_11  and  N3_13 
REMARK    6  A    between atoms: N3_13  and  C5_15 
REMARK    7  A    between atoms: C7_19  and  C8_20 
REMARK    8  A    between atoms: C9_21  and  O2_22 
REMARK    9  A    between atoms: C10_24  and  C11_25 
REMARK   10  A    between atoms: C11_25  and  C12_26 
REMARK   11  A    between atoms: C11_25  and  S1_29 
REMARK   12  A    between atoms: S1_29  and  N5_30 
ROOT
HETATM    1  C5  UNL     1      27.349  17.522  -0.238  1.00  0.00     0.110 A 
HETATM    2  N4  UNL     1      26.687  16.556   0.351  1.00  0.00    -0.325 N 
ATOM      3  H4  UNL     1      26.508  15.637  -0.052  1.00  0.00     0.169 HD
HETATM    4  C6  UNL     1      26.251  16.987   1.653  1.00  0.00     0.144 A 
HETATM    5  C7  UNL     1      25.563  16.250   2.506  1.00  0.00     0.073 C 
HETATM    6  O7  UNL     1      26.706  18.280   1.781  1.00  0.00    -0.328 OA
HETATM    7  C15 UNL     1      27.421  18.705   0.647  1.00  0.00     0.254 A 
ENDROOT
BRANCH   5   8
HETATM    8  C8  UNL     1      25.130  16.711   3.820  1.00  0.00     0.035 A 
HETATM    9  C9  UNL     1      25.897  16.360   4.918  1.00  0.00     0.087 A 
HETATM   10  C10 UNL     1      25.665  16.659   6.224  1.00  0.00     0.013 A 
HETATM   11  C13 UNL     1      24.580  17.393   6.689  1.00  0.00     0.063 A 
HETATM   12  S2  UNL     1      23.507  17.920   5.464  1.00  0.00    -0.083 SA
HETATM   13  C14 UNL     1      23.969  17.445   3.894  1.00  0.00     0.080 A 
HETATM   14  N6  UNL     1      23.249  17.740   2.841  1.00  0.00    -0.393 N 
ATOM     15  H62 UNL     1      23.525  17.455   1.901  1.00  0.00     0.156 HD
ATOM     16  H61 UNL     1      22.388  18.284   2.895  1.00  0.00     0.156 HD
BRANCH   9  17
HETATM   17  O2  UNL     1      27.052  15.605   4.642  1.00  0.00    -0.359 OA
ATOM     18  H2  UNL     1      27.188  14.842   5.190  1.00  0.00     0.217 HD
ENDBRANCH   9  17
BRANCH  10  19
HETATM   19  C11 UNL     1      26.654  16.190   7.256  1.00  0.00     0.265 C 
BRANCH  19  20
HETATM   20  C12 UNL     1      26.110  15.983   8.588  1.00  0.00     0.198 C 
HETATM   21  O3  UNL     1      25.570  14.848   8.875  1.00  0.00    -0.647 OA
HETATM   22  O4  UNL     1      26.096  16.884   9.631  1.00  0.00    -0.647 OA
ENDBRANCH  19  20
BRANCH  19  23
HETATM   23  S1  UNL     1      27.996  17.363   7.376  1.00  0.00     0.243 S 
HETATM   24  O5  UNL     1      28.916  17.242   6.192  1.00  0.00    -0.205 OA
HETATM   25  O6  UNL     1      27.506  18.770   7.434  1.00  0.00    -0.205 OA
BRANCH  23  26
HETATM   26  N5  UNL     1      28.918  17.055   8.800  1.00  0.00    -0.327 N 
ATOM     27  H52 UNL     1      28.661  16.374   9.514  1.00  0.00     0.168 HD
ATOM     28  H51 UNL     1      29.745  17.651   8.813  1.00  0.00     0.168 HD
ENDBRANCH  23  26
ENDBRANCH  19  23
ENDBRANCH  10  19
ENDBRANCH   5   8
BRANCH   1  29
HETATM   29  N3  UNL     1      27.915  17.429  -1.525  1.00  0.00    -0.313 N 
HETATM   30  C4  UNL     1      27.085  17.281  -2.664  1.00  0.00     0.254 C 
HETATM   31  O1  UNL     1      25.851  17.232  -2.519  1.00  0.00    -0.271 OA
ATOM     32  H3  UNL     1      28.927  17.469  -1.638  1.00  0.00     0.170 HD
BRANCH  30  33
HETATM   33  C3  UNL     1      27.707  17.187  -4.036  1.00  0.00     0.281 C 
BRANCH  33  34
HETATM   34  C2  UNL     1      27.627  15.759  -4.470  1.00  0.00     0.114 C 
BRANCH  34  35
HETATM   35  C1  UNL     1      28.919  15.088  -4.476  1.00  0.00     0.123 C 
HETATM   36  N1  UNL     1      29.591  14.686  -5.472  1.00  0.00    -0.391 N 
ATOM     37  H12 UNL     1      29.178  14.900  -6.380  1.00  0.00     0.156 HD
ATOM     38  H11 UNL     1      30.496  14.216  -5.476  1.00  0.00     0.156 HD
BRANCH  35  39
HETATM   39  S3  UNL     1      29.640  14.715  -2.893  1.00  0.00     0.149 S 
HETATM   40  O8  UNL     1      30.481  15.902  -2.467  1.00  0.00    -0.590 OA
HETATM   41  O9  UNL     1      30.489  13.501  -3.001  1.00  0.00    -0.590 OA
HETATM   42  O10 UNL     1      28.404  14.492  -1.796  1.00  0.00    -0.590 OA
ENDBRANCH  35  39
ENDBRANCH  34  35
ENDBRANCH  33  34
BRANCH  33  43
HETATM   43  N2  UNL     1      26.850  17.971  -4.957  1.00  0.00    -0.066 N 
ATOM     44  H23 UNL     1      26.648  17.482  -5.830  1.00  0.00     0.275 HD
ATOM     45  H22 UNL     1      25.887  18.058  -4.631  1.00  0.00     0.275 HD
ATOM     46  H21 UNL     1      27.308  18.871  -5.098  1.00  0.00     0.275 HD
ENDBRANCH  33  43
ENDBRANCH  30  33
ENDBRANCH   1  29
TORSDOF 12
ENDMDL
MODEL 4
REMARK VINA RESULT: -5.287343149      2.384      3.036
REMARK  12 active torsions:
REMARK  status: ('A' for Active; 'I' for Inactive)
REMARK    1  A    between atoms: C1_4  and  C2_5 
REMARK    2  A    between atoms: C1_4  and  S3_43 
REMARK    3  A    between atoms: C2_5  and  C3_6 
REMARK    4  A    between atoms: C3_6  and  N2_7 
REMARK    5  A    between atoms: C3_6  and  C4_11 
REMARK       I    between atoms: C4_11  and  N3_13 
REMARK    6  A    between atoms: N3_13  and  C5_15 
REMARK    7  A    between atoms: C7_19  and  C8_20 
REMARK    8  A    between atoms: C9_21  and  O2_22 
REMARK    9  A    between atoms: C10_24  and  C11_25 
REMARK   10  A    between atoms: C11_25  and  C12_26 
REMARK   11  A    between atoms: C11_25  and  S1_29 
REMARK   12  A    between atoms: S1_29  and  N5_30 
ROOT
HETATM    1  C5  UNL     1      25.392  14.997   0.001  1.00  0.00     0.110 A 
HETATM    2  N4  UNL     1      25.913  16.072   0.540  1.00  0.00    -0.325 N 
ATOM      3  H4  UNL     1      26.538  16.722   0.066  1.00  0.00     0.169 HD
HETATM    4  C6  UNL     1      25.468  16.198   1.904  1.00  0.00     0.144 A 
HETATM    5  C7  UNL     1      25.806  17.174   2.725  1.00  0.00     0.073 C 
HETATM    6  O7  UNL     1      24.649  15.113   2.122  1.00  0.00    -0.328 OA
HETATM    7  C15 UNL     1      24.527  14.302   0.979  1.00  0.00     0.254 A 
ENDROOT
BRANCH   5   8
HETATM    8  C8  UNL     1      25.344  17.278   4.105  1.00  0.00     0.035 A 
HETATM    9  C9  UNL     1      25.982  16.508   5.063  1.00  0.00     0.087 A 
HETATM   10  C10 UNL     1      25.699  16.431   6.391  1.00  0.00     0.013 A 
HETATM   11  C13 UNL     1      24.687  17.138   7.028  1.00  0.00     0.063 A 
HETATM   12  S2  UNL     1      23.777  18.156   5.994  1.00  0.00    -0.083 SA
HETATM   13  C14 UNL     1      24.284  18.113   4.368  1.00  0.00     0.080 A 
HETATM   14  N6  UNL     1      23.683  18.809   3.436  1.00  0.00    -0.393 N 
ATOM     15  H62 UNL     1      23.985  18.783   2.463  1.00  0.00     0.156 HD
ATOM     16  H61 UNL     1      22.896  19.429   3.631  1.00  0.00     0.156 HD
BRANCH   9  17
HETATM   17  O2  UNL     1      27.048  15.714   4.601  1.00  0.00    -0.359 OA
ATOM     18  H2  UNL     1      27.419  15.966   3.764  1.00  0.00     0.217 HD
ENDBRANCH   9  17
BRANCH  10  19
HETATM   19  C11 UNL     1      26.547  15.538   7.256  1.00  0.00     0.265 C 
BRANCH  19  20
HETATM   20  C12 UNL     1      25.913  15.081   8.483  1.00  0.00     0.198 C 
HETATM   21  O3  UNL     1      25.198  14.008   8.455  1.00  0.00    -0.647 OA
HETATM   22  O4  UNL     1      25.982  15.671   9.726  1.00  0.00    -0.647 OA
ENDBRANCH  19  20
BRANCH  19  23
HETATM   23  S1  UNL     1      28.059  16.385   7.691  1.00  0.00     0.243 S 
HETATM   24  O5  UNL     1      28.985  15.466   8.440  1.00  0.00    -0.205 OA
HETATM   25  O6  UNL     1      28.784  16.888   6.489  1.00  0.00    -0.205 OA
BRANCH  23  26
HETATM   26  N5  UNL     1      27.705  17.730   8.709  1.00  0.00    -0.327 N 
ATOM     27  H52 UNL     1      28.354  18.494   8.896  1.00  0.00     0.168 HD
ATOM     28  H51 UNL     1      26.763  17.640   9.088  1.00  0.00     0.168 HD
ENDBRANCH  23  26
ENDBRANCH  19  23
ENDBRANCH  10  19
ENDBRANCH   5   8
BRANCH   1  29
HETATM   29  N3  UNL     1      25.623  14.581  -1.326  1.00  0.00    -0.313 N 
HETATM   30  C4  UNL     1      25.331  15.444  -2.410  1.00  0.00     0.254 C 
HETATM   31  O1  UNL     1      24.866  16.574  -2.182  1.00  0.00    -0.271 OA
ATOM     32  H3  UNL     1      26.005  13.652  -1.506  1.00  0.00     0.170 HD
BRANCH  30  33
HETATM   33  C3  UNL     1      25.589  14.983  -3.824  1.00  0.00     0.281 C 
BRANCH  33  34
HETATM   34  C2  UNL     1      26.942  14.350  -3.851  1.00  0.00     0.114 C 
BRANCH  34  35
HETATM   35  C1  UNL     1      28.023  15.315  -3.999  1.00  0.00     0.123 C 
HETATM   36  N1  UNL     1      28.228  16.124  -4.952  1.00  0.00    -0.391 N 
ATOM     37  H12 UNL     1      27.517  16.113  -5.682  1.00  0.00     0.156 HD
ATOM     38  H11 UNL     1      28.985  16.801  -5.055  1.00  0.00     0.156 HD
BRANCH  35  39
HETATM   39  S3  UNL     1      29.264  15.336  -2.725  1.00  0.00     0.149 S 
HETATM   40  O8  UNL     1      30.188  16.508  -2.987  1.00  0.00    -0.590 OA
HETATM   41  O9  UNL     1      30.032  14.064  -2.750  1.00  0.00    -0.590 OA
HETATM   42  O10 UNL     1      28.502  15.551  -1.257  1.00  0.00    -0.590 OA
ENDBRANCH  35  39
ENDBRANCH  34  35
ENDBRANCH  33  34
BRANCH  33  43
HETATM   43  N2  UNL     1      24.603  13.916  -4.121  1.00  0.00    -0.066 N 
ATOM     44  H23 UNL     1      24.587  13.649  -5.105  1.00  0.00     0.275 HD
ATOM     45  H22 UNL     1      24.871  13.007  -3.743  1.00  0.00     0.275 HD
ATOM     46  H21 UNL     1      23.699  14.241  -3.779  1.00  0.00     0.275 HD
ENDBRANCH  33  43
ENDBRANCH  30  33
ENDBRANCH   1  29
TORSDOF 12
ENDMDL
MODEL 5
REMARK VINA RESULT: -5.285634762      1.580      1.864
REMARK  12 active torsions:
REMARK  status: ('A' for Active; 'I' for Inactive)
REMARK    1  A    between atoms: C1_4  and  C2_5 
REMARK    2  A    between atoms: C1_4  and  S3_43 
REMARK    3  A    between atoms: C2_5  and  C3_6 
REMARK    4  A    between atoms: C3_6  and  N2_7 
REMARK    5  A    between atoms: C3_6  and  C4_11 
REMARK       I    between atoms: C4_11  and  N3_13 
REMARK    6  A    between atoms: N3_13  and  C5_15 
REMARK    7  A    between atoms: C7_19  and  C8_20 
REMARK    8  A    between atoms: C9_21  and  O2_22 
REMARK    9  A    between atoms: C10_24  and  C11_25 
REMARK   10  A    between atoms: C11_25  and  C12_26 
REMARK   11  A    between atoms: C11_25  and  S1_29 
REMARK   12  A    between atoms: S1_29  and  N5_30 
ROOT
HETATM    1  C5  UNL     1      27.440  17.757  -0.112  1.00  0.00     0.110 A 
HETATM    2  N4  UNL     1      26.746  16.752   0.364  1.00  0.00    -0.325 N 
ATOM      3  H4  UNL     1      26.582  15.871  -0.121  1.00  0.00     0.169 HD
HETATM    4  C6  UNL     1      26.251  17.079   1.676  1.00  0.00     0.144 A 
HETATM    5  C7  UNL     1      25.521  16.280   2.433  1.00  0.00     0.073 C 
HETATM    6  O7  UNL     1      26.707  18.353   1.930  1.00  0.00    -0.328 OA
HETATM    7  C15 UNL     1      27.476  18.863   0.869  1.00  0.00     0.254 A 
ENDROOT
BRANCH   5   8
HETATM    8  C8  UNL     1      25.029  16.637   3.759  1.00  0.00     0.035 A 
HETATM    9  C9  UNL     1      25.813  16.312   4.852  1.00  0.00     0.087 A 
HETATM   10  C10 UNL     1      25.537  16.526   6.166  1.00  0.00     0.013 A 
HETATM   11  C13 UNL     1      24.381  17.129   6.646  1.00  0.00     0.063 A 
HETATM   12  S2  UNL     1      23.275  17.605   5.427  1.00  0.00    -0.083 SA
HETATM   13  C14 UNL     1      23.800  17.250   3.846  1.00  0.00     0.080 A 
HETATM   14  N6  UNL     1      23.068  17.521   2.795  1.00  0.00    -0.393 N 
ATOM     15  H62 UNL     1      23.382  17.308   1.848  1.00  0.00     0.156 HD
ATOM     16  H61 UNL     1      22.157  17.976   2.859  1.00  0.00     0.156 HD
BRANCH   9  17
HETATM   17  O2  UNL     1      27.040  15.686   4.562  1.00  0.00    -0.359 OA
ATOM     18  H2  UNL     1      27.730  16.256   4.245  1.00  0.00     0.217 HD
ENDBRANCH   9  17
BRANCH  10  19
HETATM   19  C11 UNL     1      26.556  16.109   7.192  1.00  0.00     0.265 C 
BRANCH  19  20
HETATM   20  C12 UNL     1      26.015  15.767   8.498  1.00  0.00     0.198 C 
HETATM   21  O3  UNL     1      25.515  14.594   8.681  1.00  0.00    -0.647 OA
HETATM   22  O4  UNL     1      25.968  16.572   9.616  1.00  0.00    -0.647 OA
ENDBRANCH  19  20
BRANCH  19  23
HETATM   23  S1  UNL     1      27.758  17.413   7.408  1.00  0.00     0.243 S 
HETATM   24  O5  UNL     1      28.586  17.583   6.163  1.00  0.00    -0.205 OA
HETATM   25  O6  UNL     1      27.114  18.723   7.713  1.00  0.00    -0.205 OA
BRANCH  23  26
HETATM   26  N5  UNL     1      28.822  17.020   8.706  1.00  0.00    -0.327 N 
ATOM     27  H52 UNL     1      29.775  17.373   8.794  1.00  0.00     0.168 HD
ATOM     28  H51 UNL     1      28.356  16.390   9.358  1.00  0.00     0.168 HD
ENDBRANCH  23  26
ENDBRANCH  19  23
ENDBRANCH  10  19
ENDBRANCH   5   8
BRANCH   1  29
HETATM   29  N3  UNL     1      28.065  17.764  -1.375  1.00  0.00    -0.313 N 
HETATM   30  C4  UNL     1      28.647  16.582  -1.895  1.00  0.00     0.254 C 
HETATM   31  O1  UNL     1      28.602  15.535  -1.226  1.00  0.00    -0.271 OA
ATOM     32  H3  UNL     1      28.098  18.627  -1.919  1.00  0.00     0.170 HD
BRANCH  30  33
HETATM   33  C3  UNL     1      29.308  16.607  -3.251  1.00  0.00     0.281 C 
BRANCH  33  34
HETATM   34  C2  UNL     1      28.307  16.122  -4.249  1.00  0.00     0.114 C 
BRANCH  34  35
HETATM   35  C1  UNL     1      28.817  15.054  -5.098  1.00  0.00     0.123 C 
HETATM   36  N1  UNL     1      29.830  14.317  -4.910  1.00  0.00    -0.391 N 
ATOM     37  H12 UNL     1      30.318  14.479  -4.029  1.00  0.00     0.156 HD
ATOM     38  H11 UNL     1      30.187  13.569  -5.505  1.00  0.00     0.156 HD
BRANCH  35  39
HETATM   39  S3  UNL     1      27.966  14.771  -6.634  1.00  0.00     0.149 S 
HETATM   40  O8  UNL     1      26.898  13.723  -6.394  1.00  0.00    -0.590 OA
HETATM   41  O9  UNL     1      28.928  14.294  -7.662  1.00  0.00    -0.590 OA
HETATM   42  O10 UNL     1      27.243  16.199  -7.102  1.00  0.00    -0.590 OA
ENDBRANCH  35  39
ENDBRANCH  34  35
ENDBRANCH  33  34
BRANCH  33  43
HETATM   43  N2  UNL     1      29.589  18.027  -3.572  1.00  0.00    -0.066 N 
ATOM     44  H23 UNL     1      28.810  18.494  -4.037  1.00  0.00     0.275 HD
ATOM     45  H22 UNL     1      29.625  18.625  -2.746  1.00  0.00     0.275 HD
ATOM     46  H21 UNL     1      30.451  18.046  -4.117  1.00  0.00     0.275 HD
ENDBRANCH  33  43
ENDBRANCH  30  33
ENDBRANCH   1  29
TORSDOF 12
ENDMDL
