MODEL 1
REMARK VINA RESULT: -6.292525071      0.000      0.000
REMARK  3 active torsions:
REMARK  status: ('A' for Active; 'I' for Inactive)
REMARK    1  A    between atoms: N1_1  and  C1_4 
REMARK       I    between atoms: N4_10  and  C3_12 
REMARK    2  A    between atoms: C3_12  and  C4_14 
REMARK    3  A    between atoms: N6_16  and  N7_18 
ROOT
HETATM    1  C1  UNL     1       2.186 -16.093  19.229  1.00  0.00     0.693 A 
HETATM    2  N2  UNL     1       2.687 -17.297  18.950  1.00  0.00    -0.131 N 
ATOM      3  H2  UNL     1       3.056 -17.473  18.015  1.00  0.00     0.205 HD
HETATM    4  N3  UNL     1       2.722 -18.285  19.857  1.00  0.00    -0.267 N 
ATOM      5  H3  UNL     1       3.113 -19.194  19.609  1.00  0.00     0.189 HD
HETATM    6  C2  UNL     1       2.243 -18.076  21.088  1.00  0.00     0.193 A 
HETATM    7  N4  UNL     1       2.287 -19.047  21.947  1.00  0.00    -0.301 N 
ATOM      8  H4  UNL     1       1.923 -18.891  22.887  1.00  0.00     0.171 HD
HETATM    9  C3  UNL     1       2.826 -20.321  21.621  1.00  0.00     0.289 C 
HETATM   10  O1  UNL     1       2.096 -21.048  20.873  1.00  0.00    -0.264 OA
HETATM   11  C5  UNL     1       1.721 -16.844  21.402  1.00  0.00     0.305 A 
HETATM   12  O2  UNL     1       1.263 -16.604  22.539  1.00  0.00    -0.263 OA
HETATM   13  N8  UNL     1       1.703 -15.868  20.459  1.00  0.00    -0.152 N 
ATOM     14  H8  UNL     1       1.318 -14.952  20.689  1.00  0.00     0.188 HD
ENDROOT
BRANCH   9  15
HETATM   15  C4  UNL     1       4.121 -20.775  22.097  1.00  0.00     0.199 C 
HETATM   16  N5  UNL     1       5.289 -20.069  21.711  1.00  0.00    -0.075 NA
HETATM   17  N6  UNL     1       4.273 -21.795  22.863  1.00  0.00    -0.290 N 
ATOM     18  H6  UNL     1       5.228 -22.023  23.138  1.00  0.00     0.187 HD
BRANCH  17  19
HETATM   19  N7  UNL     1       3.285 -22.606  23.347  1.00  0.00    -0.344 N 
ATOM     20  H72 UNL     1       2.636 -22.972  22.651  1.00  0.00     0.176 HD
ATOM     21  H71 UNL     1       3.139 -22.873  24.320  1.00  0.00     0.176 HD
ENDBRANCH  17  19
ENDBRANCH   9  15
BRANCH   1  22
HETATM   22  N1  UNL     1       2.168 -15.165  18.334  1.00  0.00    -0.233 N 
ATOM     23  H12 UNL     1       2.508 -15.346  17.389  1.00  0.00     0.174 HD
ATOM     24  H11 UNL     1       1.814 -14.234  18.557  1.00  0.00     0.174 HD
ENDBRANCH   1  22
TORSDOF 3
ENDMDL
MODEL 2
REMARK VINA RESULT: -6.123284164      2.133      2.549
REMARK  3 active torsions:
REMARK  status: ('A' for Active; 'I' for Inactive)
REMARK    1  A    between atoms: N1_1  and  C1_4 
REMARK       I    between atoms: N4_10  and  C3_12 
REMARK    2  A    between atoms: C3_12  and  C4_14 
REMARK    3  A    between atoms: N6_16  and  N7_18 
ROOT
HETATM    1  C1  UNL     1       0.247 -15.588  20.606  1.00  0.00     0.693 A 
HETATM    2  N2  UNL     1       0.305 -16.529  21.549  1.00  0.00    -0.131 N 
ATOM      3  H2  UNL     1      -0.384 -16.517  22.301  1.00  0.00     0.205 HD
HETATM    4  N3  UNL     1       1.240 -17.492  21.540  1.00  0.00    -0.267 N 
ATOM      5  H3  UNL     1       1.254 -18.198  22.277  1.00  0.00     0.189 HD
HETATM    6  C2  UNL     1       2.153 -17.526  20.564  1.00  0.00     0.193 A 
HETATM    7  N4  UNL     1       3.045 -18.466  20.579  1.00  0.00    -0.301 N 
ATOM      8  H4  UNL     1       3.743 -18.496  19.835  1.00  0.00     0.171 HD
HETATM    9  C3  UNL     1       3.083 -19.457  21.597  1.00  0.00     0.289 C 
HETATM   10  O1  UNL     1       3.516 -19.062  22.728  1.00  0.00    -0.264 OA
HETATM   11  C5  UNL     1       2.116 -16.567  19.581  1.00  0.00     0.305 A 
HETATM   12  O2  UNL     1       2.948 -16.560  18.649  1.00  0.00    -0.263 OA
HETATM   13  N8  UNL     1       1.155 -15.609  19.620  1.00  0.00    -0.152 N 
ATOM     14  H8  UNL     1       1.124 -14.896  18.891  1.00  0.00     0.188 HD
ENDROOT
BRANCH   9  15
HETATM   15  C4  UNL     1       2.659 -20.829  21.379  1.00  0.00     0.199 C 
HETATM   16  N5  UNL     1       2.972 -21.465  20.150  1.00  0.00    -0.075 NA
HETATM   17  N6  UNL     1       2.007 -21.513  22.249  1.00  0.00    -0.290 N 
ATOM     18  H6  UNL     1       1.761 -22.468  21.990  1.00  0.00     0.187 HD
BRANCH  17  19
HETATM   19  N7  UNL     1       1.610 -21.091  23.486  1.00  0.00    -0.344 N 
ATOM     20  H72 UNL     1       0.934 -20.328  23.495  1.00  0.00     0.176 HD
ATOM     21  H71 UNL     1       1.920 -21.461  24.385  1.00  0.00     0.176 HD
ENDBRANCH  17  19
ENDBRANCH   9  15
BRANCH   1  22
HETATM   22  N1  UNL     1      -0.664 -14.676  20.643  1.00  0.00    -0.233 N 
ATOM     23  H12 UNL     1      -0.563 -13.862  21.250  1.00  0.00     0.174 HD
ATOM     24  H11 UNL     1      -1.502 -14.754  20.065  1.00  0.00     0.174 HD
ENDBRANCH   1  22
TORSDOF 3
ENDMDL
MODEL 3
REMARK VINA RESULT: -6.046888980      2.401      3.152
REMARK  3 active torsions:
REMARK  status: ('A' for Active; 'I' for Inactive)
REMARK    1  A    between atoms: N1_1  and  C1_4 
REMARK       I    between atoms: N4_10  and  C3_12 
REMARK    2  A    between atoms: C3_12  and  C4_14 
REMARK    3  A    between atoms: N6_16  and  N7_18 
ROOT
HETATM    1  C1  UNL     1      -0.274 -15.152  20.360  1.00  0.00     0.693 A 
HETATM    2  N2  UNL     1      -0.058 -16.268  21.057  1.00  0.00    -0.131 N 
ATOM      3  H2  UNL     1      -0.639 -16.460  21.873  1.00  0.00     0.205 HD
HETATM    4  N3  UNL     1       0.900 -17.146  20.721  1.00  0.00    -0.267 N 
ATOM      5  H3  UNL     1       1.037 -17.991  21.277  1.00  0.00     0.189 HD
HETATM    6  C2  UNL     1       1.674 -16.913  19.656  1.00  0.00     0.193 A 
HETATM    7  N4  UNL     1       2.592 -17.777  19.353  1.00  0.00    -0.301 N 
ATOM      8  H4  UNL     1       3.184 -17.603  18.540  1.00  0.00     0.171 HD
HETATM    9  C3  UNL     1       2.800 -18.958  20.115  1.00  0.00     0.289 C 
HETATM   10  O1  UNL     1       3.367 -18.788  21.242  1.00  0.00    -0.264 OA
HETATM   11  C5  UNL     1       1.472 -15.770  18.920  1.00  0.00     0.305 A 
HETATM   12  O2  UNL     1       2.171 -15.512  17.918  1.00  0.00    -0.263 OA
HETATM   13  N8  UNL     1       0.494 -14.905  19.289  1.00  0.00    -0.152 N 
ATOM     14  H8  UNL     1       0.340 -14.056  18.744  1.00  0.00     0.188 HD
ENDROOT
BRANCH   9  15
HETATM   15  C4  UNL     1       2.398 -20.275  19.654  1.00  0.00     0.199 C 
HETATM   16  N5  UNL     1       2.402 -20.556  18.263  1.00  0.00    -0.075 NA
HETATM   17  N6  UNL     1       2.033 -21.219  20.445  1.00  0.00    -0.290 N 
ATOM     18  H6  UNL     1       1.772 -22.104  20.013  1.00  0.00     0.187 HD
BRANCH  17  19
HETATM   19  N7  UNL     1       1.959 -21.157  21.809  1.00  0.00    -0.344 N 
ATOM     20  H72 UNL     1       1.122 -20.710  22.184  1.00  0.00     0.176 HD
ATOM     21  H71 UNL     1       2.649 -21.508  22.473  1.00  0.00     0.176 HD
ENDBRANCH  17  19
ENDBRANCH   9  15
BRANCH   1  22
HETATM   22  N1  UNL     1      -1.203 -14.328  20.709  1.00  0.00    -0.233 N 
ATOM     23  H12 UNL     1      -2.148 -14.422  20.337  1.00  0.00     0.174 HD
ATOM     24  H11 UNL     1      -1.006 -13.570  21.363  1.00  0.00     0.174 HD
ENDBRANCH   1  22
TORSDOF 3
ENDMDL
MODEL 4
REMARK VINA RESULT: -5.977355008      1.625      5.592
REMARK  3 active torsions:
REMARK  status: ('A' for Active; 'I' for Inactive)
REMARK    1  A    between atoms: N1_1  and  C1_4 
REMARK       I    between atoms: N4_10  and  C3_12 
REMARK    2  A    between atoms: C3_12  and  C4_14 
REMARK    3  A    between atoms: N6_16  and  N7_18 
ROOT
HETATM    1  C1  UNL     1       3.208 -20.466  21.955  1.00  0.00     0.693 A 
HETATM    2  N2  UNL     1       2.768 -19.227  22.181  1.00  0.00    -0.131 N 
ATOM      3  H2  UNL     1       2.737 -18.882  23.140  1.00  0.00     0.205 HD
HETATM    4  N3  UNL     1       2.365 -18.420  21.187  1.00  0.00    -0.267 N 
ATOM      5  H3  UNL     1       2.036 -17.477  21.395  1.00  0.00     0.189 HD
HETATM    6  C2  UNL     1       2.398 -18.853  19.922  1.00  0.00     0.193 A 
HETATM    7  N4  UNL     1       2.003 -18.054  18.981  1.00  0.00    -0.301 N 
ATOM      8  H4  UNL     1       2.027 -18.381  18.014  1.00  0.00     0.171 HD
HETATM    9  C3  UNL     1       1.538 -16.738  19.250  1.00  0.00     0.289 C 
HETATM   10  O1  UNL     1       0.376 -16.665  19.766  1.00  0.00    -0.264 OA
HETATM   11  C5  UNL     1       2.846 -20.126  19.663  1.00  0.00     0.305 A 
HETATM   12  O2  UNL     1       2.894 -20.571  18.497  1.00  0.00    -0.263 OA
HETATM   13  N8  UNL     1       3.247 -20.914  20.693  1.00  0.00    -0.152 N 
ATOM     14  H8  UNL     1       3.582 -21.858  20.503  1.00  0.00     0.188 HD
ENDROOT
BRANCH   9  15
HETATM   15  C4  UNL     1       2.323 -15.550  18.965  1.00  0.00     0.199 C 
HETATM   16  N5  UNL     1       3.384 -15.629  18.025  1.00  0.00    -0.075 NA
HETATM   17  N6  UNL     1       2.110 -14.413  19.521  1.00  0.00    -0.290 N 
ATOM     18  H6  UNL     1       2.722 -13.646  19.245  1.00  0.00     0.187 HD
BRANCH  17  19
HETATM   19  N7  UNL     1       1.145 -14.125  20.446  1.00  0.00    -0.344 N 
ATOM     20  H72 UNL     1       0.206 -14.449  20.217  1.00  0.00     0.176 HD
ATOM     21  H71 UNL     1       1.275 -13.627  21.326  1.00  0.00     0.176 HD
ENDBRANCH  17  19
ENDBRANCH   9  15
BRANCH   1  22
HETATM   22  N1  UNL     1       3.589 -21.216  22.933  1.00  0.00    -0.233 N 
ATOM     23  H12 UNL     1       3.206 -22.155  23.048  1.00  0.00     0.174 HD
ATOM     24  H11 UNL     1       4.279 -20.883  23.606  1.00  0.00     0.174 HD
ENDBRANCH   1  22
TORSDOF 3
ENDMDL
MODEL 5
REMARK VINA RESULT: -5.972119834      2.560      3.346
REMARK  3 active torsions:
REMARK  status: ('A' for Active; 'I' for Inactive)
REMARK    1  A    between atoms: N1_1  and  C1_4 
REMARK       I    between atoms: N4_10  and  C3_12 
REMARK    2  A    between atoms: C3_12  and  C4_14 
REMARK    3  A    between atoms: N6_16  and  N7_18 
ROOT
HETATM    1  C1  UNL     1       0.984 -15.515  21.061  1.00  0.00     0.693 A 
HETATM    2  N2  UNL     1       0.749 -16.761  21.473  1.00  0.00    -0.131 N 
ATOM      3  H2  UNL     1       0.178 -16.906  22.305  1.00  0.00     0.205 HD
HETATM    4  N3  UNL     1       1.240 -17.832  20.829  1.00  0.00    -0.267 N 
ATOM      5  H3  UNL     1       1.039 -18.771  21.172  1.00  0.00     0.189 HD
HETATM    6  C2  UNL     1       1.992 -17.665  19.737  1.00  0.00     0.193 A 
HETATM    7  N4  UNL     1       2.454 -18.715  19.133  1.00  0.00    -0.301 N 
ATOM      8  H4  UNL     1       3.028 -18.592  18.298  1.00  0.00     0.171 HD
HETATM    9  C3  UNL     1       2.188 -20.032  19.596  1.00  0.00     0.289 C 
HETATM   10  O1  UNL     1       2.824 -20.383  20.641  1.00  0.00    -0.264 OA
HETATM   11  C5  UNL     1       2.250 -16.391  19.291  1.00  0.00     0.305 A 
HETATM   12  O2  UNL     1       2.947 -16.188  18.274  1.00  0.00    -0.263 OA
HETATM   13  N8  UNL     1       1.736 -15.332  19.966  1.00  0.00    -0.152 N 
ATOM     14  H8  UNL     1       1.924 -14.385  19.637  1.00  0.00     0.188 HD
ENDROOT
BRANCH   9  15
HETATM   15  C4  UNL     1       1.255 -20.927  18.934  1.00  0.00     0.199 C 
HETATM   16  N5  UNL     1       1.059 -20.813  17.533  1.00  0.00    -0.075 NA
HETATM   17  N6  UNL     1       0.586 -21.832  19.552  1.00  0.00    -0.290 N 
ATOM     18  H6  UNL     1      -0.040 -22.405  18.987  1.00  0.00     0.187 HD
BRANCH  17  19
HETATM   19  N7  UNL     1       0.627 -22.105  20.890  1.00  0.00    -0.344 N 
ATOM     20  H72 UNL     1      -0.248 -22.427  21.301  1.00  0.00     0.176 HD
ATOM     21  H71 UNL     1       1.437 -22.019  21.504  1.00  0.00     0.176 HD
ENDBRANCH  17  19
ENDBRANCH   9  15
BRANCH   1  22
HETATM   22  N1  UNL     1       0.497 -14.507  21.702  1.00  0.00    -0.233 N 
ATOM     23  H12 UNL     1      -0.220 -14.641  22.416  1.00  0.00     0.174 HD
ATOM     24  H11 UNL     1       0.823 -13.560  21.506  1.00  0.00     0.174 HD
ENDBRANCH   1  22
TORSDOF 3
ENDMDL
