MODEL 1
REMARK VINA RESULT: -6.381486096      0.000      0.000
REMARK  3 active torsions:
REMARK  status: ('A' for Active; 'I' for Inactive)
REMARK    1  A    between atoms: N1_1  and  N2_4 
REMARK    2  A    between atoms: N2_4  and  N3_5 
REMARK    3  A    between atoms: N3_5  and  N4_6 
REMARK       I    between atoms: N4_6  and  C1_8 
REMARK       I    between atoms: C1_8  and  N5_10 
ROOT
HETATM    1  N4  UNL     1       1.995 -20.720  21.032  1.00  0.00    -0.237 N 
ATOM      2  H4  UNL     1       0.984 -20.759  20.908  1.00  0.00     0.188 HD
HETATM    3  C1  UNL     1       2.705 -19.610  20.498  1.00  0.00     0.338 C 
HETATM    4  O1  UNL     1       3.968 -19.618  20.682  1.00  0.00    -0.245 OA
HETATM    5  N5  UNL     1       2.109 -18.540  19.802  1.00  0.00    -0.289 N 
ATOM      6  H5  UNL     1       2.012 -18.663  18.794  1.00  0.00     0.172 HD
HETATM    7  C2  UNL     1       1.678 -17.449  20.270  1.00  0.00     0.184 A 
HETATM    8  N6  UNL     1       1.126 -16.522  19.427  1.00  0.00    -0.289 N 
ATOM      9  H6  UNL     1       1.059 -16.704  18.426  1.00  0.00     0.172 HD
HETATM   10  C3  UNL     1       0.673 -15.369  19.945  1.00  0.00     0.340 A 
HETATM   11  O2  UNL     1       0.157 -14.490  19.194  1.00  0.00    -0.245 OA
HETATM   12  N7  UNL     1       0.759 -15.124  21.273  1.00  0.00    -0.248 N 
ATOM     13  H7  UNL     1       0.408 -14.242  21.646  1.00  0.00     0.192 HD
HETATM   14  N8  UNL     1       1.289 -16.010  22.087  1.00  0.00    -0.259 N 
ATOM     15  H8  UNL     1       1.345 -15.805  23.085  1.00  0.00     0.190 HD
HETATM   16  C4  UNL     1       1.764 -17.197  21.620  1.00  0.00     0.304 A 
HETATM   17  O3  UNL     1       2.273 -18.053  22.386  1.00  0.00    -0.263 OA
ENDROOT
BRANCH   1  18
HETATM   18  N3  UNL     1       2.625 -21.758  21.718  1.00  0.00    -0.005 NA
BRANCH  18  19
HETATM   19  N2  UNL     1       1.981 -22.032  22.905  1.00  0.00    -0.016 NA
BRANCH  19  20
HETATM   20  N1  UNL     1       1.617 -20.863  23.569  1.00  0.00    -0.330 N 
ATOM     21  H12 UNL     1       1.908 -19.932  23.270  1.00  0.00     0.173 HD
ATOM     22  H11 UNL     1       1.032 -21.061  24.381  1.00  0.00     0.173 HD
ENDBRANCH  19  20
ENDBRANCH  18  19
ENDBRANCH   1  18
TORSDOF 3
ENDMDL
MODEL 2
REMARK VINA RESULT: -5.910942860      1.797      1.998
REMARK  3 active torsions:
REMARK  status: ('A' for Active; 'I' for Inactive)
REMARK    1  A    between atoms: N1_1  and  N2_4 
REMARK    2  A    between atoms: N2_4  and  N3_5 
REMARK    3  A    between atoms: N3_5  and  N4_6 
REMARK       I    between atoms: N4_6  and  C1_8 
REMARK       I    between atoms: C1_8  and  N5_10 
ROOT
HETATM    1  N4  UNL     1       3.375 -19.405  21.282  1.00  0.00    -0.237 N 
ATOM      2  H4  UNL     1       3.154 -19.091  22.227  1.00  0.00     0.188 HD
HETATM    3  C1  UNL     1       2.496 -19.049  20.222  1.00  0.00     0.338 C 
HETATM    4  O1  UNL     1       2.823 -19.474  19.064  1.00  0.00    -0.245 OA
HETATM    5  N5  UNL     1       1.327 -18.280  20.379  1.00  0.00    -0.289 N 
ATOM      6  H5  UNL     1       0.477 -18.799  20.595  1.00  0.00     0.172 HD
HETATM    7  C2  UNL     1       1.200 -17.026  20.286  1.00  0.00     0.184 A 
HETATM    8  N6  UNL     1      -0.030 -16.456  20.473  1.00  0.00    -0.289 N 
ATOM      9  H6  UNL     1      -0.844 -17.031  20.685  1.00  0.00     0.172 HD
HETATM   10  C3  UNL     1      -0.143 -15.122  20.371  1.00  0.00     0.340 A 
HETATM   11  O2  UNL     1      -1.267 -14.561  20.538  1.00  0.00    -0.245 OA
HETATM   12  N7  UNL     1       0.935 -14.353  20.091  1.00  0.00    -0.248 N 
ATOM     13  H7  UNL     1       0.827 -13.341  20.020  1.00  0.00     0.192 HD
HETATM   14  N8  UNL     1       2.119 -14.896  19.911  1.00  0.00    -0.259 N 
ATOM     15  H8  UNL     1       2.918 -14.299  19.700  1.00  0.00     0.190 HD
HETATM   16  C4  UNL     1       2.294 -16.243  20.002  1.00  0.00     0.304 A 
HETATM   17  O3  UNL     1       3.420 -16.775  19.832  1.00  0.00    -0.263 OA
ENDROOT
BRANCH   1  18
HETATM   18  N3  UNL     1       4.526 -20.167  21.083  1.00  0.00    -0.005 NA
BRANCH  18  19
HETATM   19  N2  UNL     1       4.824 -20.919  22.200  1.00  0.00    -0.016 NA
BRANCH  19  20
HETATM   20  N1  UNL     1       3.670 -21.303  22.879  1.00  0.00    -0.330 N 
ATOM     21  H12 UNL     1       2.728 -21.080  22.558  1.00  0.00     0.173 HD
ATOM     22  H11 UNL     1       3.892 -21.827  23.725  1.00  0.00     0.173 HD
ENDBRANCH  19  20
ENDBRANCH  18  19
ENDBRANCH   1  18
TORSDOF 3
ENDMDL
MODEL 3
REMARK VINA RESULT: -5.896182356      2.102      5.500
REMARK  3 active torsions:
REMARK  status: ('A' for Active; 'I' for Inactive)
REMARK    1  A    between atoms: N1_1  and  N2_4 
REMARK    2  A    between atoms: N2_4  and  N3_5 
REMARK    3  A    between atoms: N3_5  and  N4_6 
REMARK       I    between atoms: N4_6  and  C1_8 
REMARK       I    between atoms: C1_8  and  N5_10 
ROOT
HETATM    1  N4  UNL     1      -0.058 -15.967  20.785  1.00  0.00    -0.237 N 
ATOM      2  H4  UNL     1      -0.500 -16.626  21.424  1.00  0.00     0.188 HD
HETATM    3  C1  UNL     1       1.358 -15.989  20.656  1.00  0.00     0.338 C 
HETATM    4  O1  UNL     1       1.854 -15.139  19.843  1.00  0.00    -0.245 OA
HETATM    5  N5  UNL     1       2.210 -16.868  21.353  1.00  0.00    -0.289 N 
ATOM      6  H5  UNL     1       2.534 -16.545  22.265  1.00  0.00     0.172 HD
HETATM    7  C2  UNL     1       2.623 -18.005  20.990  1.00  0.00     0.184 A 
HETATM    8  N6  UNL     1       3.454 -18.717  21.813  1.00  0.00    -0.289 N 
ATOM      9  H6  UNL     1       3.743 -18.338  22.714  1.00  0.00     0.172 HD
HETATM   10  C3  UNL     1       3.880 -19.924  21.408  1.00  0.00     0.340 A 
HETATM   11  O2  UNL     1       4.650 -20.609  22.145  1.00  0.00    -0.245 OA
HETATM   12  N7  UNL     1       3.498 -20.431  20.214  1.00  0.00    -0.248 N 
ATOM     13  H7  UNL     1       3.833 -21.351  19.927  1.00  0.00     0.192 HD
HETATM   14  N8  UNL     1       2.700 -19.752  19.420  1.00  0.00    -0.259 N 
ATOM     15  H8  UNL     1       2.425 -20.152  18.523  1.00  0.00     0.190 HD
HETATM   16  C4  UNL     1       2.236 -18.523  19.776  1.00  0.00     0.304 A 
HETATM   17  O3  UNL     1       1.472 -17.862  19.027  1.00  0.00    -0.263 OA
ENDROOT
BRANCH   1  18
HETATM   18  N3  UNL     1      -0.866 -15.081  20.073  1.00  0.00    -0.005 NA
BRANCH  18  19
HETATM   19  N2  UNL     1      -1.889 -14.599  20.860  1.00  0.00    -0.016 NA
BRANCH  19  20
HETATM   20  N1  UNL     1      -2.815 -15.596  21.158  1.00  0.00    -0.330 N 
ATOM     21  H12 UNL     1      -2.654 -16.586  20.976  1.00  0.00     0.173 HD
ATOM     22  H11 UNL     1      -3.661 -15.207  21.576  1.00  0.00     0.173 HD
ENDBRANCH  19  20
ENDBRANCH  18  19
ENDBRANCH   1  18
TORSDOF 3
ENDMDL
MODEL 4
REMARK VINA RESULT: -5.798366980      2.087      5.566
REMARK  3 active torsions:
REMARK  status: ('A' for Active; 'I' for Inactive)
REMARK    1  A    between atoms: N1_1  and  N2_4 
REMARK    2  A    between atoms: N2_4  and  N3_5 
REMARK    3  A    between atoms: N3_5  and  N4_6 
REMARK       I    between atoms: N4_6  and  C1_8 
REMARK       I    between atoms: C1_8  and  N5_10 
ROOT
HETATM    1  N4  UNL     1       1.434 -15.512  20.819  1.00  0.00    -0.237 N 
ATOM      2  H4  UNL     1       0.885 -15.784  21.634  1.00  0.00     0.188 HD
HETATM    3  C1  UNL     1       2.591 -16.272  20.491  1.00  0.00     0.338 C 
HETATM    4  O1  UNL     1       3.237 -15.882  19.462  1.00  0.00    -0.245 OA
HETATM    5  N5  UNL     1       3.043 -17.391  21.217  1.00  0.00    -0.289 N 
ATOM      6  H5  UNL     1       3.679 -17.194  21.989  1.00  0.00     0.172 HD
HETATM    7  C2  UNL     1       2.759 -18.608  21.031  1.00  0.00     0.184 A 
HETATM    8  N6  UNL     1       3.304 -19.561  21.848  1.00  0.00    -0.289 N 
ATOM      9  H6  UNL     1       3.936 -19.300  22.604  1.00  0.00     0.172 HD
HETATM   10  C3  UNL     1       2.988 -20.848  21.634  1.00  0.00     0.340 A 
HETATM   11  O2  UNL     1       3.474 -21.757  22.371  1.00  0.00    -0.245 OA
HETATM   12  N7  UNL     1       2.149 -21.200  20.633  1.00  0.00    -0.248 N 
ATOM     13  H7  UNL     1       1.921 -22.184  20.489  1.00  0.00     0.192 HD
HETATM   14  N8  UNL     1       1.623 -20.288  19.845  1.00  0.00    -0.259 N 
ATOM     15  H8  UNL     1       0.993 -20.575  19.096  1.00  0.00     0.190 HD
HETATM   16  C4  UNL     1       1.906 -18.968  20.014  1.00  0.00     0.304 A 
HETATM   17  O3  UNL     1       1.410 -18.085  19.269  1.00  0.00    -0.263 OA
ENDROOT
BRANCH   1  18
HETATM   18  N3  UNL     1       1.018 -14.411  20.071  1.00  0.00    -0.005 NA
BRANCH  18  19
HETATM   19  N2  UNL     1      -0.021 -14.746  19.229  1.00  0.00    -0.016 NA
BRANCH  19  20
HETATM   20  N1  UNL     1       0.442 -15.350  18.063  1.00  0.00    -0.330 N 
ATOM     21  H12 UNL     1       1.325 -15.857  18.005  1.00  0.00     0.173 HD
ATOM     22  H11 UNL     1      -0.210 -15.218  17.290  1.00  0.00     0.173 HD
ENDBRANCH  19  20
ENDBRANCH  18  19
ENDBRANCH   1  18
TORSDOF 3
ENDMDL
MODEL 5
REMARK VINA RESULT: -5.790092848      1.747      2.091
REMARK  3 active torsions:
REMARK  status: ('A' for Active; 'I' for Inactive)
REMARK    1  A    between atoms: N1_1  and  N2_4 
REMARK    2  A    between atoms: N2_4  and  N3_5 
REMARK    3  A    between atoms: N3_5  and  N4_6 
REMARK       I    between atoms: N4_6  and  C1_8 
REMARK       I    between atoms: C1_8  and  N5_10 
ROOT
HETATM    1  N4  UNL     1       1.515 -21.653  22.353  1.00  0.00    -0.237 N 
ATOM      2  H4  UNL     1       0.586 -21.360  22.052  1.00  0.00     0.188 HD
HETATM    3  C1  UNL     1       2.647 -21.157  21.650  1.00  0.00     0.338 C 
HETATM    4  O1  UNL     1       3.782 -21.561  22.072  1.00  0.00    -0.245 OA
HETATM    5  N5  UNL     1       2.583 -20.276  20.554  1.00  0.00    -0.289 N 
ATOM      6  H5  UNL     1       2.499 -20.711  19.636  1.00  0.00     0.172 HD
HETATM    7  C2  UNL     1       2.617 -19.013  20.566  1.00  0.00     0.184 A 
HETATM    8  N6  UNL     1       2.542 -18.324  19.385  1.00  0.00    -0.289 N 
ATOM      9  H6  UNL     1       2.460 -18.818  18.498  1.00  0.00     0.172 HD
HETATM   10  C3  UNL     1       2.578 -16.982  19.420  1.00  0.00     0.340 A 
HETATM   11  O2  UNL     1       2.512 -16.313  18.347  1.00  0.00    -0.245 OA
HETATM   12  N7  UNL     1       2.686 -16.321  20.595  1.00  0.00    -0.248 N 
ATOM     13  H7  UNL     1       2.711 -15.301  20.600  1.00  0.00     0.192 HD
HETATM   14  N8  UNL     1       2.759 -16.978  21.732  1.00  0.00    -0.259 N 
ATOM     15  H8  UNL     1       2.840 -16.460  22.607  1.00  0.00     0.190 HD
HETATM   16  C4  UNL     1       2.726 -18.338  21.759  1.00  0.00     0.304 A 
HETATM   17  O3  UNL     1       2.794 -18.980  22.838  1.00  0.00    -0.263 OA
ENDROOT
BRANCH   1  18
HETATM   18  N3  UNL     1       1.622 -22.524  23.437  1.00  0.00    -0.005 NA
BRANCH  18  19
HETATM   19  N2  UNL     1       0.470 -22.521  24.193  1.00  0.00    -0.016 NA
BRANCH  19  20
HETATM   20  N1  UNL     1       0.268 -21.290  24.812  1.00  0.00    -0.330 N 
ATOM     21  H12 UNL     1       0.979 -20.560  24.854  1.00  0.00     0.173 HD
ATOM     22  H11 UNL     1      -0.668 -21.221  25.210  1.00  0.00     0.173 HD
ENDBRANCH  19  20
ENDBRANCH  18  19
ENDBRANCH   1  18
TORSDOF 3
ENDMDL
