MODEL 1
REMARK VINA RESULT: -6.649724987      0.000      0.000
REMARK  2 active torsions:
REMARK  status: ('A' for Active; 'I' for Inactive)
REMARK    1  A    between atoms: N1_1  and  N2_4 
REMARK       I    between atoms: N2_4  and  C1_6 
REMARK    2  A    between atoms: N4_8  and  N5_10 
ROOT
HETATM    1  N5  UNL     1       1.790 -18.482  19.279  1.00  0.00    -0.280 N 
ATOM      2  H5  UNL     1       2.084 -18.426  18.303  1.00  0.00     0.189 HD
HETATM    3  C2  UNL     1       1.513 -17.407  19.960  1.00  0.00     0.181 A 
HETATM    4  N6  UNL     1       1.101 -17.447  21.320  1.00  0.00    -0.290 N 
ATOM      5  H6  UNL     1       1.019 -18.351  21.783  1.00  0.00     0.172 HD
HETATM    6  C3  UNL     1       0.801 -16.273  22.053  1.00  0.00     0.328 A 
HETATM    7  O1  UNL     1       0.441 -16.347  23.252  1.00  0.00    -0.247 OA
HETATM    8  N7  UNL     1       0.905 -14.993  21.434  1.00  0.00    -0.272 N 
ATOM      9  H7  UNL     1       0.686 -14.152  21.967  1.00  0.00     0.174 HD
HETATM   10  C4  UNL     1       1.306 -14.885  20.093  1.00  0.00     0.303 A 
HETATM   11  O2  UNL     1       1.410 -13.787  19.514  1.00  0.00    -0.263 OA
HETATM   12  C5  UNL     1       1.623 -16.102  19.318  1.00  0.00     0.284 A 
HETATM   13  O3  UNL     1       1.978 -15.978  18.125  1.00  0.00    -0.278 OA
ENDROOT
BRANCH   1  14
HETATM   14  N4  UNL     1       1.676 -19.691  19.915  1.00  0.00    -0.271 N 
HETATM   15  C1  UNL     1       1.378 -20.813  19.362  1.00  0.00     0.221 C 
HETATM   16  N2  UNL     1       1.310 -21.949  20.194  1.00  0.00    -0.279 N 
HETATM   17  N3  UNL     1       1.135 -20.866  17.976  1.00  0.00    -0.061 NA
ATOM     18  H2  UNL     1       2.164 -22.453  20.434  1.00  0.00     0.189 HD
ATOM     19  H4  UNL     1       1.844 -19.702  20.921  1.00  0.00     0.189 HD
BRANCH  16  20
HETATM   20  N1  UNL     1       0.089 -22.390  20.691  1.00  0.00    -0.343 N 
ATOM     21  H12 UNL     1      -0.768 -21.969  20.330  1.00  0.00     0.176 HD
ATOM     22  H11 UNL     1       0.050 -23.119  21.402  1.00  0.00     0.176 HD
ENDBRANCH  16  20
ENDBRANCH   1  14
TORSDOF 2
ENDMDL
MODEL 2
REMARK VINA RESULT: -6.536189458      2.050      2.348
REMARK  2 active torsions:
REMARK  status: ('A' for Active; 'I' for Inactive)
REMARK    1  A    between atoms: N1_1  and  N2_4 
REMARK       I    between atoms: N2_4  and  C1_6 
REMARK    2  A    between atoms: N4_8  and  N5_10 
ROOT
HETATM    1  N5  UNL     1       2.808 -18.991  20.429  1.00  0.00    -0.280 N 
ATOM      2  H5  UNL     1       3.295 -19.160  19.548  1.00  0.00     0.189 HD
HETATM    3  C2  UNL     1       2.238 -17.845  20.674  1.00  0.00     0.181 A 
HETATM    4  N6  UNL     1       1.551 -17.576  21.888  1.00  0.00    -0.290 N 
ATOM      5  H6  UNL     1       1.501 -18.306  22.598  1.00  0.00     0.172 HD
HETATM    6  C3  UNL     1       0.935 -16.328  22.146  1.00  0.00     0.328 A 
HETATM    7  O1  UNL     1       0.337 -16.125  23.231  1.00  0.00    -0.247 OA
HETATM    8  N7  UNL     1       0.986 -15.287  21.174  1.00  0.00    -0.272 N 
ATOM      9  H7  UNL     1       0.538 -14.391  21.365  1.00  0.00     0.174 HD
HETATM   10  C4  UNL     1       1.649 -15.489  19.953  1.00  0.00     0.303 A 
HETATM   11  O2  UNL     1       1.717 -14.607  19.077  1.00  0.00    -0.263 OA
HETATM   12  C5  UNL     1       2.297 -16.786  19.673  1.00  0.00     0.284 A 
HETATM   13  O3  UNL     1       2.881 -16.942  18.577  1.00  0.00    -0.278 OA
ENDROOT
BRANCH   1  14
HETATM   14  N4  UNL     1       2.733 -19.963  21.393  1.00  0.00    -0.271 N 
HETATM   15  C1  UNL     1       3.728 -20.505  22.001  1.00  0.00     0.221 C 
HETATM   16  N2  UNL     1       3.439 -21.493  22.966  1.00  0.00    -0.279 N 
HETATM   17  N3  UNL     1       5.040 -20.102  21.690  1.00  0.00    -0.061 NA
ATOM     18  H2  UNL     1       3.188 -21.215  23.915  1.00  0.00     0.189 HD
ATOM     19  H4  UNL     1       1.801 -20.287  21.652  1.00  0.00     0.189 HD
BRANCH  16  20
HETATM   20  N1  UNL     1       3.494 -22.841  22.635  1.00  0.00    -0.343 N 
ATOM     21  H12 UNL     1       4.333 -23.370  22.870  1.00  0.00     0.176 HD
ATOM     22  H11 UNL     1       2.709 -23.293  22.165  1.00  0.00     0.176 HD
ENDBRANCH  16  20
ENDBRANCH   1  14
TORSDOF 2
ENDMDL
MODEL 3
REMARK VINA RESULT: -6.405063683      2.468      3.265
REMARK  2 active torsions:
REMARK  status: ('A' for Active; 'I' for Inactive)
REMARK    1  A    between atoms: N1_1  and  N2_4 
REMARK       I    between atoms: N2_4  and  C1_6 
REMARK    2  A    between atoms: N4_8  and  N5_10 
ROOT
HETATM    1  N5  UNL     1       1.929 -17.828  21.356  1.00  0.00    -0.280 N 
ATOM      2  H5  UNL     1       1.016 -18.165  21.663  1.00  0.00     0.189 HD
HETATM    3  C2  UNL     1       2.037 -16.762  20.614  1.00  0.00     0.181 A 
HETATM    4  N6  UNL     1       3.291 -16.264  20.168  1.00  0.00    -0.290 N 
ATOM      5  H6  UNL     1       4.141 -16.757  20.438  1.00  0.00     0.172 HD
HETATM    6  C3  UNL     1       3.400 -15.105  19.362  1.00  0.00     0.328 A 
HETATM    7  O1  UNL     1       4.524 -14.694  18.986  1.00  0.00    -0.247 OA
HETATM    8  N7  UNL     1       2.230 -14.392  18.968  1.00  0.00    -0.272 N 
ATOM      9  H7  UNL     1       2.315 -13.557  18.388  1.00  0.00     0.174 HD
HETATM   10  C4  UNL     1       0.960 -14.832  19.375  1.00  0.00     0.303 A 
HETATM   11  O2  UNL     1      -0.086 -14.239  19.053  1.00  0.00    -0.263 OA
HETATM   12  C5  UNL     1       0.834 -16.040  20.215  1.00  0.00     0.284 A 
HETATM   13  O3  UNL     1      -0.308 -16.412  20.565  1.00  0.00    -0.278 OA
ENDROOT
BRANCH   1  14
HETATM   14  N4  UNL     1       3.081 -18.481  21.710  1.00  0.00    -0.271 N 
HETATM   15  C1  UNL     1       3.463 -19.630  21.278  1.00  0.00     0.221 C 
HETATM   16  N2  UNL     1       4.686 -20.133  21.768  1.00  0.00    -0.279 N 
HETATM   17  N3  UNL     1       2.666 -20.329  20.352  1.00  0.00    -0.061 NA
ATOM     18  H2  UNL     1       5.564 -19.835  21.341  1.00  0.00     0.189 HD
ATOM     19  H4  UNL     1       3.692 -18.013  22.380  1.00  0.00     0.189 HD
BRANCH  16  20
HETATM   20  N1  UNL     1       4.708 -21.033  22.827  1.00  0.00    -0.343 N 
ATOM     21  H12 UNL     1       4.078 -21.835  22.801  1.00  0.00     0.176 HD
ATOM     22  H11 UNL     1       5.341 -20.893  23.614  1.00  0.00     0.176 HD
ENDBRANCH  16  20
ENDBRANCH   1  14
TORSDOF 2
ENDMDL
MODEL 4
REMARK VINA RESULT: -6.264580238      1.845      2.008
REMARK  2 active torsions:
REMARK  status: ('A' for Active; 'I' for Inactive)
REMARK    1  A    between atoms: N1_1  and  N2_4 
REMARK       I    between atoms: N2_4  and  C1_6 
REMARK    2  A    between atoms: N4_8  and  N5_10 
ROOT
HETATM    1  N5  UNL     1       2.831 -18.063  20.088  1.00  0.00    -0.280 N 
ATOM      2  H5  UNL     1       3.095 -18.077  19.103  1.00  0.00     0.189 HD
HETATM    3  C2  UNL     1       1.907 -17.255  20.525  1.00  0.00     0.181 A 
HETATM    4  N6  UNL     1       1.513 -17.210  21.890  1.00  0.00    -0.290 N 
ATOM      5  H6  UNL     1       1.969 -17.833  22.556  1.00  0.00     0.172 HD
HETATM    6  C3  UNL     1       0.508 -16.329  22.357  1.00  0.00     0.328 A 
HETATM    7  O1  UNL     1       0.186 -16.316  23.570  1.00  0.00    -0.247 OA
HETATM    8  N7  UNL     1      -0.151 -15.446  21.452  1.00  0.00    -0.272 N 
ATOM      9  H7  UNL     1      -0.875 -14.815  21.795  1.00  0.00     0.174 HD
HETATM   10  C4  UNL     1       0.192 -15.442  20.090  1.00  0.00     0.303 A 
HETATM   11  O2  UNL     1      -0.358 -14.687  19.266  1.00  0.00    -0.263 OA
HETATM   12  C5  UNL     1       1.239 -16.355  19.591  1.00  0.00     0.284 A 
HETATM   13  O3  UNL     1       1.526 -16.333  18.374  1.00  0.00    -0.278 OA
ENDROOT
BRANCH   1  14
HETATM   14  N4  UNL     1       3.437 -18.895  20.995  1.00  0.00    -0.271 N 
HETATM   15  C1  UNL     1       3.579 -20.167  20.878  1.00  0.00     0.221 C 
HETATM   16  N2  UNL     1       4.234 -20.845  21.927  1.00  0.00    -0.279 N 
HETATM   17  N3  UNL     1       3.088 -20.823  19.733  1.00  0.00    -0.061 NA
ATOM     18  H2  UNL     1       5.254 -20.872  21.952  1.00  0.00     0.189 HD
ATOM     19  H4  UNL     1       3.809 -18.463  21.841  1.00  0.00     0.189 HD
BRANCH  16  20
HETATM   20  N1  UNL     1       3.503 -21.478  22.925  1.00  0.00    -0.343 N 
ATOM     21  H12 UNL     1       3.043 -20.905  23.633  1.00  0.00     0.176 HD
ATOM     22  H11 UNL     1       3.429 -22.495  22.949  1.00  0.00     0.176 HD
ENDBRANCH  16  20
ENDBRANCH   1  14
TORSDOF 2
ENDMDL
MODEL 5
REMARK VINA RESULT: -5.845279123      2.052      3.329
REMARK  2 active torsions:
REMARK  status: ('A' for Active; 'I' for Inactive)
REMARK    1  A    between atoms: N1_1  and  N2_4 
REMARK       I    between atoms: N2_4  and  C1_6 
REMARK    2  A    between atoms: N4_8  and  N5_10 
ROOT
HETATM    1  N5  UNL     1       2.444 -18.564  21.532  1.00  0.00    -0.280 N 
ATOM      2  H5  UNL     1       2.072 -18.790  22.455  1.00  0.00     0.189 HD
HETATM    3  C2  UNL     1       2.157 -17.433  20.951  1.00  0.00     0.181 A 
HETATM    4  N6  UNL     1       2.657 -17.084  19.667  1.00  0.00    -0.290 N 
ATOM      5  H6  UNL     1       3.265 -17.742  19.180  1.00  0.00     0.172 HD
HETATM    6  C3  UNL     1       2.341 -15.854  19.042  1.00  0.00     0.328 A 
HETATM    7  O1  UNL     1       2.801 -15.580  17.907  1.00  0.00    -0.247 OA
HETATM    8  N7  UNL     1       1.495 -14.912  19.698  1.00  0.00    -0.272 N 
ATOM      9  H7  UNL     1       1.273 -14.027  19.243  1.00  0.00     0.174 HD
HETATM   10  C4  UNL     1       0.968 -15.196  20.968  1.00  0.00     0.303 A 
HETATM   11  O2  UNL     1       0.226 -14.401  21.575  1.00  0.00    -0.263 OA
HETATM   12  C5  UNL     1       1.290 -16.476  21.630  1.00  0.00     0.284 A 
HETATM   13  O3  UNL     1       0.809 -16.706  22.761  1.00  0.00    -0.278 OA
ENDROOT
BRANCH   1  14
HETATM   14  N4  UNL     1       3.261 -19.439  20.864  1.00  0.00    -0.271 N 
HETATM   15  C1  UNL     1       3.350 -20.704  21.076  1.00  0.00     0.221 C 
HETATM   16  N2  UNL     1       4.255 -21.433  20.278  1.00  0.00    -0.279 N 
HETATM   17  N3  UNL     1       2.558 -21.302  22.075  1.00  0.00    -0.061 NA
ATOM     18  H2  UNL     1       3.971 -21.749  19.350  1.00  0.00     0.189 HD
ATOM     19  H4  UNL     1       3.854 -19.051  20.130  1.00  0.00     0.189 HD
BRANCH  16  20
HETATM   20  N1  UNL     1       5.531 -21.727  20.745  1.00  0.00    -0.343 N 
ATOM     21  H12 UNL     1       6.231 -20.986  20.755  1.00  0.00     0.176 HD
ATOM     22  H11 UNL     1       5.761 -22.666  21.071  1.00  0.00     0.176 HD
ENDBRANCH  16  20
ENDBRANCH   1  14
TORSDOF 2
ENDMDL
