MODEL 1
REMARK VINA RESULT: -6.018986246      0.000      0.000
REMARK  2 active torsions:
REMARK  status: ('A' for Active; 'I' for Inactive)
REMARK    1  A    between atoms: N1_1  and  C1_4 
REMARK    2  A    between atoms: N4_12  and  N5_14 
ROOT
HETATM    1  C1  UNL     1       1.838 -15.469  19.709  1.00  0.00     0.682 C 
HETATM    2  N2  UNL     1       1.349 -15.513  20.962  1.00  0.00    -0.141 N 
ATOM      3  H2  UNL     1       1.008 -14.623  21.326  1.00  0.00     0.189 HD
HETATM    4  C2  UNL     1       1.241 -16.569  21.817  1.00  0.00     0.340 C 
HETATM    5  O1  UNL     1       0.576 -16.359  22.874  1.00  0.00    -0.246 OA
HETATM    6  N3  UNL     1       1.737 -17.808  21.711  1.00  0.00    -0.288 N 
ATOM      7  H3  UNL     1       1.790 -18.361  22.566  1.00  0.00     0.172 HD
HETATM    8  C3  UNL     1       2.174 -18.392  20.576  1.00  0.00     0.194 C 
HETATM    9  N4  UNL     1       2.554 -19.617  20.712  1.00  0.00    -0.279 N 
ATOM     10  H4  UNL     1       2.892 -20.104  19.882  1.00  0.00     0.189 HD
HETATM   11  C5  UNL     1       2.257 -17.837  19.316  1.00  0.00     0.305 C 
HETATM   12  O2  UNL     1       2.506 -18.644  18.381  1.00  0.00    -0.263 OA
HETATM   13  N8  UNL     1       2.108 -16.538  18.938  1.00  0.00    -0.153 N 
ATOM     14  H8  UNL     1       2.215 -16.351  17.941  1.00  0.00     0.187 HD
ENDROOT
BRANCH   9  15
HETATM   15  N5  UNL     1       2.534 -20.312  21.897  1.00  0.00    -0.274 N 
HETATM   16  C4  UNL     1       2.443 -21.603  21.979  1.00  0.00     0.215 C 
HETATM   17  N6  UNL     1       2.355 -22.413  20.792  1.00  0.00    -0.065 NA
HETATM   18  N7  UNL     1       2.429 -22.237  23.236  1.00  0.00    -0.065 NA
ATOM     19  H5  UNL     1       2.596 -19.780  22.766  1.00  0.00     0.189 HD
ENDBRANCH   9  15
BRANCH   1  20
HETATM   20  N1  UNL     1       2.076 -14.293  19.188  1.00  0.00    -0.234 N 
ATOM     21  H12 UNL     1       1.692 -14.117  18.260  1.00  0.00     0.174 HD
ATOM     22  H11 UNL     1       2.625 -13.631  19.736  1.00  0.00     0.174 HD
ENDBRANCH   1  20
TORSDOF 2
ENDMDL
MODEL 2
REMARK VINA RESULT: -5.706544184      2.199      3.268
REMARK  2 active torsions:
REMARK  status: ('A' for Active; 'I' for Inactive)
REMARK    1  A    between atoms: N1_1  and  C1_4 
REMARK    2  A    between atoms: N4_12  and  N5_14 
ROOT
HETATM    1  C1  UNL     1       1.318 -15.412  21.063  1.00  0.00     0.682 C 
HETATM    2  N2  UNL     1       1.697 -15.210  19.789  1.00  0.00    -0.141 N 
ATOM      3  H2  UNL     1       1.523 -14.271  19.428  1.00  0.00     0.189 HD
HETATM    4  C2  UNL     1       2.279 -16.071  18.907  1.00  0.00     0.340 C 
HETATM    5  O1  UNL     1       2.692 -15.559  17.824  1.00  0.00    -0.246 OA
HETATM    6  N3  UNL     1       2.483 -17.390  19.010  1.00  0.00    -0.288 N 
ATOM      7  H3  UNL     1       2.673 -17.899  18.146  1.00  0.00     0.172 HD
HETATM    8  C3  UNL     1       2.460 -18.108  20.152  1.00  0.00     0.194 C 
HETATM    9  N4  UNL     1       2.745 -19.358  20.008  1.00  0.00    -0.279 N 
ATOM     10  H4  UNL     1       2.742 -19.945  20.843  1.00  0.00     0.189 HD
HETATM   11  C5  UNL     1       2.174 -17.665  21.426  1.00  0.00     0.305 C 
HETATM   12  O2  UNL     1       2.415 -18.481  22.354  1.00  0.00    -0.263 OA
HETATM   13  N8  UNL     1       1.666 -16.467  21.824  1.00  0.00    -0.153 N 
ATOM     14  H8  UNL     1       1.530 -16.354  22.828  1.00  0.00     0.187 HD
ENDROOT
BRANCH   9  15
HETATM   15  N5  UNL     1       3.051 -19.955  18.808  1.00  0.00    -0.274 N 
HETATM   16  C4  UNL     1       2.332 -20.880  18.255  1.00  0.00     0.215 C 
HETATM   17  N6  UNL     1       1.126 -21.353  18.885  1.00  0.00    -0.065 NA
HETATM   18  N7  UNL     1       2.718 -21.440  17.022  1.00  0.00    -0.065 NA
ATOM     19  H5  UNL     1       3.896 -19.650  18.323  1.00  0.00     0.189 HD
ENDBRANCH   9  15
BRANCH   1  20
HETATM   20  N1  UNL     1       0.546 -14.514  21.621  1.00  0.00    -0.234 N 
ATOM     21  H12 UNL     1       0.728 -14.297  22.601  1.00  0.00     0.174 HD
ATOM     22  H11 UNL     1      -0.183 -14.090  21.046  1.00  0.00     0.174 HD
ENDBRANCH   1  20
TORSDOF 2
ENDMDL
MODEL 3
REMARK VINA RESULT: -5.641458729      1.542      2.924
REMARK  2 active torsions:
REMARK  status: ('A' for Active; 'I' for Inactive)
REMARK    1  A    between atoms: N1_1  and  C1_4 
REMARK    2  A    between atoms: N4_12  and  N5_14 
ROOT
HETATM    1  C1  UNL     1       0.740 -14.883  19.542  1.00  0.00     0.682 C 
HETATM    2  N2  UNL     1       1.792 -15.099  18.731  1.00  0.00    -0.141 N 
ATOM      3  H2  UNL     1       1.847 -14.484  17.920  1.00  0.00     0.189 HD
HETATM    4  C2  UNL     1       2.794 -16.017  18.832  1.00  0.00     0.340 C 
HETATM    5  O1  UNL     1       3.755 -15.878  18.019  1.00  0.00    -0.246 OA
HETATM    6  N3  UNL     1       2.920 -17.056  19.668  1.00  0.00    -0.288 N 
ATOM      7  H3  UNL     1       3.588 -17.781  19.408  1.00  0.00     0.172 HD
HETATM    8  C3  UNL     1       2.243 -17.230  20.821  1.00  0.00     0.194 C 
HETATM    9  N4  UNL     1       2.578 -18.283  21.488  1.00  0.00    -0.279 N 
ATOM     10  H4  UNL     1       2.095 -18.460  22.369  1.00  0.00     0.189 HD
HETATM   11  C5  UNL     1       1.256 -16.428  21.355  1.00  0.00     0.305 C 
HETATM   12  O2  UNL     1       0.920 -16.693  22.539  1.00  0.00    -0.263 OA
HETATM   13  N8  UNL     1       0.592 -15.389  20.781  1.00  0.00    -0.153 N 
ATOM     14  H8  UNL     1      -0.109 -14.933  21.365  1.00  0.00     0.187 HD
ENDROOT
BRANCH   9  15
HETATM   15  N5  UNL     1       3.540 -19.182  21.094  1.00  0.00    -0.274 N 
HETATM   16  C4  UNL     1       3.673 -20.369  21.599  1.00  0.00     0.215 C 
HETATM   17  N6  UNL     1       2.789 -20.832  22.637  1.00  0.00    -0.065 NA
HETATM   18  N7  UNL     1       4.687 -21.229  21.137  1.00  0.00    -0.065 NA
ATOM     19  H5  UNL     1       4.188 -18.899  20.359  1.00  0.00     0.189 HD
ENDBRANCH   9  15
BRANCH   1  20
HETATM   20  N1  UNL     1      -0.226 -14.120  19.099  1.00  0.00    -0.234 N 
ATOM     21  H12 UNL     1      -1.166 -14.516  19.112  1.00  0.00     0.174 HD
ATOM     22  H11 UNL     1       0.018 -13.186  18.770  1.00  0.00     0.174 HD
ENDBRANCH   1  20
TORSDOF 2
ENDMDL
MODEL 4
REMARK VINA RESULT: -5.445281834      2.014      5.408
REMARK  2 active torsions:
REMARK  status: ('A' for Active; 'I' for Inactive)
REMARK    1  A    between atoms: N1_1  and  C1_4 
REMARK    2  A    between atoms: N4_12  and  N5_14 
ROOT
HETATM    1  C1  UNL     1       3.932 -21.094  20.092  1.00  0.00     0.682 C 
HETATM    2  N2  UNL     1       3.025 -21.029  19.101  1.00  0.00    -0.141 N 
ATOM      3  H2  UNL     1       3.143 -21.719  18.358  1.00  0.00     0.189 HD
HETATM    4  C2  UNL     1       1.970 -20.180  18.941  1.00  0.00     0.340 C 
HETATM    5  O1  UNL     1       1.172 -20.461  17.998  1.00  0.00    -0.246 OA
HETATM    6  N3  UNL     1       1.646 -19.081  19.634  1.00  0.00    -0.288 N 
ATOM      7  H3  UNL     1       0.993 -18.432  19.195  1.00  0.00     0.172 HD
HETATM    8  C3  UNL     1       2.104 -18.754  20.860  1.00  0.00     0.194 C 
HETATM    9  N4  UNL     1       1.603 -17.672  21.351  1.00  0.00    -0.279 N 
ATOM     10  H4  UNL     1       1.916 -17.381  22.277  1.00  0.00     0.189 HD
HETATM   11  C5  UNL     1       3.028 -19.432  21.628  1.00  0.00     0.305 C 
HETATM   12  O2  UNL     1       3.141 -19.036  22.818  1.00  0.00    -0.263 OA
HETATM   13  N8  UNL     1       3.837 -20.469  21.280  1.00  0.00    -0.153 N 
ATOM     14  H8  UNL     1       4.452 -20.818  22.016  1.00  0.00     0.187 HD
ENDROOT
BRANCH   9  15
HETATM   15  N5  UNL     1       0.674 -16.884  20.714  1.00  0.00    -0.274 N 
HETATM   16  C4  UNL     1       0.976 -15.962  19.853  1.00  0.00     0.215 C 
HETATM   17  N6  UNL     1       2.347 -15.703  19.499  1.00  0.00    -0.065 NA
HETATM   18  N7  UNL     1      -0.039 -15.198  19.244  1.00  0.00    -0.065 NA
ATOM     19  H5  UNL     1      -0.311 -17.032  20.931  1.00  0.00     0.189 HD
ENDBRANCH   9  15
BRANCH   1  20
HETATM   20  N1  UNL     1       5.001 -21.823  19.895  1.00  0.00    -0.234 N 
ATOM     21  H12 UNL     1       5.900 -21.372  20.058  1.00  0.00     0.174 HD
ATOM     22  H11 UNL     1       4.869 -22.789  19.592  1.00  0.00     0.174 HD
ENDBRANCH   1  20
TORSDOF 2
ENDMDL
MODEL 5
REMARK VINA RESULT: -5.395520029      2.403      3.547
REMARK  2 active torsions:
REMARK  status: ('A' for Active; 'I' for Inactive)
REMARK    1  A    between atoms: N1_1  and  C1_4 
REMARK    2  A    between atoms: N4_12  and  N5_14 
ROOT
HETATM    1  C1  UNL     1       1.678 -16.575  21.509  1.00  0.00     0.682 C 
HETATM    2  N2  UNL     1       1.964 -16.099  20.284  1.00  0.00    -0.141 N 
ATOM      3  H2  UNL     1       1.783 -15.104  20.152  1.00  0.00     0.189 HD
HETATM    4  C2  UNL     1       2.461 -16.748  19.193  1.00  0.00     0.340 C 
HETATM    5  O1  UNL     1       2.802 -16.012  18.220  1.00  0.00    -0.246 OA
HETATM    6  N3  UNL     1       2.645 -18.058  18.989  1.00  0.00    -0.288 N 
ATOM      7  H3  UNL     1       2.760 -18.366  18.023  1.00  0.00     0.172 HD
HETATM    8  C3  UNL     1       2.693 -19.009  19.945  1.00  0.00     0.194 C 
HETATM    9  N4  UNL     1       2.941 -20.199  19.509  1.00  0.00    -0.279 N 
ATOM     10  H4  UNL     1       2.988 -20.954  20.193  1.00  0.00     0.189 HD
HETATM   11  C5  UNL     1       2.512 -18.856  21.303  1.00  0.00     0.305 C 
HETATM   12  O2  UNL     1       2.805 -19.857  22.008  1.00  0.00    -0.263 OA
HETATM   13  N8  UNL     1       2.059 -17.773  21.991  1.00  0.00    -0.153 N 
ATOM     14  H8  UNL     1       2.001 -17.883  23.004  1.00  0.00     0.187 HD
ENDROOT
BRANCH   9  15
HETATM   15  N5  UNL     1       3.144 -20.518  18.188  1.00  0.00    -0.274 N 
HETATM   16  C4  UNL     1       2.408 -21.352  17.523  1.00  0.00     0.215 C 
HETATM   17  N6  UNL     1       1.293 -22.014  18.149  1.00  0.00    -0.065 NA
HETATM   18  N7  UNL     1       2.686 -21.624  16.169  1.00  0.00    -0.065 NA
ATOM     19  H5  UNL     1       3.922 -20.072  17.701  1.00  0.00     0.189 HD
ENDBRANCH   9  15
BRANCH   1  20
HETATM   20  N1  UNL     1       0.968 -15.819  22.307  1.00  0.00    -0.234 N 
ATOM     21  H12 UNL     1       1.269 -15.770  23.281  1.00  0.00     0.174 HD
ATOM     22  H11 UNL     1       0.165 -15.330  21.911  1.00  0.00     0.174 HD
ENDBRANCH   1  20
TORSDOF 2
ENDMDL
