MODEL 1
REMARK VINA RESULT: -7.824883964      0.000      0.000
REMARK  1 active torsions:
REMARK  status: ('A' for Active; 'I' for Inactive)
REMARK    1  A    between atoms: C2_2  and  C4_4 
ROOT
HETATM    1  C4  UNL     1      -0.128  24.935   7.674  1.00  0.00     0.214 C 
HETATM    2  C5  UNL     1      -0.162  25.888   8.850  1.00  0.00     0.044 C 
HETATM    3  C6  UNL     1       0.212  24.925   9.963  1.00  0.00     0.019 C 
HETATM    4  C7  UNL     1       0.800  25.617  11.160  1.00  0.00     0.012 C 
HETATM    5  C8  UNL     1       1.987  24.832  11.675  1.00  0.00     0.079 C 
HETATM    6  C9  UNL     1       1.807  23.343  11.515  1.00  0.00     0.245 C 
HETATM    7  F1  UNL     1       0.819  22.885  12.344  1.00  0.00    -0.206 F 
HETATM    8  F2  UNL     1       3.009  22.758  11.908  1.00  0.00    -0.206 F 
HETATM    9  C10 UNL     1       1.591  22.946  10.065  1.00  0.00     0.112 C 
HETATM   10  C11 UNL     1       1.386  24.200   9.284  1.00  0.00     0.196 C 
HETATM   11  N1  UNL     1       0.965  24.026   7.939  1.00  0.00    -0.062 N 
ATOM     12  H11 UNL     1       1.731  24.133   7.274  1.00  0.00     0.278 HD
ATOM     13  H12 UNL     1       0.728  23.057   7.726  1.00  0.00     0.278 HD
ENDROOT
BRANCH   1  14
HETATM   14  C2  UNL     1      -0.071  25.606   6.372  1.00  0.00    -0.063 C 
HETATM   15  C1  UNL     1       0.739  26.640   6.213  1.00  0.00     0.016 C 
HETATM   16  C3  UNL     1      -0.902  25.150   5.231  1.00  0.00     0.044 C 
ENDBRANCH   1  14
TORSDOF 1
ENDMDL
MODEL 2
REMARK VINA RESULT: -7.224378272      4.358      6.467
REMARK  1 active torsions:
REMARK  status: ('A' for Active; 'I' for Inactive)
REMARK    1  A    between atoms: C2_2  and  C4_4 
ROOT
HETATM    1  C4  UNL     1       0.749  25.908   7.380  1.00  0.00     0.214 C 
HETATM    2  C5  UNL     1      -0.156  25.823   6.168  1.00  0.00     0.044 C 
HETATM    3  C6  UNL     1       0.626  26.705   5.211  1.00  0.00     0.019 C 
HETATM    4  C7  UNL     1       0.321  26.413   3.768  1.00  0.00     0.012 C 
HETATM    5  C8  UNL     1       1.603  26.412   2.962  1.00  0.00     0.079 C 
HETATM    6  C9  UNL     1       2.602  27.422   3.468  1.00  0.00     0.245 C 
HETATM    7  F1  UNL     1       2.157  28.696   3.239  1.00  0.00    -0.206 F 
HETATM    8  F2  UNL     1       3.765  27.229   2.725  1.00  0.00    -0.206 F 
HETATM    9  C10 UNL     1       2.975  27.181   4.919  1.00  0.00     0.112 C 
HETATM   10  C11 UNL     1       2.040  26.150   5.457  1.00  0.00     0.196 C 
HETATM   11  N1  UNL     1       2.098  25.936   6.859  1.00  0.00    -0.062 N 
ATOM     12  H11 UNL     1       2.628  25.100   7.104  1.00  0.00     0.278 HD
ATOM     13  H12 UNL     1       2.686  26.621   7.335  1.00  0.00     0.278 HD
ENDROOT
BRANCH   1  14
HETATM   14  C2  UNL     1       0.495  24.866   8.379  1.00  0.00    -0.063 C 
HETATM   15  C1  UNL     1       0.415  23.604   7.992  1.00  0.00     0.016 C 
HETATM   16  C3  UNL     1       0.326  25.198   9.815  1.00  0.00     0.044 C 
ENDBRANCH   1  14
TORSDOF 1
ENDMDL
MODEL 3
REMARK VINA RESULT: -7.167481139      3.956      6.033
REMARK  1 active torsions:
REMARK  status: ('A' for Active; 'I' for Inactive)
REMARK    1  A    between atoms: C2_2  and  C4_4 
ROOT
HETATM    1  C4  UNL     1       0.746  25.640   8.269  1.00  0.00     0.214 C 
HETATM    2  C5  UNL     1      -0.405  25.583   7.286  1.00  0.00     0.044 C 
HETATM    3  C6  UNL     1       0.186  26.415   6.161  1.00  0.00     0.019 C 
HETATM    4  C7  UNL     1      -0.439  26.120   4.827  1.00  0.00     0.012 C 
HETATM    5  C8  UNL     1       0.633  26.048   3.761  1.00  0.00     0.079 C 
HETATM    6  C9  UNL     1       1.762  27.017   4.014  1.00  0.00     0.245 C 
HETATM    7  F1  UNL     1       1.333  28.307   3.859  1.00  0.00    -0.206 F 
HETATM    8  F2  UNL     1       2.725  26.760   3.040  1.00  0.00    -0.206 F 
HETATM    9  C10 UNL     1       2.432  26.776   5.354  1.00  0.00     0.112 C 
HETATM   10  C11 UNL     1       1.594  25.797   6.105  1.00  0.00     0.196 C 
HETATM   11  N1  UNL     1       1.948  25.597   7.466  1.00  0.00    -0.062 N 
ATOM     12  H11 UNL     1       2.482  24.741   7.608  1.00  0.00     0.278 HD
ATOM     13  H12 UNL     1       2.655  26.259   7.787  1.00  0.00     0.278 HD
ENDROOT
BRANCH   1  14
HETATM   14  C2  UNL     1       0.672  24.623   9.322  1.00  0.00    -0.063 C 
HETATM   15  C1  UNL     1       0.871  23.353   9.011  1.00  0.00     0.016 C 
HETATM   16  C3  UNL     1       0.378  24.990  10.730  1.00  0.00     0.044 C 
ENDBRANCH   1  14
TORSDOF 1
ENDMDL
MODEL 4
REMARK VINA RESULT: -7.069046711      4.266      5.816
REMARK  1 active torsions:
REMARK  status: ('A' for Active; 'I' for Inactive)
REMARK    1  A    between atoms: C2_2  and  C4_4 
ROOT
HETATM    1  C4  UNL     1       1.919  28.118   3.476  1.00  0.00     0.214 C 
HETATM    2  C5  UNL     1       2.507  27.833   4.842  1.00  0.00     0.044 C 
HETATM    3  C6  UNL     1       1.358  27.047   5.449  1.00  0.00     0.019 C 
HETATM    4  C7  UNL     1       1.796  26.151   6.574  1.00  0.00     0.012 C 
HETATM    5  C8  UNL     1       1.109  24.807   6.456  1.00  0.00     0.079 C 
HETATM    6  C9  UNL     1      -0.292  24.922   5.911  1.00  0.00     0.245 C 
HETATM    7  F1  UNL     1      -1.111  25.548   6.812  1.00  0.00    -0.206 F 
HETATM    8  F2  UNL     1      -0.754  23.619   5.738  1.00  0.00    -0.206 F 
HETATM    9  C10 UNL     1      -0.320  25.572   4.539  1.00  0.00     0.112 C 
HETATM   10  C11 UNL     1       1.044  26.111   4.270  1.00  0.00     0.196 C 
HETATM   11  N1  UNL     1       1.166  26.935   3.121  1.00  0.00    -0.062 N 
ATOM     12  H11 UNL     1       1.571  26.440   2.327  1.00  0.00     0.278 HD
ATOM     13  H12 UNL     1       0.263  27.158   2.702  1.00  0.00     0.278 HD
ENDROOT
BRANCH   1  14
HETATM   14  C2  UNL     1       2.912  28.539   2.483  1.00  0.00    -0.063 C 
HETATM   15  C1  UNL     1       4.195  28.324   2.720  1.00  0.00     0.016 C 
HETATM   16  C3  UNL     1       2.506  29.201   1.218  1.00  0.00     0.044 C 
ENDBRANCH   1  14
TORSDOF 1
ENDMDL
MODEL 5
REMARK VINA RESULT: -7.047551025      3.014      5.201
REMARK  1 active torsions:
REMARK  status: ('A' for Active; 'I' for Inactive)
REMARK    1  A    between atoms: C2_2  and  C4_4 
ROOT
HETATM    1  C4  UNL     1       2.016  23.770  10.182  1.00  0.00     0.214 C 
HETATM    2  C5  UNL     1       1.402  25.141   9.985  1.00  0.00     0.044 C 
HETATM    3  C6  UNL     1       1.163  25.096   8.487  1.00  0.00     0.019 C 
HETATM    4  C7  UNL     1       0.086  26.045   8.040  1.00  0.00     0.012 C 
HETATM    5  C8  UNL     1      -0.803  25.368   7.019  1.00  0.00     0.079 C 
HETATM    6  C9  UNL     1      -0.042  24.413   6.134  1.00  0.00     0.245 C 
HETATM    7  F1  UNL     1       0.814  25.096   5.312  1.00  0.00    -0.206 F 
HETATM    8  F2  UNL     1      -0.991  23.775   5.337  1.00  0.00    -0.206 F 
HETATM    9  C10 UNL     1       0.651  23.323   6.931  1.00  0.00     0.112 C 
HETATM   10  C11 UNL     1       0.550  23.690   8.373  1.00  0.00     0.196 C 
HETATM   11  N1  UNL     1       1.316  22.896   9.267  1.00  0.00    -0.062 N 
ATOM     12  H11 UNL     1       0.752  22.197   9.750  1.00  0.00     0.278 HD
ATOM     13  H12 UNL     1       1.945  22.257   8.780  1.00  0.00     0.278 HD
ENDROOT
BRANCH   1  14
HETATM   14  C2  UNL     1       2.025  23.323  11.577  1.00  0.00    -0.063 C 
HETATM   15  C1  UNL     1       0.965  23.547  12.336  1.00  0.00     0.016 C 
HETATM   16  C3  UNL     1       3.199  22.624  12.156  1.00  0.00     0.044 C 
ENDBRANCH   1  14
TORSDOF 1
ENDMDL
