MODEL 1
REMARK VINA RESULT: -6.285134587      0.000      0.000
REMARK  3 active torsions:
REMARK  status: ('A' for Active; 'I' for Inactive)
REMARK    1  A    between atoms: N2_3  and  N3_5 
REMARK    2  A    between atoms: N3_5  and  C2_7 
REMARK    3  A    between atoms: C2_7  and  C3_9 
ROOT
HETATM    1  N1  UNL     1       4.346  23.575  11.563  1.00  0.00    -0.170 NA
HETATM    2  C1  UNL     1       3.369  23.168  11.088  1.00  0.00     0.197 C 
HETATM    3  N2  UNL     1       2.200  22.657  10.507  1.00  0.00    -0.235 N 
ATOM      4  H2  UNL     1       1.728  21.871  10.954  1.00  0.00     0.199 HD
ENDROOT
BRANCH   3   5
HETATM    5  N3  UNL     1       1.656  23.196   9.322  1.00  0.00    -0.285 N 
ATOM      6  H3  UNL     1       1.945  22.810   8.424  1.00  0.00     0.188 HD
BRANCH   5   7
HETATM    7  C2  UNL     1       0.719  24.258   9.345  1.00  0.00     0.097 C 
HETATM    8  S1  UNL     1       0.585  25.131  10.713  1.00  0.00    -0.064 SA
BRANCH   7   9
HETATM    9  C3  UNL     1      -0.098  24.539   8.142  1.00  0.00     0.051 C 
HETATM   10  C4  UNL     1       0.434  23.807   6.932  1.00  0.00     0.014 C 
HETATM   11  C5  UNL     1       1.177  24.798   6.079  1.00  0.00     0.038 C 
HETATM   12  C6  UNL     1       1.404  25.951   7.024  1.00  0.00     0.171 C 
HETATM   13  F1  UNL     1       1.640  27.139   6.360  1.00  0.00    -0.249 F 
HETATM   14  C7  UNL     1       0.037  25.997   7.724  1.00  0.00     0.049 C 
ENDBRANCH   7   9
ENDBRANCH   5   7
ENDBRANCH   3   5
TORSDOF 3
ENDMDL
MODEL 2
REMARK VINA RESULT: -6.195114268      3.032      4.944
REMARK  3 active torsions:
REMARK  status: ('A' for Active; 'I' for Inactive)
REMARK    1  A    between atoms: N2_3  and  N3_5 
REMARK    2  A    between atoms: N3_5  and  C2_7 
REMARK    3  A    between atoms: C2_7  and  C3_9 
ROOT
HETATM    1  N1  UNL     1       0.221  21.786   5.965  1.00  0.00    -0.170 NA
HETATM    2  C1  UNL     1       0.493  22.594   6.752  1.00  0.00     0.197 C 
HETATM    3  N2  UNL     1       0.842  23.574   7.692  1.00  0.00    -0.235 N 
ATOM      4  H2  UNL     1       0.830  24.555   7.411  1.00  0.00     0.199 HD
ENDROOT
BRANCH   3   5
HETATM    5  N3  UNL     1       1.210  23.245   9.014  1.00  0.00    -0.285 N 
ATOM      6  H3  UNL     1       1.700  22.368   9.188  1.00  0.00     0.188 HD
BRANCH   5   7
HETATM    7  C2  UNL     1       0.918  24.100  10.105  1.00  0.00     0.097 C 
HETATM    8  S1  UNL     1       0.208  25.530   9.789  1.00  0.00    -0.064 SA
BRANCH   7   9
HETATM    9  C3  UNL     1       1.263  23.672  11.481  1.00  0.00     0.051 C 
HETATM   10  C4  UNL     1       1.863  24.809  12.276  1.00  0.00     0.014 C 
HETATM   11  C5  UNL     1       3.350  24.595  12.344  1.00  0.00     0.038 C 
HETATM   12  C6  UNL     1       3.595  23.591  11.245  1.00  0.00     0.171 C 
HETATM   13  F1  UNL     1       4.778  22.900  11.416  1.00  0.00    -0.249 F 
HETATM   14  C7  UNL     1       2.397  22.656  11.465  1.00  0.00     0.049 C 
ENDBRANCH   7   9
ENDBRANCH   5   7
ENDBRANCH   3   5
TORSDOF 3
ENDMDL
MODEL 3
REMARK VINA RESULT: -6.122643811      2.236      2.761
REMARK  3 active torsions:
REMARK  status: ('A' for Active; 'I' for Inactive)
REMARK    1  A    between atoms: N2_3  and  N3_5 
REMARK    2  A    between atoms: N3_5  and  C2_7 
REMARK    3  A    between atoms: C2_7  and  C3_9 
ROOT
HETATM    1  N1  UNL     1       0.025  25.113  11.371  1.00  0.00    -0.170 NA
HETATM    2  C1  UNL     1       0.788  24.834  10.544  1.00  0.00     0.197 C 
HETATM    3  N2  UNL     1       1.729  24.510   9.555  1.00  0.00    -0.235 N 
ATOM      4  H2  UNL     1       2.466  23.840   9.775  1.00  0.00     0.199 HD
ENDROOT
BRANCH   3   5
HETATM    5  N3  UNL     1       1.687  25.081   8.266  1.00  0.00    -0.285 N 
ATOM      6  H3  UNL     1       2.412  25.744   7.994  1.00  0.00     0.188 HD
BRANCH   5   7
HETATM    7  C2  UNL     1       0.666  24.759   7.339  1.00  0.00     0.097 C 
HETATM    8  S1  UNL     1       0.403  23.187   7.004  1.00  0.00    -0.064 SA
BRANCH   7   9
HETATM    9  C3  UNL     1      -0.121  25.845   6.711  1.00  0.00     0.051 C 
HETATM   10  C4  UNL     1      -0.813  25.368   5.454  1.00  0.00     0.014 C 
HETATM   11  C5  UNL     1      -0.040  25.887   4.273  1.00  0.00     0.038 C 
HETATM   12  C6  UNL     1       1.283  26.278   4.883  1.00  0.00     0.171 C 
HETATM   13  F1  UNL     1       1.970  27.194   4.110  1.00  0.00    -0.249 F 
HETATM   14  C7  UNL     1       0.794  26.940   6.180  1.00  0.00     0.049 C 
ENDBRANCH   7   9
ENDBRANCH   5   7
ENDBRANCH   3   5
TORSDOF 3
ENDMDL
MODEL 4
REMARK VINA RESULT: -6.098859242      3.607      4.566
REMARK  3 active torsions:
REMARK  status: ('A' for Active; 'I' for Inactive)
REMARK    1  A    between atoms: N2_3  and  N3_5 
REMARK    2  A    between atoms: N3_5  and  C2_7 
REMARK    3  A    between atoms: C2_7  and  C3_9 
ROOT
HETATM    1  N1  UNL     1       0.225  21.521   6.007  1.00  0.00    -0.170 NA
HETATM    2  C1  UNL     1       0.440  22.522   6.552  1.00  0.00     0.197 C 
HETATM    3  N2  UNL     1       0.676  23.738   7.210  1.00  0.00    -0.235 N 
ATOM      4  H2  UNL     1       0.334  23.858   8.164  1.00  0.00     0.199 HD
ENDROOT
BRANCH   3   5
HETATM    5  N3  UNL     1       1.373  24.799   6.594  1.00  0.00    -0.285 N 
ATOM      6  H3  UNL     1       2.389  24.833   6.667  1.00  0.00     0.188 HD
BRANCH   5   7
HETATM    7  C2  UNL     1       0.699  25.818   5.877  1.00  0.00     0.097 C 
HETATM    8  S1  UNL     1      -0.762  25.474   5.247  1.00  0.00    -0.064 SA
BRANCH   7   9
HETATM    9  C3  UNL     1       1.335  27.147   5.725  1.00  0.00     0.051 C 
HETATM   10  C4  UNL     1       0.638  27.972   4.668  1.00  0.00     0.014 C 
HETATM   11  C5  UNL     1       1.487  27.949   3.426  1.00  0.00     0.038 C 
HETATM   12  C6  UNL     1       2.412  26.784   3.674  1.00  0.00     0.171 C 
HETATM   13  F1  UNL     1       3.563  26.853   2.914  1.00  0.00    -0.249 F 
HETATM   14  C7  UNL     1       2.741  27.014   5.157  1.00  0.00     0.049 C 
ENDBRANCH   7   9
ENDBRANCH   5   7
ENDBRANCH   3   5
TORSDOF 3
ENDMDL
MODEL 5
REMARK VINA RESULT: -5.943716604      2.529      3.344
REMARK  3 active torsions:
REMARK  status: ('A' for Active; 'I' for Inactive)
REMARK    1  A    between atoms: N2_3  and  N3_5 
REMARK    2  A    between atoms: N3_5  and  C2_7 
REMARK    3  A    between atoms: C2_7  and  C3_9 
ROOT
HETATM    1  N1  UNL     1      -0.023  25.197  11.049  1.00  0.00    -0.170 NA
HETATM    2  C1  UNL     1       0.613  24.842  10.147  1.00  0.00     0.197 C 
HETATM    3  N2  UNL     1       1.403  24.413   9.071  1.00  0.00    -0.235 N 
ATOM      4  H2  UNL     1       1.721  23.443   9.048  1.00  0.00     0.199 HD
ENDROOT
BRANCH   3   5
HETATM    5  N3  UNL     1       1.771  25.279   8.020  1.00  0.00    -0.285 N 
ATOM      6  H3  UNL     1       2.667  25.763   8.068  1.00  0.00     0.188 HD
BRANCH   5   7
HETATM    7  C2  UNL     1       0.930  25.494   6.901  1.00  0.00     0.097 C 
HETATM    8  S1  UNL     1      -0.057  24.285   6.439  1.00  0.00    -0.064 SA
BRANCH   7   9
HETATM    9  C3  UNL     1       0.974  26.795   6.194  1.00  0.00     0.051 C 
HETATM   10  C4  UNL     1       0.089  26.785   4.968  1.00  0.00     0.014 C 
HETATM   11  C5  UNL     1       0.972  26.635   3.759  1.00  0.00     0.038 C 
HETATM   12  C6  UNL     1       2.270  26.146   4.351  1.00  0.00     0.171 C 
HETATM   13  F1  UNL     1       3.350  26.381   3.522  1.00  0.00    -0.249 F 
HETATM   14  C7  UNL     1       2.352  27.042   5.596  1.00  0.00     0.049 C 
ENDBRANCH   7   9
ENDBRANCH   5   7
ENDBRANCH   3   5
TORSDOF 3
ENDMDL
