MODEL 1
REMARK VINA RESULT: -6.613075568      0.000      0.000
REMARK  3 active torsions:
REMARK  status: ('A' for Active; 'I' for Inactive)
REMARK    1  A    between atoms: C2_2  and  C3_3 
REMARK    2  A    between atoms: C3_3  and  N1_4 
REMARK    3  A    between atoms: C7_14  and  C9_16 
ROOT
HETATM    1  C1  UNL     1       0.338  27.762   5.574  1.00  0.00     0.017 C 
HETATM    2  C2  UNL     1       1.278  26.637   5.770  1.00  0.00    -0.015 C 
HETATM    3  C4  UNL     1       0.850  25.457   4.893  1.00  0.00     0.062 C 
HETATM    4  C5  UNL     1      -0.458  24.992   5.470  1.00  0.00    -0.019 C 
HETATM    5  N2  UNL     1      -1.458  24.831   4.692  1.00  0.00    -0.406 N 
ATOM      6  H21 UNL     1      -2.346  24.516   5.083  1.00  0.00     0.155 HD
ATOM      7  H22 UNL     1      -1.359  25.018   3.695  1.00  0.00     0.155 HD
HETATM    8  C6  UNL     1      -0.601  24.723   6.906  1.00  0.00     0.070 C 
HETATM    9  C7  UNL     1       0.291  25.502   7.798  1.00  0.00     0.060 C 
HETATM   10  C8  UNL     1      -0.489  26.478   8.689  1.00  0.00     0.025 C 
HETATM   11  C10 UNL     1       1.454  26.152   7.151  1.00  0.00     0.029 C 
ENDROOT
BRANCH   2  12
HETATM   12  C3  UNL     1       2.658  27.123   5.294  1.00  0.00     0.239 C 
BRANCH  12  13
HETATM   13  N1  UNL     1       3.069  26.446   4.104  1.00  0.00    -0.079 N 
ATOM     14  H13 UNL     1       3.661  25.643   4.316  1.00  0.00     0.274 HD
ATOM     15  H12 UNL     1       2.289  25.957   3.664  1.00  0.00     0.274 HD
ATOM     16  H11 UNL     1       3.525  27.083   3.450  1.00  0.00     0.274 HD
ENDBRANCH  12  13
ENDBRANCH   2  12
BRANCH   9  17
HETATM   17  C9  UNL     1       0.879  24.503   8.815  1.00  0.00     0.395 C 
HETATM   18  F1  UNL     1       2.185  24.833   9.107  1.00  0.00    -0.170 F 
HETATM   19  F2  UNL     1       0.100  24.647   9.947  1.00  0.00    -0.170 F 
HETATM   20  F3  UNL     1       0.735  23.227   8.351  1.00  0.00    -0.170 F 
ENDBRANCH   9  17
TORSDOF 3
ENDMDL
MODEL 2
REMARK VINA RESULT: -6.558482543      1.850      3.231
REMARK  3 active torsions:
REMARK  status: ('A' for Active; 'I' for Inactive)
REMARK    1  A    between atoms: C2_2  and  C3_3 
REMARK    2  A    between atoms: C3_3  and  N1_4 
REMARK    3  A    between atoms: C7_14  and  C9_16 
ROOT
HETATM    1  C1  UNL     1      -0.059  27.524   3.348  1.00  0.00     0.017 C 
HETATM    2  C2  UNL     1       0.341  27.996   4.692  1.00  0.00    -0.015 C 
HETATM    3  C4  UNL     1       1.869  28.055   4.776  1.00  0.00     0.062 C 
HETATM    4  C5  UNL     1       2.323  26.624   4.702  1.00  0.00    -0.019 C 
HETATM    5  N2  UNL     1       3.234  26.303   3.865  1.00  0.00    -0.406 N 
ATOM      6  H21 UNL     1       3.542  25.332   3.814  1.00  0.00     0.155 HD
ATOM      7  H22 UNL     1       3.639  27.017   3.261  1.00  0.00     0.155 HD
HETATM    8  C6  UNL     1       1.738  25.596   5.572  1.00  0.00     0.070 C 
HETATM    9  C7  UNL     1       0.342  25.839   6.004  1.00  0.00     0.060 C 
HETATM   10  C8  UNL     1      -0.634  24.805   5.424  1.00  0.00     0.025 C 
HETATM   11  C10 UNL     1      -0.160  27.223   5.843  1.00  0.00     0.029 C 
ENDROOT
BRANCH   2  12
HETATM   12  C3  UNL     1      -0.211  29.423   4.844  1.00  0.00     0.239 C 
BRANCH  12  13
HETATM   13  N1  UNL     1      -1.300  29.662   3.949  1.00  0.00    -0.079 N 
ATOM     14  H13 UNL     1      -1.126  30.476   3.359  1.00  0.00     0.274 HD
ATOM     15  H12 UNL     1      -1.350  28.948   3.222  1.00  0.00     0.274 HD
ATOM     16  H11 UNL     1      -2.184  29.747   4.450  1.00  0.00     0.274 HD
ENDBRANCH  12  13
ENDBRANCH   2  12
BRANCH   9  17
HETATM   17  C9  UNL     1       0.291  25.548   7.518  1.00  0.00     0.395 C 
HETATM   18  F1  UNL     1      -0.194  24.278   7.744  1.00  0.00    -0.170 F 
HETATM   19  F2  UNL     1       1.605  25.624   7.939  1.00  0.00    -0.170 F 
HETATM   20  F3  UNL     1      -0.423  26.521   8.155  1.00  0.00    -0.170 F 
ENDBRANCH   9  17
TORSDOF 3
ENDMDL
MODEL 3
REMARK VINA RESULT: -6.544514810      1.817      3.146
REMARK  3 active torsions:
REMARK  status: ('A' for Active; 'I' for Inactive)
REMARK    1  A    between atoms: C2_2  and  C3_3 
REMARK    2  A    between atoms: C3_3  and  N1_4 
REMARK    3  A    between atoms: C7_14  and  C9_16 
ROOT
HETATM    1  C1  UNL     1      -0.087  27.481   3.404  1.00  0.00     0.017 C 
HETATM    2  C2  UNL     1       0.338  27.954   4.739  1.00  0.00    -0.015 C 
HETATM    3  C4  UNL     1       1.868  28.015   4.794  1.00  0.00     0.062 C 
HETATM    4  C5  UNL     1       2.321  26.584   4.712  1.00  0.00    -0.019 C 
HETATM    5  N2  UNL     1       3.216  26.263   3.857  1.00  0.00    -0.406 N 
ATOM      6  H21 UNL     1       3.523  25.292   3.801  1.00  0.00     0.155 HD
ATOM      7  H22 UNL     1       3.609  26.977   3.245  1.00  0.00     0.155 HD
HETATM    8  C6  UNL     1       1.754  25.555   5.594  1.00  0.00     0.070 C 
HETATM    9  C7  UNL     1       0.366  25.798   6.053  1.00  0.00     0.060 C 
HETATM   10  C8  UNL     1      -0.619  24.763   5.493  1.00  0.00     0.025 C 
HETATM   11  C10 UNL     1      -0.139  27.182   5.900  1.00  0.00     0.029 C 
ENDROOT
BRANCH   2  12
HETATM   12  C3  UNL     1      -0.212  29.381   4.901  1.00  0.00     0.239 C 
BRANCH  12  13
HETATM   13  N1  UNL     1      -1.284  29.636   3.991  1.00  0.00    -0.079 N 
ATOM     14  H13 UNL     1      -1.152  30.517   3.495  1.00  0.00     0.274 HD
ATOM     15  H12 UNL     1      -1.257  29.000   3.194  1.00  0.00     0.274 HD
ATOM     16  H11 UNL     1      -2.189  29.606   4.462  1.00  0.00     0.274 HD
ENDBRANCH  12  13
ENDBRANCH   2  12
BRANCH   9  17
HETATM   17  C9  UNL     1       0.346  25.508   7.567  1.00  0.00     0.395 C 
HETATM   18  F1  UNL     1      -0.492  26.392   8.212  1.00  0.00    -0.170 F 
HETATM   19  F2  UNL     1      -0.159  24.226   7.678  1.00  0.00    -0.170 F 
HETATM   20  F3  UNL     1       1.620  25.513   8.059  1.00  0.00    -0.170 F 
ENDBRANCH   9  17
TORSDOF 3
ENDMDL
MODEL 4
REMARK VINA RESULT: -6.522685672      1.847      3.061
REMARK  3 active torsions:
REMARK  status: ('A' for Active; 'I' for Inactive)
REMARK    1  A    between atoms: C2_2  and  C3_3 
REMARK    2  A    between atoms: C3_3  and  N1_4 
REMARK    3  A    between atoms: C7_14  and  C9_16 
ROOT
HETATM    1  C1  UNL     1      -0.082  27.530   3.381  1.00  0.00     0.017 C 
HETATM    2  C2  UNL     1       0.357  27.998   4.714  1.00  0.00    -0.015 C 
HETATM    3  C4  UNL     1       1.887  28.057   4.754  1.00  0.00     0.062 C 
HETATM    4  C5  UNL     1       2.338  26.626   4.663  1.00  0.00    -0.019 C 
HETATM    5  N2  UNL     1       3.224  26.307   3.799  1.00  0.00    -0.406 N 
ATOM      6  H21 UNL     1       3.530  25.335   3.737  1.00  0.00     0.155 HD
ATOM      7  H22 UNL     1       3.612  27.022   3.185  1.00  0.00     0.155 HD
HETATM    8  C6  UNL     1       1.778  25.595   5.547  1.00  0.00     0.070 C 
HETATM    9  C7  UNL     1       0.395  25.837   6.020  1.00  0.00     0.060 C 
HETATM   10  C8  UNL     1      -0.597  24.805   5.466  1.00  0.00     0.025 C 
HETATM   11  C10 UNL     1      -0.111  27.222   5.876  1.00  0.00     0.029 C 
ENDROOT
BRANCH   2  12
HETATM   12  C3  UNL     1      -0.190  29.425   4.886  1.00  0.00     0.239 C 
BRANCH  12  13
HETATM   13  N1  UNL     1      -1.298  29.670   4.016  1.00  0.00    -0.079 N 
ATOM     14  H13 UNL     1      -1.482  30.669   3.917  1.00  0.00     0.274 HD
ATOM     15  H12 UNL     1      -1.066  29.456   3.046  1.00  0.00     0.274 HD
ATOM     16  H11 UNL     1      -2.131  29.166   4.320  1.00  0.00     0.274 HD
ENDBRANCH  12  13
ENDBRANCH   2  12
BRANCH   9  17
HETATM   17  C9  UNL     1       0.388  25.542   7.533  1.00  0.00     0.395 C 
HETATM   18  F1  UNL     1       1.667  25.623   8.041  1.00  0.00    -0.170 F 
HETATM   19  F2  UNL     1      -0.394  26.538   8.087  1.00  0.00    -0.170 F 
HETATM   20  F3  UNL     1      -0.213  24.339   7.770  1.00  0.00    -0.170 F 
ENDBRANCH   9  17
TORSDOF 3
ENDMDL
MODEL 5
REMARK VINA RESULT: -6.299159679      2.843      3.937
REMARK  3 active torsions:
REMARK  status: ('A' for Active; 'I' for Inactive)
REMARK    1  A    between atoms: C2_2  and  C3_3 
REMARK    2  A    between atoms: C3_3  and  N1_4 
REMARK    3  A    between atoms: C7_14  and  C9_16 
ROOT
HETATM    1  C1  UNL     1      -1.528  28.668   3.653  1.00  0.00     0.017 C 
HETATM    2  C2  UNL     1      -0.265  28.998   4.348  1.00  0.00    -0.015 C 
HETATM    3  C4  UNL     1       0.866  29.109   3.320  1.00  0.00     0.062 C 
HETATM    4  C5  UNL     1       1.052  27.716   2.788  1.00  0.00    -0.019 C 
HETATM    5  N2  UNL     1       1.074  27.531   1.523  1.00  0.00    -0.406 N 
ATOM      6  H21 UNL     1       1.200  26.585   1.162  1.00  0.00     0.155 HD
ATOM      7  H22 UNL     1       0.964  28.326   0.895  1.00  0.00     0.155 HD
HETATM    8  C6  UNL     1       1.209  26.571   3.694  1.00  0.00     0.070 C 
HETATM    9  C7  UNL     1       0.556  26.706   5.017  1.00  0.00     0.060 C 
HETATM   10  C8  UNL     1      -0.595  25.707   5.200  1.00  0.00     0.025 C 
HETATM   11  C10 UNL     1       0.166  28.078   5.416  1.00  0.00     0.029 C 
ENDROOT
BRANCH   2  12
HETATM   12  C3  UNL     1      -0.464  30.374   5.004  1.00  0.00     0.239 C 
BRANCH  12  13
HETATM   13  N1  UNL     1      -1.685  30.985   4.581  1.00  0.00    -0.079 N 
ATOM     14  H13 UNL     1      -1.866  30.813   3.592  1.00  0.00     0.274 HD
ATOM     15  H12 UNL     1      -2.497  30.508   4.974  1.00  0.00     0.274 HD
ATOM     16  H11 UNL     1      -1.698  31.982   4.794  1.00  0.00     0.274 HD
ENDBRANCH  12  13
ENDBRANCH   2  12
BRANCH   9  17
HETATM   17  C9  UNL     1       1.585  26.240   6.067  1.00  0.00     0.395 C 
HETATM   18  F1  UNL     1       2.757  26.954   5.936  1.00  0.00    -0.170 F 
HETATM   19  F2  UNL     1       1.003  26.524   7.287  1.00  0.00    -0.170 F 
HETATM   20  F3  UNL     1       1.762  24.889   5.978  1.00  0.00    -0.170 F 
ENDBRANCH   9  17
TORSDOF 3
ENDMDL
