MODEL 1
REMARK VINA RESULT: -8.281672368      0.000      0.000
REMARK  3 active torsions:
REMARK  status: ('A' for Active; 'I' for Inactive)
REMARK    1  A    between atoms: C3_3  and  O1_4 
REMARK    2  A    between atoms: C5_7  and  C16_22 
REMARK    3  A    between atoms: C11_15  and  O4_16 
ROOT
HETATM    1  C1  UNL     1     -16.311  34.781  -6.959  1.00  0.00     0.014 C 
HETATM    2  C2  UNL     1     -16.876  35.145  -5.575  1.00  0.00     0.030 C 
HETATM    3  C3  UNL     1     -17.274  36.591  -5.680  1.00  0.00     0.126 C 
HETATM    4  C4  UNL     1     -17.872  37.328  -4.570  1.00  0.00     0.071 C 
HETATM    5  C5  UNL     1     -17.038  37.578  -3.331  1.00  0.00     0.079 C 
HETATM    6  C6  UNL     1     -17.035  39.028  -2.895  1.00  0.00     0.047 C 
HETATM    7  O2  UNL     1     -15.686  37.310  -3.671  1.00  0.00    -0.309 OA
HETATM    8  C7  UNL     1     -15.264  36.197  -4.318  1.00  0.00     0.270 C 
HETATM    9  O3  UNL     1     -14.123  36.297  -4.838  1.00  0.00    -0.264 OA
HETATM   10  C8  UNL     1     -15.946  34.908  -4.494  1.00  0.00     0.067 C 
HETATM   11  C9  UNL     1     -14.888  33.928  -4.327  1.00  0.00     0.030 C 
HETATM   12  C10 UNL     1     -13.666  33.865  -5.091  1.00  0.00     0.014 C 
HETATM   13  C11 UNL     1     -14.624  34.176  -2.803  1.00  0.00     0.131 C 
HETATM   14  C12 UNL     1     -15.884  34.601  -2.188  1.00  0.00     0.064 C 
HETATM   15  C13 UNL     1     -16.792  34.367  -3.381  1.00  0.00     0.037 C 
HETATM   16  C14 UNL     1     -18.158  34.679  -3.218  1.00  0.00    -0.024 C 
HETATM   17  C15 UNL     1     -18.503  35.817  -2.627  1.00  0.00    -0.019 C 
HETATM   18  C16 UNL     1     -17.371  36.667  -2.190  1.00  0.00     0.083 C 
HETATM   19  C17 UNL     1     -16.213  35.873  -1.593  1.00  0.00     0.116 C 
HETATM   20  C18 UNL     1     -16.729  35.602  -0.139  1.00  0.00     0.053 C 
HETATM   21  F1  UNL     1     -15.215  36.776  -1.287  1.00  0.00    -0.242 F 
ENDROOT
BRANCH   3  22
HETATM   22  O1  UNL     1     -18.209  36.642  -6.747  1.00  0.00    -0.395 OA
ATOM     23  H1  UNL     1     -18.615  37.499  -6.681  1.00  0.00     0.210 HD
ENDBRANCH   3  22
BRANCH  13  24
HETATM   24  O4  UNL     1     -13.456  34.735  -2.535  1.00  0.00    -0.395 OA
ATOM     25  H4  UNL     1     -13.250  34.789  -1.610  1.00  0.00     0.210 HD
ENDBRANCH  13  24
TORSDOF 3
ENDMDL
MODEL 2
REMARK VINA RESULT: -8.155899317      1.560      2.130
REMARK  3 active torsions:
REMARK  status: ('A' for Active; 'I' for Inactive)
REMARK    1  A    between atoms: C3_3  and  O1_4 
REMARK    2  A    between atoms: C5_7  and  C16_22 
REMARK    3  A    between atoms: C11_15  and  O4_16 
ROOT
HETATM    1  C1  UNL     1     -15.726  32.497  -5.641  1.00  0.00     0.014 C 
HETATM    2  C2  UNL     1     -16.662  33.544  -5.015  1.00  0.00     0.030 C 
HETATM    3  C3  UNL     1     -17.364  34.190  -6.177  1.00  0.00     0.126 C 
HETATM    4  C4  UNL     1     -18.360  35.246  -6.012  1.00  0.00     0.071 C 
HETATM    5  C5  UNL     1     -17.916  36.581  -5.451  1.00  0.00     0.079 C 
HETATM    6  C6  UNL     1     -18.363  37.760  -6.289  1.00  0.00     0.047 C 
HETATM    7  O2  UNL     1     -16.498  36.618  -5.520  1.00  0.00    -0.309 OA
HETATM    8  C7  UNL     1     -15.683  35.623  -5.094  1.00  0.00     0.270 C 
HETATM    9  O3  UNL     1     -14.513  35.675  -5.551  1.00  0.00    -0.264 OA
HETATM   10  C8  UNL     1     -15.975  34.507  -4.184  1.00  0.00     0.067 C 
HETATM   11  C9  UNL     1     -14.778  34.399  -3.370  1.00  0.00     0.030 C 
HETATM   12  C10 UNL     1     -13.436  34.203  -3.861  1.00  0.00     0.014 C 
HETATM   13  C11 UNL     1     -14.936  35.755  -2.600  1.00  0.00     0.131 C 
HETATM   14  C12 UNL     1     -16.368  36.044  -2.481  1.00  0.00     0.064 C 
HETATM   15  C13 UNL     1     -16.896  34.728  -3.021  1.00  0.00     0.037 C 
HETATM   16  C14 UNL     1     -18.297  34.582  -3.099  1.00  0.00    -0.024 C 
HETATM   17  C15 UNL     1     -19.032  35.576  -3.584  1.00  0.00    -0.019 C 
HETATM   18  C16 UNL     1     -18.269  36.773  -4.008  1.00  0.00     0.083 C 
HETATM   19  C17 UNL     1     -17.122  37.126  -3.067  1.00  0.00     0.116 C 
HETATM   20  C18 UNL     1     -17.874  37.866  -1.910  1.00  0.00     0.053 C 
HETATM   21  F1  UNL     1     -16.469  38.213  -3.611  1.00  0.00    -0.242 F 
ENDROOT
BRANCH   3  22
HETATM   22  O1  UNL     1     -18.015  33.127  -6.856  1.00  0.00    -0.395 OA
ATOM     23  H1  UNL     1     -18.261  33.485  -7.700  1.00  0.00     0.210 HD
ENDBRANCH   3  22
BRANCH  13  24
HETATM   24  O4  UNL     1     -14.031  36.668  -2.911  1.00  0.00    -0.395 OA
ATOM     25  H4  UNL     1     -14.354  37.367  -3.467  1.00  0.00     0.210 HD
ENDBRANCH  13  24
TORSDOF 3
ENDMDL
MODEL 3
REMARK VINA RESULT: -7.919144360      1.800      3.029
REMARK  3 active torsions:
REMARK  status: ('A' for Active; 'I' for Inactive)
REMARK    1  A    between atoms: C3_3  and  O1_4 
REMARK    2  A    between atoms: C5_7  and  C16_22 
REMARK    3  A    between atoms: C11_15  and  O4_16 
ROOT
HETATM    1  C1  UNL     1     -14.200  33.902  -3.324  1.00  0.00     0.014 C 
HETATM    2  C2  UNL     1     -15.500  34.719  -3.415  1.00  0.00     0.030 C 
HETATM    3  C3  UNL     1     -15.090  36.048  -3.985  1.00  0.00     0.126 C 
HETATM    4  C4  UNL     1     -16.043  37.124  -4.244  1.00  0.00     0.071 C 
HETATM    5  C5  UNL     1     -16.746  37.770  -3.068  1.00  0.00     0.079 C 
HETATM    6  C6  UNL     1     -16.663  39.281  -3.077  1.00  0.00     0.047 C 
HETATM    7  O2  UNL     1     -16.044  37.387  -1.894  1.00  0.00    -0.309 OA
HETATM    8  C7  UNL     1     -15.680  36.117  -1.598  1.00  0.00     0.270 C 
HETATM    9  O3  UNL     1     -14.780  36.021  -0.725  1.00  0.00    -0.264 OA
HETATM   10  C8  UNL     1     -16.185  34.852  -2.149  1.00  0.00     0.067 C 
HETATM   11  C9  UNL     1     -16.261  33.974  -0.995  1.00  0.00     0.030 C 
HETATM   12  C10 UNL     1     -15.170  33.642  -0.112  1.00  0.00     0.014 C 
HETATM   13  C11 UNL     1     -17.421  34.721  -0.251  1.00  0.00     0.131 C 
HETATM   14  C12 UNL     1     -18.280  35.343  -1.262  1.00  0.00     0.064 C 
HETATM   15  C13 UNL     1     -17.640  34.729  -2.493  1.00  0.00     0.037 C 
HETATM   16  C14 UNL     1     -18.177  35.094  -3.745  1.00  0.00    -0.024 C 
HETATM   17  C15 UNL     1     -18.455  36.368  -3.992  1.00  0.00    -0.019 C 
HETATM   18  C16 UNL     1     -18.156  37.303  -2.882  1.00  0.00     0.083 C 
HETATM   19  C17 UNL     1     -18.514  36.746  -1.507  1.00  0.00     0.116 C 
HETATM   20  C18 UNL     1     -20.060  36.988  -1.457  1.00  0.00     0.053 C 
HETATM   21  F1  UNL     1     -18.131  37.688  -0.574  1.00  0.00    -0.242 F 
ENDROOT
BRANCH   3  22
HETATM   22  O1  UNL     1     -14.479  35.746  -5.230  1.00  0.00    -0.395 OA
ATOM     23  H1  UNL     1     -14.073  36.557  -5.512  1.00  0.00     0.210 HD
ENDBRANCH   3  22
BRANCH  13  24
HETATM   24  O4  UNL     1     -17.053  35.324   0.866  1.00  0.00    -0.395 OA
ATOM     25  H4  UNL     1     -16.251  35.827   0.794  1.00  0.00     0.210 HD
ENDBRANCH  13  24
TORSDOF 3
ENDMDL
MODEL 4
REMARK VINA RESULT: -7.683632218      2.081      4.088
REMARK  3 active torsions:
REMARK  status: ('A' for Active; 'I' for Inactive)
REMARK    1  A    between atoms: C3_3  and  O1_4 
REMARK    2  A    between atoms: C5_7  and  C16_22 
REMARK    3  A    between atoms: C11_15  and  O4_16 
ROOT
HETATM    1  C1  UNL     1     -19.414  37.029  -0.759  1.00  0.00     0.014 C 
HETATM    2  C2  UNL     1     -18.428  36.941  -1.936  1.00  0.00     0.030 C 
HETATM    3  C3  UNL     1     -19.169  36.201  -3.015  1.00  0.00     0.126 C 
HETATM    4  C4  UNL     1     -18.582  35.912  -4.321  1.00  0.00     0.071 C 
HETATM    5  C5  UNL     1     -17.399  34.969  -4.393  1.00  0.00     0.079 C 
HETATM    6  C6  UNL     1     -17.574  33.866  -5.414  1.00  0.00     0.047 C 
HETATM    7  O2  UNL     1     -17.326  34.287  -3.149  1.00  0.00    -0.309 OA
HETATM    8  C7  UNL     1     -17.386  34.892  -1.938  1.00  0.00     0.270 C 
HETATM    9  O3  UNL     1     -17.661  34.121  -0.983  1.00  0.00    -0.264 OA
HETATM   10  C8  UNL     1     -17.177  36.304  -1.592  1.00  0.00     0.067 C 
HETATM   11  C9  UNL     1     -16.431  36.252  -0.349  1.00  0.00     0.030 C 
HETATM   12  C10 UNL     1     -16.844  35.579   0.859  1.00  0.00     0.014 C 
HETATM   13  C11 UNL     1     -15.105  35.656  -0.935  1.00  0.00     0.131 C 
HETATM   14  C12 UNL     1     -14.974  36.120  -2.319  1.00  0.00     0.064 C 
HETATM   15  C13 UNL     1     -16.137  37.095  -2.328  1.00  0.00     0.037 C 
HETATM   16  C14 UNL     1     -16.389  37.782  -3.533  1.00  0.00    -0.024 C 
HETATM   17  C15 UNL     1     -16.374  37.115  -4.682  1.00  0.00    -0.019 C 
HETATM   18  C16 UNL     1     -16.085  35.667  -4.564  1.00  0.00     0.083 C 
HETATM   19  C17 UNL     1     -15.004  35.346  -3.536  1.00  0.00     0.116 C 
HETATM   20  C18 UNL     1     -13.697  35.665  -4.338  1.00  0.00     0.053 C 
HETATM   21  F1  UNL     1     -14.882  33.972  -3.490  1.00  0.00    -0.242 F 
ENDROOT
BRANCH   3  22
HETATM   22  O1  UNL     1     -20.336  36.971  -3.261  1.00  0.00    -0.395 OA
ATOM     23  H1  UNL     1     -21.061  36.410  -3.012  1.00  0.00     0.210 HD
ENDBRANCH   3  22
BRANCH  13  24
HETATM   24  O4  UNL     1     -14.848  34.417  -0.553  1.00  0.00    -0.395 OA
ATOM     25  H4  UNL     1     -13.925  34.194  -0.541  1.00  0.00     0.210 HD
ENDBRANCH  13  24
TORSDOF 3
ENDMDL
MODEL 5
REMARK VINA RESULT: -7.443722973      2.269      4.325
REMARK  3 active torsions:
REMARK  status: ('A' for Active; 'I' for Inactive)
REMARK    1  A    between atoms: C3_3  and  O1_4 
REMARK    2  A    between atoms: C5_7  and  C16_22 
REMARK    3  A    between atoms: C11_15  and  O4_16 
ROOT
HETATM    1  C1  UNL     1     -19.218  39.352  -4.280  1.00  0.00     0.014 C 
HETATM    2  C2  UNL     1     -18.122  38.302  -4.032  1.00  0.00     0.030 C 
HETATM    3  C3  UNL     1     -18.239  37.333  -5.176  1.00  0.00     0.126 C 
HETATM    4  C4  UNL     1     -17.361  36.176  -5.324  1.00  0.00     0.071 C 
HETATM    5  C5  UNL     1     -17.436  35.070  -4.291  1.00  0.00     0.079 C 
HETATM    6  C6  UNL     1     -17.589  33.693  -4.900  1.00  0.00     0.047 C 
HETATM    7  O2  UNL     1     -18.634  35.263  -3.553  1.00  0.00    -0.309 OA
HETATM    8  C7  UNL     1     -19.025  36.445  -3.020  1.00  0.00     0.270 C 
HETATM    9  O3  UNL     1     -20.245  36.506  -2.723  1.00  0.00    -0.264 OA
HETATM   10  C8  UNL     1     -18.230  37.650  -2.747  1.00  0.00     0.067 C 
HETATM   11  C9  UNL     1     -18.734  38.116  -1.467  1.00  0.00     0.030 C 
HETATM   12  C10 UNL     1     -20.107  38.440  -1.165  1.00  0.00     0.014 C 
HETATM   13  C11 UNL     1     -18.198  36.928  -0.596  1.00  0.00     0.131 C 
HETATM   14  C12 UNL     1     -16.969  36.428  -1.219  1.00  0.00     0.064 C 
HETATM   15  C13 UNL     1     -16.814  37.505  -2.277  1.00  0.00     0.037 C 
HETATM   16  C14 UNL     1     -15.712  37.392  -3.150  1.00  0.00    -0.024 C 
HETATM   17  C15 UNL     1     -15.420  36.213  -3.685  1.00  0.00    -0.019 C 
HETATM   18  C16 UNL     1     -16.320  35.104  -3.294  1.00  0.00     0.083 C 
HETATM   19  C17 UNL     1     -16.723  35.141  -1.822  1.00  0.00     0.116 C 
HETATM   20  C18 UNL     1     -15.462  34.523  -1.130  1.00  0.00     0.053 C 
HETATM   21  F1  UNL     1     -17.600  34.096  -1.614  1.00  0.00    -0.242 F 
ENDROOT
BRANCH   3  22
HETATM   22  O1  UNL     1     -18.070  38.118  -6.347  1.00  0.00    -0.395 OA
ATOM     23  H1  UNL     1     -18.949  38.358  -6.615  1.00  0.00     0.210 HD
ENDBRANCH   3  22
BRANCH  13  24
HETATM   24  O4  UNL     1     -19.142  36.141  -0.108  1.00  0.00    -0.395 OA
ATOM     25  H4  UNL     1     -19.318  36.267   0.816  1.00  0.00     0.210 HD
ENDBRANCH  13  24
TORSDOF 3
ENDMDL
