MODEL 1
REMARK VINA RESULT: -9.149628583      0.000      0.000
REMARK  14 active torsions:
REMARK  status: ('A' for Active; 'I' for Inactive)
REMARK    1  A    between atoms: C2_2  and  C3_3 
REMARK    2  A    between atoms: C3_3  and  C4_4 
REMARK    3  A    between atoms: C4_4  and  N1_5 
REMARK    4  A    between atoms: C4_4  and  C5_9 
REMARK    5  A    between atoms: C4_4  and  C6_12 
REMARK    6  A    between atoms: C5_9  and  O1_10 
REMARK    7  A    between atoms: C6_12  and  O2_13 
REMARK    8  A    between atoms: C6_12  and  N2_15 
REMARK    9  A    between atoms: N2_15  and  C7_16 
REMARK   10  A    between atoms: N2_15  and  C27_44 
REMARK   11  A    between atoms: N4_22  and  C11_23 
REMARK   12  A    between atoms: C11_23  and  C12_24 
REMARK   13  A    between atoms: N6_29  and  C16_30 
REMARK   14  A    between atoms: C27_44  and  C28_45 
ROOT
HETATM    1  C12 UNL     1     -11.628  17.887 -15.597  1.00  0.00     0.159 C 
HETATM    2  C13 UNL     1     -12.350  17.518 -16.789  1.00  0.00     0.061 C 
HETATM    3  N5  UNL     1     -12.942  17.215 -17.734  1.00  0.00    -0.197 NA
ENDROOT
BRANCH   1   4
HETATM    4  C11 UNL     1     -10.145  18.149 -16.048  1.00  0.00     0.094 C 
HETATM    5  C14 UNL     1      -9.489  18.617 -14.811  1.00  0.00     0.066 C 
HETATM    6  C15 UNL     1      -8.927  17.319 -14.216  1.00  0.00     0.275 C 
HETATM    7  N6  UNL     1      -9.651  16.256 -14.887  1.00  0.00     0.095 N 
HETATM    8  C23 UNL     1      -9.664  16.769 -16.274  1.00  0.00     0.306 C 
BRANCH   4   9
HETATM    9  N4  UNL     1     -10.214  19.040 -17.156  1.00  0.00    -0.277 N 
HETATM   10  C8  UNL     1     -11.027  20.134 -17.354  1.00  0.00     0.076 A 
HETATM   11  C7  UNL     1     -11.947  20.568 -16.325  1.00  0.00     0.124 C 
HETATM   12  C9  UNL     1     -10.711  20.660 -18.571  1.00  0.00     0.007 A 
HETATM   13  C10 UNL     1      -9.702  19.889 -19.119  1.00  0.00     0.124 A 
HETATM   14  C26 UNL     1     -11.216  21.779 -19.402  1.00  0.00     0.063 C 
HETATM   15  N3  UNL     1      -9.463  18.948 -18.220  1.00  0.00    -0.292 N 
HETATM   16  C24 UNL     1      -9.099  20.173 -20.436  1.00  0.00     0.270 C 
ATOM     17  H3  UNL     1      -8.759  18.220 -18.345  1.00  0.00     0.187 HD
HETATM   18  O3  UNL     1      -8.188  19.458 -20.899  1.00  0.00    -0.266 OA
HETATM   19  N7  UNL     1      -9.596  21.291 -21.152  1.00  0.00    -0.355 N 
HETATM   20  C25 UNL     1     -10.956  21.664 -20.867  1.00  0.00     0.128 C 
ATOM     21  H7  UNL     1      -9.026  21.799 -21.827  1.00  0.00     0.162 HD
BRANCH  11  22
HETATM   22  N2  UNL     1     -13.196  21.133 -16.593  1.00  0.00    -0.337 N 
BRANCH  22  23
HETATM   23  C6  UNL     1     -14.429  20.509 -16.389  1.00  0.00     0.156 C 
BRANCH  23  24
HETATM   24  C4  UNL     1     -15.402  20.481 -15.319  1.00  0.00     0.208 C 
BRANCH  24  25
HETATM   25  C3  UNL     1     -14.822  21.289 -14.101  1.00  0.00     0.049 C 
BRANCH  25  26
HETATM   26  C2  UNL     1     -14.129  20.357 -13.161  1.00  0.00    -0.002 C 
HETATM   27  C1  UNL     1     -14.705  20.489 -11.766  1.00  0.00     0.005 C 
ENDBRANCH  25  26
ENDBRANCH  24  25
BRANCH  24  28
HETATM   28  N1  UNL     1     -16.662  21.086 -15.600  1.00  0.00    -0.061 N 
ATOM     29  H13 UNL     1     -16.610  22.092 -15.763  1.00  0.00     0.275 HD
ATOM     30  H12 UNL     1     -17.043  20.839 -16.513  1.00  0.00     0.275 HD
ATOM     31  H11 UNL     1     -17.263  20.825 -14.818  1.00  0.00     0.275 HD
ENDBRANCH  24  28
BRANCH  24  32
HETATM   32  C5  UNL     1     -15.640  19.114 -14.714  1.00  0.00     0.211 C 
BRANCH  32  33
HETATM   33  O1  UNL     1     -16.677  18.475 -15.384  1.00  0.00    -0.398 OA
ATOM     34  H1  UNL     1     -16.330  17.975 -16.114  1.00  0.00     0.209 HD
ENDBRANCH  32  33
ENDBRANCH  24  32
ENDBRANCH  23  24
BRANCH  23  35
HETATM   35  O2  UNL     1     -14.802  19.755 -17.405  1.00  0.00    -0.347 OA
ATOM     36  H2  UNL     1     -15.106  20.280 -18.136  1.00  0.00     0.219 HD
ENDBRANCH  23  35
ENDBRANCH  22  23
BRANCH  22  37
HETATM   37  C27 UNL     1     -13.240  22.441 -17.240  1.00  0.00     0.135 C 
BRANCH  37  38
HETATM   38  C28 UNL     1     -14.513  23.147 -17.349  1.00  0.00     0.004 A 
HETATM   39  C29 UNL     1     -14.804  24.479 -17.852  1.00  0.00     0.007 A 
HETATM   40  C30 UNL     1     -15.093  23.318 -18.749  1.00  0.00     0.007 A 
ENDBRANCH  37  38
ENDBRANCH  22  37
ENDBRANCH  11  22
ENDBRANCH   4   9
BRANCH   7  41
HETATM   41  C16 UNL     1      -8.983  14.992 -14.816  1.00  0.00     0.223 C 
HETATM   42  C17 UNL     1      -8.193  14.768 -16.088  1.00  0.00     0.036 C 
HETATM   43  C18 UNL     1      -7.037  15.736 -16.196  1.00  0.00     0.002 C 
HETATM   44  C19 UNL     1      -5.850  15.318 -15.398  1.00  0.00     0.000 C 
HETATM   45  C20 UNL     1      -5.977  13.957 -14.784  1.00  0.00     0.000 C 
HETATM   46  C21 UNL     1      -7.084  13.834 -13.785  1.00  0.00     0.002 C 
HETATM   47  C22 UNL     1      -7.978  15.023 -13.684  1.00  0.00     0.036 C 
ENDBRANCH   7  41
ENDBRANCH   1   4
TORSDOF 14
ENDMDL
MODEL 2
REMARK VINA RESULT: -9.015871606      2.494      8.132
REMARK  14 active torsions:
REMARK  status: ('A' for Active; 'I' for Inactive)
REMARK    1  A    between atoms: C2_2  and  C3_3 
REMARK    2  A    between atoms: C3_3  and  C4_4 
REMARK    3  A    between atoms: C4_4  and  N1_5 
REMARK    4  A    between atoms: C4_4  and  C5_9 
REMARK    5  A    between atoms: C4_4  and  C6_12 
REMARK    6  A    between atoms: C5_9  and  O1_10 
REMARK    7  A    between atoms: C6_12  and  O2_13 
REMARK    8  A    between atoms: C6_12  and  N2_15 
REMARK    9  A    between atoms: N2_15  and  C7_16 
REMARK   10  A    between atoms: N2_15  and  C27_44 
REMARK   11  A    between atoms: N4_22  and  C11_23 
REMARK   12  A    between atoms: C11_23  and  C12_24 
REMARK   13  A    between atoms: N6_29  and  C16_30 
REMARK   14  A    between atoms: C27_44  and  C28_45 
ROOT
HETATM    1  C12 UNL     1     -11.757  20.236 -15.202  1.00  0.00     0.159 C 
HETATM    2  C13 UNL     1     -11.767  21.594 -15.689  1.00  0.00     0.061 C 
HETATM    3  N5  UNL     1     -11.773  22.687 -16.061  1.00  0.00    -0.197 NA
ENDROOT
BRANCH   1   4
HETATM    4  C11 UNL     1     -12.391  19.359 -16.342  1.00  0.00     0.094 C 
HETATM    5  C14 UNL     1     -12.621  18.057 -15.685  1.00  0.00     0.066 C 
HETATM    6  C15 UNL     1     -14.063  18.184 -15.177  1.00  0.00     0.275 C 
HETATM    7  N6  UNL     1     -14.342  19.608 -15.197  1.00  0.00     0.095 N 
HETATM    8  C23 UNL     1     -13.722  19.989 -16.485  1.00  0.00     0.306 C 
BRANCH   4   9
HETATM    9  N4  UNL     1     -11.488  19.413 -17.441  1.00  0.00    -0.277 N 
HETATM   10  C8  UNL     1     -10.427  18.588 -17.746  1.00  0.00     0.076 A 
HETATM   11  C7  UNL     1     -10.131  17.431 -16.930  1.00  0.00     0.124 C 
HETATM   12  C9  UNL     1      -9.873  19.051 -18.902  1.00  0.00     0.007 A 
HETATM   13  C10 UNL     1     -10.595  20.159 -19.306  1.00  0.00     0.124 A 
HETATM   14  C26 UNL     1      -8.709  18.676 -19.739  1.00  0.00     0.063 C 
HETATM   15  N3  UNL     1     -11.536  20.310 -18.388  1.00  0.00    -0.292 N 
HETATM   16  C24 UNL     1     -10.282  20.917 -20.533  1.00  0.00     0.270 C 
ATOM     17  H3  UNL     1     -12.232  21.055 -18.416  1.00  0.00     0.187 HD
HETATM   18  O3  UNL     1     -10.957  21.911 -20.870  1.00  0.00    -0.266 OA
HETATM   19  N7  UNL     1      -9.186  20.470 -21.313  1.00  0.00    -0.355 N 
HETATM   20  C25 UNL     1      -8.156  19.763 -20.601  1.00  0.00     0.128 C 
ATOM     21  H7  UNL     1      -9.131  20.640 -22.317  1.00  0.00     0.162 HD
BRANCH  11  22
HETATM   22  N2  UNL     1      -8.836  16.963 -16.694  1.00  0.00    -0.337 N 
BRANCH  22  23
HETATM   23  C6  UNL     1      -8.062  16.231 -17.598  1.00  0.00     0.156 C 
BRANCH  23  24
HETATM   24  C4  UNL     1      -6.718  16.339 -18.123  1.00  0.00     0.208 C 
BRANCH  24  25
HETATM   25  C3  UNL     1      -6.649  15.542 -19.476  1.00  0.00     0.049 C 
BRANCH  25  26
HETATM   26  C2  UNL     1      -5.993  16.382 -20.524  1.00  0.00    -0.002 C 
HETATM   27  C1  UNL     1      -6.722  16.243 -21.844  1.00  0.00     0.005 C 
ENDBRANCH  25  26
ENDBRANCH  24  25
BRANCH  24  28
HETATM   28  N1  UNL     1      -6.272  17.655 -18.443  1.00  0.00    -0.061 N 
ATOM     29  H13 UNL     1      -5.949  17.758 -19.405  1.00  0.00     0.275 HD
ATOM     30  H12 UNL     1      -7.023  18.343 -18.496  1.00  0.00     0.275 HD
ATOM     31  H11 UNL     1      -5.562  17.873 -17.744  1.00  0.00     0.275 HD
ENDBRANCH  24  28
BRANCH  24  32
HETATM   32  C5  UNL     1      -5.656  15.652 -17.290  1.00  0.00     0.211 C 
BRANCH  32  33
HETATM   33  O1  UNL     1      -6.236  14.659 -16.511  1.00  0.00    -0.398 OA
ATOM     34  H1  UNL     1      -5.770  13.840 -16.632  1.00  0.00     0.209 HD
ENDBRANCH  32  33
ENDBRANCH  24  32
ENDBRANCH  23  24
BRANCH  23  35
HETATM   35  O2  UNL     1      -8.701  15.197 -18.109  1.00  0.00    -0.347 OA
ATOM     36  H2  UNL     1      -8.318  14.375 -17.828  1.00  0.00     0.219 HD
ENDBRANCH  23  35
ENDBRANCH  22  23
BRANCH  22  37
HETATM   37  C27 UNL     1      -8.263  17.148 -15.365  1.00  0.00     0.135 C 
BRANCH  37  38
HETATM   38  C28 UNL     1      -8.842  16.442 -14.227  1.00  0.00     0.004 A 
HETATM   39  C29 UNL     1      -9.529  15.163 -14.171  1.00  0.00     0.007 A 
HETATM   40  C30 UNL     1      -8.101  15.205 -13.729  1.00  0.00     0.007 A 
ENDBRANCH  37  38
ENDBRANCH  22  37
ENDBRANCH  11  22
ENDBRANCH   4   9
BRANCH   7  41
HETATM   41  C16 UNL     1     -15.742  19.905 -15.197  1.00  0.00     0.223 C 
HETATM   42  C17 UNL     1     -16.291  19.740 -13.796  1.00  0.00     0.036 C 
HETATM   43  C18 UNL     1     -15.740  20.793 -12.861  1.00  0.00     0.002 C 
HETATM   44  C19 UNL     1     -16.447  22.099 -12.973  1.00  0.00     0.000 C 
HETATM   45  C20 UNL     1     -17.654  22.065 -13.861  1.00  0.00     0.000 C 
HETATM   46  C21 UNL     1     -17.355  21.749 -15.293  1.00  0.00     0.002 C 
HETATM   47  C22 UNL     1     -15.943  21.358 -15.571  1.00  0.00     0.036 C 
ENDBRANCH   7  41
ENDBRANCH   1   4
TORSDOF 14
ENDMDL
MODEL 3
REMARK VINA RESULT: -8.681210263      2.166      5.088
REMARK  14 active torsions:
REMARK  status: ('A' for Active; 'I' for Inactive)
REMARK    1  A    between atoms: C2_2  and  C3_3 
REMARK    2  A    between atoms: C3_3  and  C4_4 
REMARK    3  A    between atoms: C4_4  and  N1_5 
REMARK    4  A    between atoms: C4_4  and  C5_9 
REMARK    5  A    between atoms: C4_4  and  C6_12 
REMARK    6  A    between atoms: C5_9  and  O1_10 
REMARK    7  A    between atoms: C6_12  and  O2_13 
REMARK    8  A    between atoms: C6_12  and  N2_15 
REMARK    9  A    between atoms: N2_15  and  C7_16 
REMARK   10  A    between atoms: N2_15  and  C27_44 
REMARK   11  A    between atoms: N4_22  and  C11_23 
REMARK   12  A    between atoms: C11_23  and  C12_24 
REMARK   13  A    between atoms: N6_29  and  C16_30 
REMARK   14  A    between atoms: C27_44  and  C28_45 
ROOT
HETATM    1  C12 UNL     1     -10.146  19.535 -15.290  1.00  0.00     0.159 C 
HETATM    2  C13 UNL     1     -10.652  20.861 -15.551  1.00  0.00     0.061 C 
HETATM    3  N5  UNL     1     -11.043  21.929 -15.748  1.00  0.00    -0.197 NA
ENDROOT
BRANCH   1   4
HETATM    4  C11 UNL     1     -11.306  18.544 -15.666  1.00  0.00     0.094 C 
HETATM    5  C14 UNL     1     -11.079  18.281 -17.101  1.00  0.00     0.066 C 
HETATM    6  C15 UNL     1     -10.203  17.021 -17.079  1.00  0.00     0.275 C 
HETATM    7  N6  UNL     1      -9.680  16.953 -15.727  1.00  0.00     0.095 N 
HETATM    8  C23 UNL     1     -10.884  17.320 -14.951  1.00  0.00     0.306 C 
BRANCH   4   9
HETATM    9  N4  UNL     1     -12.520  19.179 -15.278  1.00  0.00    -0.277 N 
HETATM   10  C8  UNL     1     -13.455  19.832 -16.051  1.00  0.00     0.076 A 
HETATM   11  C7  UNL     1     -13.312  19.894 -17.489  1.00  0.00     0.124 C 
HETATM   12  C9  UNL     1     -14.440  20.265 -15.215  1.00  0.00     0.007 A 
HETATM   13  C10 UNL     1     -14.111  19.874 -13.930  1.00  0.00     0.124 A 
HETATM   14  C26 UNL     1     -15.686  21.054 -15.370  1.00  0.00     0.063 C 
HETATM   15  N3  UNL     1     -12.958  19.236 -14.050  1.00  0.00    -0.292 N 
HETATM   16  C24 UNL     1     -14.962  20.166 -12.759  1.00  0.00     0.270 C 
ATOM     17  H3  UNL     1     -12.460  18.828 -13.259  1.00  0.00     0.187 HD
HETATM   18  O3  UNL     1     -14.636  19.796 -11.613  1.00  0.00    -0.266 OA
HETATM   19  N7  UNL     1     -16.165  20.880 -12.990  1.00  0.00    -0.355 N 
HETATM   20  C25 UNL     1     -16.170  21.745 -14.139  1.00  0.00     0.128 C 
ATOM     21  H7  UNL     1     -16.976  20.786 -12.380  1.00  0.00     0.162 HD
BRANCH  11  22
HETATM   22  N2  UNL     1     -13.717  20.988 -18.259  1.00  0.00    -0.337 N 
BRANCH  22  23
HETATM   23  C6  UNL     1     -15.038  21.396 -18.455  1.00  0.00     0.156 C 
BRANCH  23  24
HETATM   24  C4  UNL     1     -15.733  22.665 -18.454  1.00  0.00     0.208 C 
BRANCH  24  25
HETATM   25  C3  UNL     1     -15.699  23.250 -19.912  1.00  0.00     0.049 C 
BRANCH  25  26
HETATM   26  C2  UNL     1     -15.692  24.744 -19.857  1.00  0.00    -0.002 C 
HETATM   27  C1  UNL     1     -16.919  25.303 -20.547  1.00  0.00     0.005 C 
ENDBRANCH  25  26
ENDBRANCH  24  25
BRANCH  24  28
HETATM   28  N1  UNL     1     -17.114  22.625 -18.101  1.00  0.00    -0.061 N 
ATOM     29  H13 UNL     1     -17.732  23.021 -18.810  1.00  0.00     0.275 HD
ATOM     30  H12 UNL     1     -17.514  21.687 -18.108  1.00  0.00     0.275 HD
ATOM     31  H11 UNL     1     -17.172  23.091 -17.196  1.00  0.00     0.275 HD
ENDBRANCH  24  28
BRANCH  24  32
HETATM   32  C5  UNL     1     -15.056  23.757 -17.652  1.00  0.00     0.211 C 
BRANCH  32  33
HETATM   33  O1  UNL     1     -15.894  24.180 -16.627  1.00  0.00    -0.398 OA
ATOM     34  H1  UNL     1     -15.674  25.069 -16.376  1.00  0.00     0.209 HD
ENDBRANCH  32  33
ENDBRANCH  24  32
ENDBRANCH  23  24
BRANCH  23  35
HETATM   35  O2  UNL     1     -15.861  20.392 -18.690  1.00  0.00    -0.347 OA
ATOM     36  H2  UNL     1     -16.151  20.383 -19.595  1.00  0.00     0.219 HD
ENDBRANCH  23  35
ENDBRANCH  22  23
BRANCH  22  37
HETATM   37  C27 UNL     1     -12.704  21.716 -19.016  1.00  0.00     0.135 C 
BRANCH  37  38
HETATM   38  C28 UNL     1     -11.717  20.975 -19.794  1.00  0.00     0.004 A 
HETATM   39  C29 UNL     1     -10.696  21.454 -20.711  1.00  0.00     0.007 A 
HETATM   40  C30 UNL     1     -10.265  21.059 -19.334  1.00  0.00     0.007 A 
ENDBRANCH  37  38
ENDBRANCH  22  37
ENDBRANCH  11  22
ENDBRANCH   4   9
BRANCH   7  41
HETATM   41  C16 UNL     1      -9.220  15.646 -15.370  1.00  0.00     0.223 C 
HETATM   42  C17 UNL     1      -8.291  15.128 -16.446  1.00  0.00     0.036 C 
HETATM   43  C18 UNL     1      -7.004  15.919 -16.492  1.00  0.00     0.002 C 
HETATM   44  C19 UNL     1      -6.021  15.495 -15.456  1.00  0.00     0.000 C 
HETATM   45  C20 UNL     1      -6.434  14.276 -14.688  1.00  0.00     0.000 C 
HETATM   46  C21 UNL     1      -7.682  14.449 -13.882  1.00  0.00     0.002 C 
HETATM   47  C22 UNL     1      -8.400  15.738 -14.100  1.00  0.00     0.036 C 
ENDBRANCH   7  41
ENDBRANCH   1   4
TORSDOF 14
ENDMDL
MODEL 4
REMARK VINA RESULT: -8.623349213      2.489      8.152
REMARK  14 active torsions:
REMARK  status: ('A' for Active; 'I' for Inactive)
REMARK    1  A    between atoms: C2_2  and  C3_3 
REMARK    2  A    between atoms: C3_3  and  C4_4 
REMARK    3  A    between atoms: C4_4  and  N1_5 
REMARK    4  A    between atoms: C4_4  and  C5_9 
REMARK    5  A    between atoms: C4_4  and  C6_12 
REMARK    6  A    between atoms: C5_9  and  O1_10 
REMARK    7  A    between atoms: C6_12  and  O2_13 
REMARK    8  A    between atoms: C6_12  and  N2_15 
REMARK    9  A    between atoms: N2_15  and  C7_16 
REMARK   10  A    between atoms: N2_15  and  C27_44 
REMARK   11  A    between atoms: N4_22  and  C11_23 
REMARK   12  A    between atoms: C11_23  and  C12_24 
REMARK   13  A    between atoms: N6_29  and  C16_30 
REMARK   14  A    between atoms: C27_44  and  C28_45 
ROOT
HETATM    1  C12 UNL     1     -11.637  20.504 -15.270  1.00  0.00     0.159 C 
HETATM    2  C13 UNL     1     -11.837  21.823 -15.818  1.00  0.00     0.061 C 
HETATM    3  N5  UNL     1     -11.996  22.886 -16.240  1.00  0.00    -0.197 NA
ENDROOT
BRANCH   1   4
HETATM    4  C11 UNL     1     -12.142  19.495 -16.365  1.00  0.00     0.094 C 
HETATM    5  C14 UNL     1     -12.386  18.256 -15.601  1.00  0.00     0.066 C 
HETATM    6  C15 UNL     1     -13.870  18.374 -15.230  1.00  0.00     0.275 C 
HETATM    7  N6  UNL     1     -14.191  19.776 -15.416  1.00  0.00     0.095 N 
HETATM    8  C23 UNL     1     -13.475  20.054 -16.679  1.00  0.00     0.306 C 
BRANCH   4   9
HETATM    9  N4  UNL     1     -11.149  19.478 -17.385  1.00  0.00    -0.277 N 
HETATM   10  C8  UNL     1     -10.123  18.583 -17.596  1.00  0.00     0.076 A 
HETATM   11  C7  UNL     1      -9.972  17.419 -16.750  1.00  0.00     0.124 C 
HETATM   12  C9  UNL     1      -9.446  18.996 -18.704  1.00  0.00     0.007 A 
HETATM   13  C10 UNL     1     -10.059  20.143 -19.174  1.00  0.00     0.124 A 
HETATM   14  C26 UNL     1      -8.244  18.537 -19.440  1.00  0.00     0.063 C 
HETATM   15  N3  UNL     1     -11.060  20.365 -18.338  1.00  0.00    -0.292 N 
HETATM   16  C24 UNL     1      -9.597  20.866 -20.376  1.00  0.00     0.270 C 
ATOM     17  H3  UNL     1     -11.701  21.153 -18.429  1.00  0.00     0.187 HD
HETATM   18  O3  UNL     1     -10.175  21.897 -20.773  1.00  0.00    -0.266 OA
HETATM   19  N7  UNL     1      -8.472  20.340 -21.059  1.00  0.00    -0.355 N 
HETATM   20  C25 UNL     1      -7.553  19.576 -20.259  1.00  0.00     0.128 C 
ATOM     21  H7  UNL     1      -8.323  20.494 -22.056  1.00  0.00     0.162 HD
BRANCH  11  22
HETATM   22  N2  UNL     1      -8.733  16.871 -16.405  1.00  0.00    -0.337 N 
BRANCH  22  23
HETATM   23  C6  UNL     1      -7.937  16.081 -17.237  1.00  0.00     0.156 C 
BRANCH  23  24
HETATM   24  C4  UNL     1      -6.521  15.804 -17.344  1.00  0.00     0.208 C 
BRANCH  24  25
HETATM   25  C3  UNL     1      -5.752  16.771 -16.373  1.00  0.00     0.049 C 
BRANCH  25  26
HETATM   26  C2  UNL     1      -4.666  16.023 -15.670  1.00  0.00    -0.002 C 
HETATM   27  C1  UNL     1      -3.307  16.516 -16.123  1.00  0.00     0.005 C 
ENDBRANCH  25  26
ENDBRANCH  24  25
BRANCH  24  28
HETATM   28  N1  UNL     1      -6.107  14.492 -16.968  1.00  0.00    -0.061 N 
ATOM     29  H13 UNL     1      -5.572  14.006 -17.688  1.00  0.00     0.275 HD
ATOM     30  H12 UNL     1      -5.380  14.479 -16.253  1.00  0.00     0.275 HD
ATOM     31  H11 UNL     1      -6.963  14.011 -16.694  1.00  0.00     0.275 HD
ENDBRANCH  24  28
BRANCH  24  32
HETATM   32  C5  UNL     1      -5.909  16.143 -18.687  1.00  0.00     0.211 C 
BRANCH  32  33
HETATM   33  O1  UNL     1      -6.351  15.242 -19.649  1.00  0.00    -0.398 OA
ATOM     34  H1  UNL     1      -7.298  15.185 -19.626  1.00  0.00     0.209 HD
ENDBRANCH  32  33
ENDBRANCH  24  32
ENDBRANCH  23  24
BRANCH  23  35
HETATM   35  O2  UNL     1      -8.629  15.434 -18.155  1.00  0.00    -0.347 OA
ATOM     36  H2  UNL     1      -9.559  15.444 -17.963  1.00  0.00     0.219 HD
ENDBRANCH  23  35
ENDBRANCH  22  23
BRANCH  22  37
HETATM   37  C27 UNL     1      -8.261  17.034 -15.034  1.00  0.00     0.135 C 
BRANCH  37  38
HETATM   38  C28 UNL     1      -8.731  16.120 -13.998  1.00  0.00     0.004 A 
HETATM   39  C29 UNL     1      -9.333  14.803 -14.115  1.00  0.00     0.007 A 
HETATM   40  C30 UNL     1      -7.888  14.876 -13.737  1.00  0.00     0.007 A 
ENDBRANCH  37  38
ENDBRANCH  22  37
ENDBRANCH  11  22
ENDBRANCH   4   9
BRANCH   7  41
HETATM   41  C16 UNL     1     -15.595  20.015 -15.561  1.00  0.00     0.223 C 
HETATM   42  C17 UNL     1     -16.308  19.611 -14.289  1.00  0.00     0.036 C 
HETATM   43  C18 UNL     1     -15.945  20.525 -13.140  1.00  0.00     0.002 C 
HETATM   44  C19 UNL     1     -16.707  21.805 -13.149  1.00  0.00     0.000 C 
HETATM   45  C20 UNL     1     -17.786  21.864 -14.188  1.00  0.00     0.000 C 
HETATM   46  C21 UNL     1     -17.287  21.787 -15.596  1.00  0.00     0.002 C 
HETATM   47  C22 UNL     1     -15.831  21.500 -15.736  1.00  0.00     0.036 C 
ENDBRANCH   7  41
ENDBRANCH   1   4
TORSDOF 14
ENDMDL
MODEL 5
REMARK VINA RESULT: -8.396140058      1.273      2.878
REMARK  14 active torsions:
REMARK  status: ('A' for Active; 'I' for Inactive)
REMARK    1  A    between atoms: C2_2  and  C3_3 
REMARK    2  A    between atoms: C3_3  and  C4_4 
REMARK    3  A    between atoms: C4_4  and  N1_5 
REMARK    4  A    between atoms: C4_4  and  C5_9 
REMARK    5  A    between atoms: C4_4  and  C6_12 
REMARK    6  A    between atoms: C5_9  and  O1_10 
REMARK    7  A    between atoms: C6_12  and  O2_13 
REMARK    8  A    between atoms: C6_12  and  N2_15 
REMARK    9  A    between atoms: N2_15  and  C7_16 
REMARK   10  A    between atoms: N2_15  and  C27_44 
REMARK   11  A    between atoms: N4_22  and  C11_23 
REMARK   12  A    between atoms: C11_23  and  C12_24 
REMARK   13  A    between atoms: N6_29  and  C16_30 
REMARK   14  A    between atoms: C27_44  and  C28_45 
ROOT
HETATM    1  C12 UNL     1     -11.464  17.582 -15.452  1.00  0.00     0.159 C 
HETATM    2  C13 UNL     1     -12.253  17.279 -16.621  1.00  0.00     0.061 C 
HETATM    3  N5  UNL     1     -12.898  17.028 -17.546  1.00  0.00    -0.197 NA
ENDROOT
BRANCH   1   4
HETATM    4  C11 UNL     1     -10.038  17.980 -15.981  1.00  0.00     0.094 C 
HETATM    5  C14 UNL     1      -9.332  18.419 -14.762  1.00  0.00     0.066 C 
HETATM    6  C15 UNL     1      -8.640  17.133 -14.290  1.00  0.00     0.275 C 
HETATM    7  N6  UNL     1      -9.332  16.062 -14.981  1.00  0.00     0.095 N 
HETATM    8  C23 UNL     1      -9.478  16.656 -16.327  1.00  0.00     0.306 C 
BRANCH   4   9
HETATM    9  N4  UNL     1     -10.246  18.929 -17.022  1.00  0.00    -0.277 N 
HETATM   10  C8  UNL     1     -11.179  19.938 -17.117  1.00  0.00     0.076 A 
HETATM   11  C7  UNL     1     -12.098  20.199 -16.031  1.00  0.00     0.124 C 
HETATM   12  C9  UNL     1     -10.970  20.574 -18.304  1.00  0.00     0.007 A 
HETATM   13  C10 UNL     1      -9.906  19.956 -18.936  1.00  0.00     0.124 A 
HETATM   14  C26 UNL     1     -11.625  21.683 -19.038  1.00  0.00     0.063 C 
HETATM   15  N3  UNL     1      -9.531  18.990 -18.113  1.00  0.00    -0.292 N 
HETATM   16  C24 UNL     1      -9.390  20.391 -20.249  1.00  0.00     0.270 C 
ATOM     17  H3  UNL     1      -8.759  18.354 -18.311  1.00  0.00     0.187 HD
HETATM   18  O3  UNL     1      -8.427  19.812 -20.790  1.00  0.00    -0.266 OA
HETATM   19  N7  UNL     1     -10.033  21.492 -20.869  1.00  0.00    -0.355 N 
HETATM   20  C25 UNL     1     -11.412  21.694 -20.515  1.00  0.00     0.128 C 
ATOM     21  H7  UNL     1      -9.547  22.103 -21.525  1.00  0.00     0.162 HD
BRANCH  11  22
HETATM   22  N2  UNL     1     -13.411  20.640 -16.219  1.00  0.00    -0.337 N 
BRANCH  22  23
HETATM   23  C6  UNL     1     -13.787  21.939 -16.567  1.00  0.00     0.156 C 
BRANCH  23  24
HETATM   24  C4  UNL     1     -14.913  22.534 -17.255  1.00  0.00     0.208 C 
BRANCH  24  25
HETATM   25  C3  UNL     1     -14.572  24.039 -17.553  1.00  0.00     0.049 C 
BRANCH  25  26
HETATM   26  C2  UNL     1     -15.314  24.493 -18.768  1.00  0.00    -0.002 C 
HETATM   27  C1  UNL     1     -16.136  25.727 -18.454  1.00  0.00     0.005 C 
ENDBRANCH  25  26
ENDBRANCH  24  25
BRANCH  24  28
HETATM   28  N1  UNL     1     -15.245  21.969 -18.521  1.00  0.00    -0.061 N 
ATOM     29  H13 UNL     1     -15.121  22.611 -19.304  1.00  0.00     0.275 HD
ATOM     30  H12 UNL     1     -14.585  21.262 -18.843  1.00  0.00     0.275 HD
ATOM     31  H11 UNL     1     -16.199  21.625 -18.417  1.00  0.00     0.275 HD
ENDBRANCH  24  28
BRANCH  24  32
HETATM   32  C5  UNL     1     -16.174  22.647 -16.424  1.00  0.00     0.211 C 
BRANCH  32  33
HETATM   33  O1  UNL     1     -15.863  23.117 -15.154  1.00  0.00    -0.398 OA
ATOM     34  H1  UNL     1     -16.459  23.816 -14.914  1.00  0.00     0.209 HD
ENDBRANCH  32  33
ENDBRANCH  24  32
ENDBRANCH  23  24
BRANCH  23  35
HETATM   35  O2  UNL     1     -12.910  22.850 -16.194  1.00  0.00    -0.347 OA
ATOM     36  H2  UNL     1     -12.041  22.656 -16.526  1.00  0.00     0.219 HD
ENDBRANCH  23  35
ENDBRANCH  22  23
BRANCH  22  37
HETATM   37  C27 UNL     1     -14.501  19.714 -15.930  1.00  0.00     0.135 C 
BRANCH  37  38
HETATM   38  C28 UNL     1     -14.790  19.352 -14.546  1.00  0.00     0.004 A 
HETATM   39  C29 UNL     1     -14.928  20.193 -13.368  1.00  0.00     0.007 A 
HETATM   40  C30 UNL     1     -16.179  19.693 -14.016  1.00  0.00     0.007 A 
ENDBRANCH  37  38
ENDBRANCH  22  37
ENDBRANCH  11  22
ENDBRANCH   4   9
BRANCH   7  41
HETATM   41  C16 UNL     1      -8.574  14.850 -15.037  1.00  0.00     0.223 C 
HETATM   42  C17 UNL     1      -7.760  14.823 -16.313  1.00  0.00     0.036 C 
HETATM   43  C18 UNL     1      -6.677  15.878 -16.298  1.00  0.00     0.002 C 
HETATM   44  C19 UNL     1      -5.469  15.463 -15.532  1.00  0.00     0.000 C 
HETATM   45  C20 UNL     1      -5.500  14.037 -15.070  1.00  0.00     0.000 C 
HETATM   46  C21 UNL     1      -6.603  13.727 -14.107  1.00  0.00     0.002 C 
HETATM   47  C22 UNL     1      -7.582  14.830 -13.892  1.00  0.00     0.036 C 
ENDBRANCH   7  41
ENDBRANCH   1   4
TORSDOF 14
ENDMDL
