MODEL 1
REMARK VINA RESULT: -8.635372723      0.000      0.000
REMARK  14 active torsions:
REMARK  status: ('A' for Active; 'I' for Inactive)
REMARK    1  A    between atoms: C4_4  and  C5_5 
REMARK    2  A    between atoms: C5_5  and  N1_6 
REMARK    3  A    between atoms: C5_5  and  C6_10 
REMARK    4  A    between atoms: N1_6  and  O1_8 
REMARK    5  A    between atoms: C10_14  and  C11_15 
REMARK    6  A    between atoms: C11_15  and  C12_16 
REMARK    7  A    between atoms: C12_16  and  C13_17 
REMARK    8  A    between atoms: C12_16  and  N3_26 
REMARK       I    between atoms: C13_17  and  N2_19 
REMARK    9  A    between atoms: N2_19  and  C14_21 
REMARK   10  A    between atoms: C14_21  and  C15_22 
REMARK   11  A    between atoms: C15_22  and  C16_23 
REMARK   12  A    between atoms: C16_23  and  O3_24 
REMARK   13  A    between atoms: C18_30  and  C19_31 
REMARK       I    between atoms: C19_31  and  N5_33 
REMARK   14  A    between atoms: N6_37  and  C23_38 
ROOT
HETATM    1  C12 UNL     1     -12.645  19.618 -15.875  1.00  0.00     0.182 C 
ENDROOT
BRANCH   1   2
HETATM    2  C11 UNL     1     -11.748  19.057 -14.806  1.00  0.00     0.040 C 
BRANCH   2   3
HETATM    3  C10 UNL     1     -10.446  18.515 -15.362  1.00  0.00    -0.012 C 
HETATM    4  C9  UNL     1      -9.441  18.608 -14.248  1.00  0.00     0.005 C 
HETATM    5  C8  UNL     1      -8.251  17.734 -14.438  1.00  0.00     0.001 C 
HETATM    6  C7  UNL     1      -8.783  16.295 -14.516  1.00  0.00     0.010 C 
HETATM    7  C6  UNL     1      -9.528  16.189 -15.800  1.00  0.00     0.034 C 
HETATM    8  C29 UNL     1     -10.707  17.117 -15.827  1.00  0.00     0.015 C 
BRANCH   7   9
HETATM    9  C5  UNL     1      -8.678  16.299 -16.997  1.00  0.00     0.018 C 
BRANCH   9  10
HETATM   10  C4  UNL     1      -7.409  15.595 -17.146  1.00  0.00     0.038 A 
HETATM   11  C2  UNL     1      -6.136  16.223 -16.774  1.00  0.00    -0.008 A 
HETATM   12  C1  UNL     1      -5.126  15.347 -16.051  1.00  0.00     0.011 C 
HETATM   13  C3  UNL     1      -6.439  15.873 -18.229  1.00  0.00     0.016 A 
ENDBRANCH   9  10
BRANCH   9  14
HETATM   14  N1  UNL     1      -9.098  17.063 -17.954  1.00  0.00    -0.277 N 
ATOM     15  H1  UNL     1      -9.817  16.693 -18.577  1.00  0.00     0.193 HD
BRANCH  14  16
HETATM   16  O1  UNL     1      -8.648  18.325 -18.186  1.00  0.00    -0.290 OA
ATOM     17  H1  UNL     1      -8.923  18.869 -18.915  1.00  0.00     0.244 HD
ENDBRANCH  14  16
ENDBRANCH   9  14
ENDBRANCH   7   9
ENDBRANCH   2   3
ENDBRANCH   1   2
BRANCH   1  18
HETATM   18  C13 UNL     1     -11.883  20.484 -16.802  1.00  0.00     0.240 C 
HETATM   19  O2  UNL     1     -11.560  21.654 -16.454  1.00  0.00    -0.271 OA
HETATM   20  N2  UNL     1     -11.482  20.060 -18.096  1.00  0.00    -0.359 N 
ATOM     21  H2  UNL     1     -11.729  19.119 -18.402  1.00  0.00     0.162 HD
BRANCH  20  22
HETATM   22  C14 UNL     1     -10.737  20.910 -18.994  1.00  0.00     0.125 C 
BRANCH  22  23
HETATM   23  C15 UNL     1     -10.992  20.589 -20.435  1.00  0.00     0.046 C 
BRANCH  23  24
HETATM   24  C16 UNL     1     -10.289  19.284 -20.767  1.00  0.00     0.165 C 
BRANCH  24  25
HETATM   25  O3  UNL     1     -10.913  18.202 -20.145  1.00  0.00    -0.401 OA
ATOM     26  H3  UNL     1     -10.358  17.826 -19.472  1.00  0.00     0.209 HD
ENDBRANCH  24  25
ENDBRANCH  23  24
ENDBRANCH  22  23
ENDBRANCH  20  22
ENDBRANCH   1  18
BRANCH   1  27
HETATM   27  N3  UNL     1     -13.737  20.355 -15.243  1.00  0.00    -0.337 N 
HETATM   28  C17 UNL     1     -13.744  20.822 -13.979  1.00  0.00     0.184 A 
HETATM   29  N4  UNL     1     -14.935  21.421 -13.845  1.00  0.00    -0.347 N 
HETATM   30  C18 UNL     1     -15.674  21.365 -14.933  1.00  0.00     0.117 A 
ATOM     31  H4  UNL     1     -15.239  21.876 -12.984  1.00  0.00     0.167 HD
HETATM   32  C28 UNL     1     -14.893  20.662 -15.866  1.00  0.00     0.128 A 
BRANCH  30  33
HETATM   33  C19 UNL     1     -17.005  21.871 -15.229  1.00  0.00     0.271 C 
HETATM   34  O4  UNL     1     -18.005  21.518 -14.516  1.00  0.00    -0.266 OA
HETATM   35  N5  UNL     1     -17.194  22.759 -16.310  1.00  0.00    -0.345 N 
HETATM   36  C20 UNL     1     -16.113  23.183 -17.134  1.00  0.00     0.128 C 
HETATM   37  C27 UNL     1     -18.603  23.172 -16.465  1.00  0.00     0.156 C 
HETATM   38  C21 UNL     1     -16.631  24.078 -18.251  1.00  0.00     0.050 C 
HETATM   39  C22 UNL     1     -17.027  25.435 -17.742  1.00  0.00     0.274 C 
HETATM   40  N6  UNL     1     -18.393  25.480 -17.278  1.00  0.00     0.094 N 
HETATM   41  C26 UNL     1     -18.637  24.651 -16.138  1.00  0.00     0.292 C 
BRANCH  40  42
HETATM   42  C23 UNL     1     -18.810  26.815 -17.000  1.00  0.00     0.223 A 
HETATM   43  C24 UNL     1     -20.031  27.289 -17.748  1.00  0.00     0.038 A 
HETATM   44  C25 UNL     1     -20.035  27.155 -16.261  1.00  0.00     0.038 A 
ENDBRANCH  40  42
ENDBRANCH  30  33
ENDBRANCH   1  27
TORSDOF 14
ENDMDL
MODEL 2
REMARK VINA RESULT: -8.586053452      1.899      2.540
REMARK  14 active torsions:
REMARK  status: ('A' for Active; 'I' for Inactive)
REMARK    1  A    between atoms: C4_4  and  C5_5 
REMARK    2  A    between atoms: C5_5  and  N1_6 
REMARK    3  A    between atoms: C5_5  and  C6_10 
REMARK    4  A    between atoms: N1_6  and  O1_8 
REMARK    5  A    between atoms: C10_14  and  C11_15 
REMARK    6  A    between atoms: C11_15  and  C12_16 
REMARK    7  A    between atoms: C12_16  and  C13_17 
REMARK    8  A    between atoms: C12_16  and  N3_26 
REMARK       I    between atoms: C13_17  and  N2_19 
REMARK    9  A    between atoms: N2_19  and  C14_21 
REMARK   10  A    between atoms: C14_21  and  C15_22 
REMARK   11  A    between atoms: C15_22  and  C16_23 
REMARK   12  A    between atoms: C16_23  and  O3_24 
REMARK   13  A    between atoms: C18_30  and  C19_31 
REMARK       I    between atoms: C19_31  and  N5_33 
REMARK   14  A    between atoms: N6_37  and  C23_38 
ROOT
HETATM    1  C12 UNL     1     -12.063  19.427 -17.124  1.00  0.00     0.182 C 
ENDROOT
BRANCH   1   2
HETATM    2  C11 UNL     1     -11.330  19.481 -15.811  1.00  0.00     0.040 C 
BRANCH   2   3
HETATM    3  C10 UNL     1     -10.049  18.671 -15.826  1.00  0.00    -0.012 C 
HETATM    4  C9  UNL     1      -9.545  18.653 -14.409  1.00  0.00     0.005 C 
HETATM    5  C8  UNL     1      -8.570  17.562 -14.132  1.00  0.00     0.001 C 
HETATM    6  C7  UNL     1      -9.305  16.245 -14.421  1.00  0.00     0.010 C 
HETATM    7  C6  UNL     1      -9.510  16.191 -15.894  1.00  0.00     0.034 C 
HETATM    8  C29 UNL     1     -10.383  17.317 -16.367  1.00  0.00     0.015 C 
BRANCH   7   9
HETATM    9  C5  UNL     1      -8.266  16.060 -16.670  1.00  0.00     0.018 C 
BRANCH   9  10
HETATM   10  C4  UNL     1      -6.947  15.953 -16.055  1.00  0.00     0.038 A 
HETATM   11  C2  UNL     1      -5.761  15.593 -16.843  1.00  0.00    -0.008 A 
HETATM   12  C1  UNL     1      -4.482  16.357 -16.541  1.00  0.00     0.011 C 
HETATM   13  C3  UNL     1      -6.286  14.665 -15.750  1.00  0.00     0.016 A 
ENDBRANCH   9  10
BRANCH   9  14
HETATM   14  N1  UNL     1      -8.370  16.038 -17.959  1.00  0.00    -0.277 N 
ATOM     15  H1  UNL     1      -8.214  16.911 -18.464  1.00  0.00     0.193 HD
BRANCH  14  16
HETATM   16  O1  UNL     1      -8.674  14.931 -18.689  1.00  0.00    -0.290 OA
ATOM     17  H1  UNL     1      -9.330  14.903 -19.375  1.00  0.00     0.244 HD
ENDBRANCH  14  16
ENDBRANCH   9  14
ENDBRANCH   7   9
ENDBRANCH   2   3
ENDBRANCH   1   2
BRANCH   1  18
HETATM   18  C13 UNL     1     -11.477  20.377 -18.095  1.00  0.00     0.240 C 
HETATM   19  O2  UNL     1     -11.412  21.606 -17.817  1.00  0.00    -0.271 OA
HETATM   20  N2  UNL     1     -10.968  19.970 -19.356  1.00  0.00    -0.359 N 
ATOM     21  H2  UNL     1     -11.008  18.982 -19.606  1.00  0.00     0.162 HD
BRANCH  20  22
HETATM   22  C14 UNL     1     -10.397  20.902 -20.299  1.00  0.00     0.125 C 
BRANCH  22  23
HETATM   23  C15 UNL     1      -8.938  20.659 -20.538  1.00  0.00     0.046 C 
BRANCH  23  24
HETATM   24  C16 UNL     1      -8.647  19.192 -20.268  1.00  0.00     0.165 C 
BRANCH  24  25
HETATM   25  O3  UNL     1      -8.289  18.986 -18.935  1.00  0.00    -0.401 OA
ATOM     26  H3  UNL     1      -8.087  18.073 -18.771  1.00  0.00     0.209 HD
ENDBRANCH  24  25
ENDBRANCH  23  24
ENDBRANCH  22  23
ENDBRANCH  20  22
ENDBRANCH   1  18
BRANCH   1  27
HETATM   27  N3  UNL     1     -13.477  19.716 -16.891  1.00  0.00    -0.337 N 
HETATM   28  C17 UNL     1     -14.426  19.823 -17.841  1.00  0.00     0.184 A 
HETATM   29  N4  UNL     1     -15.552  20.092 -17.167  1.00  0.00    -0.347 N 
HETATM   30  C18 UNL     1     -15.378  20.161 -15.864  1.00  0.00     0.117 A 
ATOM     31  H4  UNL     1     -16.456  20.230 -17.618  1.00  0.00     0.167 HD
HETATM   32  C28 UNL     1     -14.009  19.914 -15.667  1.00  0.00     0.128 A 
BRANCH  30  33
HETATM   33  C19 UNL     1     -16.304  20.425 -14.773  1.00  0.00     0.271 C 
HETATM   34  O4  UNL     1     -16.222  19.766 -13.681  1.00  0.00    -0.266 OA
HETATM   35  N5  UNL     1     -17.299  21.416 -14.920  1.00  0.00    -0.345 N 
HETATM   36  C20 UNL     1     -17.431  22.178 -16.116  1.00  0.00     0.128 C 
HETATM   37  C27 UNL     1     -18.147  21.551 -13.720  1.00  0.00     0.156 C 
HETATM   38  C21 UNL     1     -18.627  23.114 -16.005  1.00  0.00     0.050 C 
HETATM   39  C22 UNL     1     -18.353  24.262 -15.076  1.00  0.00     0.274 C 
HETATM   40  N6  UNL     1     -18.662  23.952 -13.701  1.00  0.00     0.094 N 
HETATM   41  C26 UNL     1     -17.839  22.920 -13.150  1.00  0.00     0.292 C 
BRANCH  40  42
HETATM   42  C23 UNL     1     -18.598  25.112 -12.873  1.00  0.00     0.223 A 
HETATM   43  C24 UNL     1     -19.832  25.402 -12.056  1.00  0.00     0.038 A 
HETATM   44  C25 UNL     1     -18.530  25.069 -11.404  1.00  0.00     0.038 A 
ENDBRANCH  40  42
ENDBRANCH  30  33
ENDBRANCH   1  27
TORSDOF 14
ENDMDL
MODEL 3
REMARK VINA RESULT: -8.523224908      2.324     10.863
REMARK  14 active torsions:
REMARK  status: ('A' for Active; 'I' for Inactive)
REMARK    1  A    between atoms: C4_4  and  C5_5 
REMARK    2  A    between atoms: C5_5  and  N1_6 
REMARK    3  A    between atoms: C5_5  and  C6_10 
REMARK    4  A    between atoms: N1_6  and  O1_8 
REMARK    5  A    between atoms: C10_14  and  C11_15 
REMARK    6  A    between atoms: C11_15  and  C12_16 
REMARK    7  A    between atoms: C12_16  and  C13_17 
REMARK    8  A    between atoms: C12_16  and  N3_26 
REMARK       I    between atoms: C13_17  and  N2_19 
REMARK    9  A    between atoms: N2_19  and  C14_21 
REMARK   10  A    between atoms: C14_21  and  C15_22 
REMARK   11  A    between atoms: C15_22  and  C16_23 
REMARK   12  A    between atoms: C16_23  and  O3_24 
REMARK   13  A    between atoms: C18_30  and  C19_31 
REMARK       I    between atoms: C19_31  and  N5_33 
REMARK   14  A    between atoms: N6_37  and  C23_38 
ROOT
HETATM    1  C12 UNL     1     -11.607  20.260 -15.490  1.00  0.00     0.182 C 
ENDROOT
BRANCH   1   2
HETATM    2  C11 UNL     1     -12.573  19.877 -14.402  1.00  0.00     0.040 C 
BRANCH   2   3
HETATM    3  C10 UNL     1     -13.977  20.388 -14.661  1.00  0.00    -0.012 C 
HETATM    4  C9  UNL     1     -14.835  19.173 -14.878  1.00  0.00     0.005 C 
HETATM    5  C8  UNL     1     -16.291  19.427 -14.704  1.00  0.00     0.001 C 
HETATM    6  C7  UNL     1     -16.472  19.920 -13.260  1.00  0.00     0.010 C 
HETATM    7  C6  UNL     1     -15.851  21.271 -13.195  1.00  0.00     0.034 C 
HETATM    8  C29 UNL     1     -14.378  21.210 -13.479  1.00  0.00     0.015 C 
BRANCH   7   9
HETATM    9  C5  UNL     1     -16.551  22.293 -13.989  1.00  0.00     0.018 C 
BRANCH   9  10
HETATM   10  C4  UNL     1     -17.666  21.990 -14.880  1.00  0.00     0.038 A 
HETATM   11  C2  UNL     1     -18.618  23.027 -15.297  1.00  0.00    -0.008 A 
HETATM   12  C1  UNL     1     -19.056  23.009 -16.752  1.00  0.00     0.011 C 
HETATM   13  C3  UNL     1     -19.068  21.858 -14.425  1.00  0.00     0.016 A 
ENDBRANCH   9  10
BRANCH   9  14
HETATM   14  N1  UNL     1     -16.142  23.515 -13.875  1.00  0.00    -0.277 N 
ATOM     15  H1  UNL     1     -15.551  23.890 -14.618  1.00  0.00     0.193 HD
BRANCH  14  16
HETATM   16  O1  UNL     1     -16.445  24.335 -12.833  1.00  0.00    -0.290 OA
ATOM     17  H1  UNL     1     -16.768  25.223 -12.924  1.00  0.00     0.244 HD
ENDBRANCH  14  16
ENDBRANCH   9  14
ENDBRANCH   7   9
ENDBRANCH   2   3
ENDBRANCH   1   2
BRANCH   1  18
HETATM   18  C13 UNL     1     -12.237  21.194 -16.449  1.00  0.00     0.240 C 
HETATM   19  O2  UNL     1     -12.106  22.441 -16.295  1.00  0.00    -0.271 OA
HETATM   20  N2  UNL     1     -12.999  20.756 -17.562  1.00  0.00    -0.359 N 
ATOM     21  H2  UNL     1     -13.120  19.754 -17.710  1.00  0.00     0.162 HD
BRANCH  20  22
HETATM   22  C14 UNL     1     -13.610  21.674 -18.494  1.00  0.00     0.125 C 
BRANCH  22  23
HETATM   23  C15 UNL     1     -15.106  21.585 -18.495  1.00  0.00     0.046 C 
BRANCH  23  24
HETATM   24  C16 UNL     1     -15.662  22.883 -17.933  1.00  0.00     0.165 C 
BRANCH  24  25
HETATM   25  O3  UNL     1     -14.930  23.306 -16.822  1.00  0.00    -0.401 OA
ATOM     26  H3  UNL     1     -15.012  24.243 -16.695  1.00  0.00     0.209 HD
ENDBRANCH  24  25
ENDBRANCH  23  24
ENDBRANCH  22  23
ENDBRANCH  20  22
ENDBRANCH   1  18
BRANCH   1  27
HETATM   27  N3  UNL     1     -11.142  19.048 -16.161  1.00  0.00    -0.337 N 
HETATM   28  C17 UNL     1     -11.786  17.865 -16.188  1.00  0.00     0.184 A 
HETATM   29  N4  UNL     1     -10.993  17.063 -16.910  1.00  0.00    -0.347 N 
HETATM   30  C18 UNL     1      -9.899  17.656 -17.339  1.00  0.00     0.117 A 
ATOM     31  H4  UNL     1     -11.215  16.087 -17.109  1.00  0.00     0.167 HD
HETATM   32  C28 UNL     1      -9.985  18.971 -16.851  1.00  0.00     0.128 A 
BRANCH  30  33
HETATM   33  C19 UNL     1      -8.784  17.175 -18.139  1.00  0.00     0.271 C 
HETATM   34  O4  UNL     1      -8.649  17.551 -19.353  1.00  0.00    -0.266 OA
HETATM   35  N5  UNL     1      -7.843  16.289 -17.571  1.00  0.00    -0.345 N 
HETATM   36  C20 UNL     1      -7.948  15.842 -16.223  1.00  0.00     0.128 C 
HETATM   37  C27 UNL     1      -6.780  15.905 -18.521  1.00  0.00     0.156 C 
HETATM   38  C21 UNL     1      -6.836  14.848 -15.918  1.00  0.00     0.050 C 
HETATM   39  C22 UNL     1      -5.501  15.524 -15.791  1.00  0.00     0.274 C 
HETATM   40  N6  UNL     1      -4.823  15.661 -17.058  1.00  0.00     0.094 N 
HETATM   41  C26 UNL     1      -5.504  16.516 -17.981  1.00  0.00     0.292 C 
BRANCH  40  42
HETATM   42  C23 UNL     1      -3.479  16.109 -16.889  1.00  0.00     0.223 A 
HETATM   43  C24 UNL     1      -2.408  15.087 -17.179  1.00  0.00     0.038 A 
HETATM   44  C25 UNL     1      -2.541  16.327 -18.001  1.00  0.00     0.038 A 
ENDBRANCH  40  42
ENDBRANCH  30  33
ENDBRANCH   1  27
TORSDOF 14
ENDMDL
MODEL 4
REMARK VINA RESULT: -8.505630150      1.818      2.389
REMARK  14 active torsions:
REMARK  status: ('A' for Active; 'I' for Inactive)
REMARK    1  A    between atoms: C4_4  and  C5_5 
REMARK    2  A    between atoms: C5_5  and  N1_6 
REMARK    3  A    between atoms: C5_5  and  C6_10 
REMARK    4  A    between atoms: N1_6  and  O1_8 
REMARK    5  A    between atoms: C10_14  and  C11_15 
REMARK    6  A    between atoms: C11_15  and  C12_16 
REMARK    7  A    between atoms: C12_16  and  C13_17 
REMARK    8  A    between atoms: C12_16  and  N3_26 
REMARK       I    between atoms: C13_17  and  N2_19 
REMARK    9  A    between atoms: N2_19  and  C14_21 
REMARK   10  A    between atoms: C14_21  and  C15_22 
REMARK   11  A    between atoms: C15_22  and  C16_23 
REMARK   12  A    between atoms: C16_23  and  O3_24 
REMARK   13  A    between atoms: C18_30  and  C19_31 
REMARK       I    between atoms: C19_31  and  N5_33 
REMARK   14  A    between atoms: N6_37  and  C23_38 
ROOT
HETATM    1  C12 UNL     1     -11.998  19.205 -17.914  1.00  0.00     0.182 C 
ENDROOT
BRANCH   1   2
HETATM    2  C11 UNL     1     -11.593  19.211 -16.465  1.00  0.00     0.040 C 
BRANCH   2   3
HETATM    3  C10 UNL     1     -10.249  18.548 -16.233  1.00  0.00    -0.012 C 
HETATM    4  C9  UNL     1      -9.767  19.030 -14.892  1.00  0.00     0.005 C 
HETATM    5  C8  UNL     1      -8.710  18.173 -14.290  1.00  0.00     0.001 C 
HETATM    6  C7  UNL     1      -9.330  16.776 -14.129  1.00  0.00     0.010 C 
HETATM    7  C6  UNL     1      -9.507  16.233 -15.504  1.00  0.00     0.034 C 
HETATM    8  C29 UNL     1     -10.463  17.070 -16.304  1.00  0.00     0.015 C 
BRANCH   7   9
HETATM    9  C5  UNL     1      -8.245  15.962 -16.210  1.00  0.00     0.018 C 
BRANCH   9  10
HETATM   10  C4  UNL     1      -6.987  15.685 -15.525  1.00  0.00     0.038 A 
HETATM   11  C2  UNL     1      -5.778  15.302 -16.266  1.00  0.00    -0.008 A 
HETATM   12  C1  UNL     1      -4.469  15.922 -15.807  1.00  0.00     0.011 C 
HETATM   13  C3  UNL     1      -6.453  14.322 -15.308  1.00  0.00     0.016 A 
ENDBRANCH   9  10
BRANCH   9  14
HETATM   14  N1  UNL     1      -8.275  15.973 -17.504  1.00  0.00    -0.277 N 
ATOM     15  H1  UNL     1      -8.093  16.858 -17.976  1.00  0.00     0.193 HD
BRANCH  14  16
HETATM   16  O1  UNL     1      -8.534  14.884 -18.277  1.00  0.00    -0.290 OA
ATOM     17  H1  UNL     1      -8.700  14.012 -17.939  1.00  0.00     0.244 HD
ENDBRANCH  14  16
ENDBRANCH   9  14
ENDBRANCH   7   9
ENDBRANCH   2   3
ENDBRANCH   1   2
BRANCH   1  18
HETATM   18  C13 UNL     1     -10.820  19.376 -18.792  1.00  0.00     0.240 C 
HETATM   19  O2  UNL     1     -10.041  20.354 -18.620  1.00  0.00    -0.271 OA
HETATM   20  N2  UNL     1     -10.508  18.476 -19.843  1.00  0.00    -0.359 N 
ATOM     21  H2  UNL     1     -11.121  17.677 -20.003  1.00  0.00     0.162 HD
BRANCH  20  22
HETATM   22  C14 UNL     1      -9.355  18.649 -20.696  1.00  0.00     0.125 C 
BRANCH  22  23
HETATM   23  C15 UNL     1      -8.274  17.651 -20.413  1.00  0.00     0.046 C 
BRANCH  23  24
HETATM   24  C16 UNL     1      -7.027  18.406 -19.983  1.00  0.00     0.165 C 
BRANCH  24  25
HETATM   25  O3  UNL     1      -7.357  19.601 -19.343  1.00  0.00    -0.401 OA
ATOM     26  H3  UNL     1      -8.292  19.659 -19.185  1.00  0.00     0.209 HD
ENDBRANCH  24  25
ENDBRANCH  23  24
ENDBRANCH  22  23
ENDBRANCH  20  22
ENDBRANCH   1  18
BRANCH   1  27
HETATM   27  N3  UNL     1     -12.981  20.263 -18.137  1.00  0.00    -0.337 N 
HETATM   28  C17 UNL     1     -12.944  21.176 -19.127  1.00  0.00     0.184 A 
HETATM   29  N4  UNL     1     -14.035  21.930 -18.934  1.00  0.00    -0.347 N 
HETATM   30  C18 UNL     1     -14.752  21.556 -17.896  1.00  0.00     0.117 A 
ATOM     31  H4  UNL     1     -14.285  22.717 -19.532  1.00  0.00     0.167 HD
HETATM   32  C28 UNL     1     -14.066  20.453 -17.359  1.00  0.00     0.128 A 
BRANCH  30  33
HETATM   33  C19 UNL     1     -15.987  22.078 -17.330  1.00  0.00     0.271 C 
HETATM   34  O4  UNL     1     -16.371  21.711 -16.167  1.00  0.00    -0.266 OA
HETATM   35  N5  UNL     1     -16.764  22.997 -18.067  1.00  0.00    -0.345 N 
HETATM   36  C20 UNL     1     -16.379  23.437 -19.366  1.00  0.00     0.128 C 
HETATM   37  C27 UNL     1     -17.979  23.422 -17.343  1.00  0.00     0.156 C 
HETATM   38  C21 UNL     1     -17.442  24.366 -19.936  1.00  0.00     0.050 C 
HETATM   39  C22 UNL     1     -17.427  25.710 -19.266  1.00  0.00     0.274 C 
HETATM   40  N6  UNL     1     -18.246  25.750 -18.078  1.00  0.00     0.094 N 
HETATM   41  C26 UNL     1     -17.780  24.891 -17.033  1.00  0.00     0.292 C 
BRANCH  40  42
HETATM   42  C23 UNL     1     -18.387  27.079 -17.580  1.00  0.00     0.223 A 
HETATM   43  C24 UNL     1     -19.780  27.654 -17.635  1.00  0.00     0.038 A 
HETATM   44  C25 UNL     1     -19.088  27.419 -16.333  1.00  0.00     0.038 A 
ENDBRANCH  40  42
ENDBRANCH  30  33
ENDBRANCH   1  27
TORSDOF 14
ENDMDL
MODEL 5
REMARK VINA RESULT: -8.502745333      2.168     10.424
REMARK  14 active torsions:
REMARK  status: ('A' for Active; 'I' for Inactive)
REMARK    1  A    between atoms: C4_4  and  C5_5 
REMARK    2  A    between atoms: C5_5  and  N1_6 
REMARK    3  A    between atoms: C5_5  and  C6_10 
REMARK    4  A    between atoms: N1_6  and  O1_8 
REMARK    5  A    between atoms: C10_14  and  C11_15 
REMARK    6  A    between atoms: C11_15  and  C12_16 
REMARK    7  A    between atoms: C12_16  and  C13_17 
REMARK    8  A    between atoms: C12_16  and  N3_26 
REMARK       I    between atoms: C13_17  and  N2_19 
REMARK    9  A    between atoms: N2_19  and  C14_21 
REMARK   10  A    between atoms: C14_21  and  C15_22 
REMARK   11  A    between atoms: C15_22  and  C16_23 
REMARK   12  A    between atoms: C16_23  and  O3_24 
REMARK   13  A    between atoms: C18_30  and  C19_31 
REMARK       I    between atoms: C19_31  and  N5_33 
REMARK   14  A    between atoms: N6_37  and  C23_38 
ROOT
HETATM    1  C12 UNL     1     -13.238  21.162 -17.268  1.00  0.00     0.182 C 
ENDROOT
BRANCH   1   2
HETATM    2  C11 UNL     1     -13.792  20.090 -16.370  1.00  0.00     0.040 C 
BRANCH   2   3
HETATM    3  C10 UNL     1     -14.982  20.564 -15.560  1.00  0.00    -0.012 C 
HETATM    4  C9  UNL     1     -15.343  19.434 -14.637  1.00  0.00     0.005 C 
HETATM    5  C8  UNL     1     -16.174  19.848 -13.474  1.00  0.00     0.001 C 
HETATM    6  C7  UNL     1     -15.344  20.884 -12.701  1.00  0.00     0.010 C 
HETATM    7  C6  UNL     1     -15.278  22.098 -13.560  1.00  0.00     0.034 C 
HETATM    8  C29 UNL     1     -14.570  21.816 -14.853  1.00  0.00     0.015 C 
BRANCH   7   9
HETATM    9  C5  UNL     1     -16.572  22.774 -13.745  1.00  0.00     0.018 C 
BRANCH   9  10
HETATM   10  C4  UNL     1     -17.363  22.670 -14.966  1.00  0.00     0.038 A 
HETATM   11  C2  UNL     1     -18.369  23.679 -15.317  1.00  0.00    -0.008 A 
HETATM   12  C1  UNL     1     -18.436  24.101 -16.775  1.00  0.00     0.011 C 
HETATM   13  C3  UNL     1     -18.780  22.245 -14.993  1.00  0.00     0.016 A 
ENDBRANCH   9  10
BRANCH   9  14
HETATM   14  N1  UNL     1     -17.013  23.491 -12.762  1.00  0.00    -0.277 N 
ATOM     15  H1  UNL     1     -17.764  23.103 -12.190  1.00  0.00     0.193 HD
BRANCH  14  16
HETATM   16  O1  UNL     1     -16.544  24.726 -12.438  1.00  0.00    -0.290 OA
ATOM     17  H1  UNL     1     -16.696  25.158 -11.606  1.00  0.00     0.244 HD
ENDBRANCH  14  16
ENDBRANCH   9  14
ENDBRANCH   7   9
ENDBRANCH   2   3
ENDBRANCH   1   2
BRANCH   1  18
HETATM   18  C13 UNL     1     -14.244  21.583 -18.269  1.00  0.00     0.240 C 
HETATM   19  O2  UNL     1     -14.721  20.740 -19.078  1.00  0.00    -0.271 OA
HETATM   20  N2  UNL     1     -14.714  22.918 -18.371  1.00  0.00    -0.359 N 
ATOM     21  H2  UNL     1     -14.344  23.619 -17.729  1.00  0.00     0.162 HD
BRANCH  20  22
HETATM   22  C14 UNL     1     -15.696  23.321 -19.350  1.00  0.00     0.125 C 
BRANCH  22  23
HETATM   23  C15 UNL     1     -15.678  24.796 -19.611  1.00  0.00     0.046 C 
BRANCH  23  24
HETATM   24  C16 UNL     1     -16.903  25.151 -20.436  1.00  0.00     0.165 C 
BRANCH  24  25
HETATM   25  O3  UNL     1     -17.751  24.053 -20.578  1.00  0.00    -0.401 OA
ATOM     26  H3  UNL     1     -17.369  23.395 -21.146  1.00  0.00     0.209 HD
ENDBRANCH  24  25
ENDBRANCH  23  24
ENDBRANCH  22  23
ENDBRANCH  20  22
ENDBRANCH   1  18
BRANCH   1  27
HETATM   27  N3  UNL     1     -12.027  20.663 -17.915  1.00  0.00    -0.337 N 
HETATM   28  C17 UNL     1     -11.188  21.385 -18.683  1.00  0.00     0.184 A 
HETATM   29  N4  UNL     1     -10.234  20.520 -19.052  1.00  0.00    -0.347 N 
HETATM   30  C18 UNL     1     -10.414  19.308 -18.570  1.00  0.00     0.117 A 
ATOM     31  H4  UNL     1      -9.446  20.775 -19.647  1.00  0.00     0.167 HD
HETATM   32  C28 UNL     1     -11.596  19.388 -17.816  1.00  0.00     0.128 A 
BRANCH  30  33
HETATM   33  C19 UNL     1      -9.641  18.083 -18.712  1.00  0.00     0.271 C 
HETATM   34  O4  UNL     1      -9.233  17.706 -19.863  1.00  0.00    -0.266 OA
HETATM   35  N5  UNL     1      -9.339  17.307 -17.572  1.00  0.00    -0.345 N 
HETATM   36  C20 UNL     1      -9.771  17.685 -16.268  1.00  0.00     0.128 C 
HETATM   37  C27 UNL     1      -8.550  16.103 -17.899  1.00  0.00     0.156 C 
HETATM   38  C21 UNL     1      -9.357  16.625 -15.258  1.00  0.00     0.050 C 
HETATM   39  C22 UNL     1      -7.879  16.657 -14.987  1.00  0.00     0.274 C 
HETATM   40  N6  UNL     1      -7.125  15.850 -15.914  1.00  0.00     0.094 N 
HETATM   41  C26 UNL     1      -7.191  16.317 -17.265  1.00  0.00     0.292 C 
BRANCH  40  42
HETATM   42  C23 UNL     1      -5.761  15.725 -15.515  1.00  0.00     0.223 A 
HETATM   43  C24 UNL     1      -5.218  14.318 -15.470  1.00  0.00     0.038 A 
HETATM   44  C25 UNL     1      -4.673  15.331 -16.423  1.00  0.00     0.038 A 
ENDBRANCH  40  42
ENDBRANCH  30  33
ENDBRANCH   1  27
TORSDOF 14
ENDMDL
