MODEL 1
REMARK VINA RESULT: -9.199438943      0.000      0.000
REMARK  12 active torsions:
REMARK  status: ('A' for Active; 'I' for Inactive)
REMARK    1  A    between atoms: C1_2  and  C2_3 
REMARK       I    between atoms: C1_2  and  N3_20 
REMARK    2  A    between atoms: C3_4  and  C4_5 
REMARK    3  A    between atoms: C5_6  and  C6_7 
REMARK    4  A    between atoms: C6_7  and  N1_8 
REMARK    5  A    between atoms: C9_12  and  C10_13 
REMARK       I    between atoms: C10_13  and  N2_15 
REMARK    6  A    between atoms: N3_20  and  C15_22 
REMARK    7  A    between atoms: C16_23  and  O3_24 
REMARK    8  A    between atoms: C18_27  and  C19_28 
REMARK    9  A    between atoms: C21_32  and  O6_33 
REMARK   10  A    between atoms: O6_33  and  C22_34 
REMARK   11  A    between atoms: C22_34  and  C23_35 
REMARK   12  A    between atoms: C23_35  and  N4_36 
ROOT
HETATM    1  O1  UNL     1     -10.004  18.793 -16.585  1.00  0.00    -0.268 OA
HETATM    2  C1  UNL     1     -10.705  17.808 -16.953  1.00  0.00     0.245 C 
HETATM    3  N3  UNL     1     -10.074  16.564 -17.040  1.00  0.00    -0.319 N 
ATOM      4  H3  UNL     1     -10.617  15.755 -17.340  1.00  0.00     0.169 HD
ENDROOT
BRANCH   3   5
HETATM    5  C15 UNL     1      -8.680  16.389 -16.719  1.00  0.00     0.102 A 
HETATM    6  C16 UNL     1      -8.242  16.435 -15.429  1.00  0.00     0.096 A 
HETATM    7  C17 UNL     1      -6.888  16.280 -15.158  1.00  0.00     0.057 A 
HETATM    8  C18 UNL     1      -5.973  16.080 -16.163  1.00  0.00     0.046 A 
HETATM    9  C20 UNL     1      -6.414  16.033 -17.469  1.00  0.00     0.057 A 
HETATM   10  C21 UNL     1      -7.771  16.185 -17.766  1.00  0.00     0.099 A 
BRANCH   6  11
HETATM   11  O3  UNL     1      -9.154  16.638 -14.383  1.00  0.00    -0.358 OA
ATOM     12  H3  UNL     1      -8.880  16.515 -13.482  1.00  0.00     0.217 HD
ENDBRANCH   6  11
BRANCH   8  13
HETATM   13  C19 UNL     1      -4.570  15.927 -15.815  1.00  0.00     0.209 C 
HETATM   14  O4  UNL     1      -3.723  16.844 -15.945  1.00  0.00    -0.644 OA
HETATM   15  O5  UNL     1      -4.107  14.716 -15.308  1.00  0.00    -0.644 OA
ENDBRANCH   8  13
BRANCH  10  16
HETATM   16  O6  UNL     1      -8.315  16.160 -19.012  1.00  0.00    -0.347 OA
BRANCH  16  17
HETATM   17  C22 UNL     1      -7.954  16.923 -20.099  1.00  0.00     0.195 C 
BRANCH  17  18
HETATM   18  C23 UNL     1      -7.646  18.334 -19.742  1.00  0.00     0.143 C 
BRANCH  18  19
HETATM   19  N4  UNL     1      -8.823  19.164 -19.774  1.00  0.00    -0.410 N 
HETATM   20  C24 UNL     1      -8.611  20.562 -19.725  1.00  0.00     0.117 C 
HETATM   21  C25 UNL     1      -9.599  21.242 -20.683  1.00  0.00     0.019 C 
HETATM   22  C26 UNL     1     -10.984  20.857 -20.165  1.00  0.00     0.003 C 
HETATM   23  C27 UNL     1     -11.163  19.384 -20.472  1.00  0.00     0.019 C 
HETATM   24  C28 UNL     1      -9.833  18.687 -20.648  1.00  0.00     0.117 C 
ENDBRANCH  18  19
ENDBRANCH  17  18
ENDBRANCH  16  17
ENDBRANCH  10  16
ENDBRANCH   3   5
BRANCH   2  25
HETATM   25  C2  UNL     1     -12.088  18.002 -17.259  1.00  0.00     0.074 C 
HETATM   26  C3  UNL     1     -12.675  19.196 -17.383  1.00  0.00     0.005 C 
BRANCH  26  27
HETATM   27  C4  UNL     1     -14.092  19.248 -17.697  1.00  0.00    -0.002 C 
HETATM   28  C5  UNL     1     -14.722  20.359 -17.951  1.00  0.00    -0.007 C 
BRANCH  28  29
HETATM   29  C6  UNL     1     -14.149  21.707 -17.969  1.00  0.00     0.151 C 
BRANCH  29  30
HETATM   30  N1  UNL     1     -14.816  22.615 -17.059  1.00  0.00    -0.367 N 
HETATM   31  C7  UNL     1     -14.793  23.978 -17.416  1.00  0.00     0.132 C 
HETATM   32  S1  UNL     1     -16.459  24.120 -18.187  1.00  0.00    -0.122 SA
HETATM   33  C8  UNL     1     -17.220  22.757 -17.215  1.00  0.00     0.114 C 
HETATM   34  C9  UNL     1     -16.034  22.178 -16.518  1.00  0.00     0.186 C 
BRANCH  34  35
HETATM   35  C10 UNL     1     -16.121  22.309 -15.034  1.00  0.00     0.243 C 
HETATM   36  O2  UNL     1     -16.774  23.288 -14.534  1.00  0.00    -0.271 OA
HETATM   37  N2  UNL     1     -15.529  21.425 -14.128  1.00  0.00    -0.350 N 
HETATM   38  C11 UNL     1     -14.733  20.269 -14.464  1.00  0.00     0.126 C 
HETATM   39  C14 UNL     1     -15.589  21.495 -12.684  1.00  0.00     0.126 C 
HETATM   40  C12 UNL     1     -14.011  19.825 -13.238  1.00  0.00     0.021 C 
HETATM   41  C13 UNL     1     -14.331  20.823 -12.193  1.00  0.00     0.021 C 
ENDBRANCH  34  35
ENDBRANCH  29  30
ENDBRANCH  28  29
ENDBRANCH  26  27
ENDBRANCH   2  25
TORSDOF 12
ENDMDL
MODEL 2
REMARK VINA RESULT: -9.105816130      2.541      5.844
REMARK  12 active torsions:
REMARK  status: ('A' for Active; 'I' for Inactive)
REMARK    1  A    between atoms: C1_2  and  C2_3 
REMARK       I    between atoms: C1_2  and  N3_20 
REMARK    2  A    between atoms: C3_4  and  C4_5 
REMARK    3  A    between atoms: C5_6  and  C6_7 
REMARK    4  A    between atoms: C6_7  and  N1_8 
REMARK    5  A    between atoms: C9_12  and  C10_13 
REMARK       I    between atoms: C10_13  and  N2_15 
REMARK    6  A    between atoms: N3_20  and  C15_22 
REMARK    7  A    between atoms: C16_23  and  O3_24 
REMARK    8  A    between atoms: C18_27  and  C19_28 
REMARK    9  A    between atoms: C21_32  and  O6_33 
REMARK   10  A    between atoms: O6_33  and  C22_34 
REMARK   11  A    between atoms: C22_34  and  C23_35 
REMARK   12  A    between atoms: C23_35  and  N4_36 
ROOT
HETATM    1  O1  UNL     1     -11.642  20.346 -15.167  1.00  0.00    -0.268 OA
HETATM    2  C1  UNL     1     -12.642  19.578 -15.251  1.00  0.00     0.245 C 
HETATM    3  N3  UNL     1     -12.684  18.688 -16.327  1.00  0.00    -0.319 N 
ATOM      4  H3  UNL     1     -13.484  18.062 -16.420  1.00  0.00     0.169 HD
ENDROOT
BRANCH   3   5
HETATM    5  C15 UNL     1     -11.633  18.627 -17.311  1.00  0.00     0.102 A 
HETATM    6  C16 UNL     1     -11.718  19.326 -18.478  1.00  0.00     0.096 A 
HETATM    7  C17 UNL     1     -10.694  19.229 -19.412  1.00  0.00     0.057 A 
HETATM    8  C18 UNL     1      -9.591  18.440 -19.189  1.00  0.00     0.046 A 
HETATM    9  C20 UNL     1      -9.504  17.731 -18.011  1.00  0.00     0.057 A 
HETATM   10  C21 UNL     1     -10.520  17.814 -17.054  1.00  0.00     0.099 A 
BRANCH   6  11
HETATM   11  O3  UNL     1     -12.832  20.139 -18.732  1.00  0.00    -0.358 OA
ATOM     12  H3  UNL     1     -13.386  19.967 -19.484  1.00  0.00     0.217 HD
ENDBRANCH   6  11
BRANCH   8  13
HETATM   13  C19 UNL     1      -8.555  18.378 -20.207  1.00  0.00     0.209 C 
HETATM   14  O4  UNL     1      -8.380  17.385 -20.955  1.00  0.00    -0.644 OA
HETATM   15  O5  UNL     1      -7.697  19.458 -20.392  1.00  0.00    -0.644 OA
ENDBRANCH   8  13
BRANCH  10  16
HETATM   16  O6  UNL     1     -10.541  17.159 -15.863  1.00  0.00    -0.347 OA
BRANCH  16  17
HETATM   17  C22 UNL     1      -9.472  16.885 -15.040  1.00  0.00     0.195 C 
BRANCH  17  18
HETATM   18  C23 UNL     1      -9.498  15.501 -14.494  1.00  0.00     0.143 C 
BRANCH  18  19
HETATM   19  N4  UNL     1      -8.279  14.789 -14.780  1.00  0.00    -0.410 N 
HETATM   20  C24 UNL     1      -7.500  15.278 -15.857  1.00  0.00     0.117 C 
HETATM   21  C25 UNL     1      -6.018  15.192 -15.468  1.00  0.00     0.019 C 
HETATM   22  C26 UNL     1      -5.761  13.709 -15.206  1.00  0.00     0.003 C 
HETATM   23  C27 UNL     1      -6.477  13.371 -13.913  1.00  0.00     0.019 C 
HETATM   24  C28 UNL     1      -7.588  14.354 -13.621  1.00  0.00     0.117 C 
ENDBRANCH  18  19
ENDBRANCH  17  18
ENDBRANCH  16  17
ENDBRANCH  10  16
ENDBRANCH   3   5
BRANCH   2  25
HETATM   25  C2  UNL     1     -13.670  19.648 -14.259  1.00  0.00     0.074 C 
HETATM   26  C3  UNL     1     -13.609  20.405 -13.160  1.00  0.00     0.005 C 
BRANCH  26  27
HETATM   27  C4  UNL     1     -14.728  20.382 -12.233  1.00  0.00    -0.002 C 
HETATM   28  C5  UNL     1     -15.708  21.237 -12.283  1.00  0.00    -0.007 C 
BRANCH  28  29
HETATM   29  C6  UNL     1     -15.866  22.335 -13.240  1.00  0.00     0.151 C 
BRANCH  29  30
HETATM   30  N1  UNL     1     -16.346  21.891 -14.532  1.00  0.00    -0.367 N 
HETATM   31  C7  UNL     1     -17.329  20.881 -14.513  1.00  0.00     0.132 C 
HETATM   32  S1  UNL     1     -18.836  21.918 -14.726  1.00  0.00    -0.122 SA
HETATM   33  C8  UNL     1     -17.988  23.279 -15.629  1.00  0.00     0.114 C 
HETATM   34  C9  UNL     1     -16.555  22.886 -15.499  1.00  0.00     0.186 C 
BRANCH  34  35
HETATM   35  C10 UNL     1     -15.919  22.594 -16.817  1.00  0.00     0.243 C 
HETATM   36  O2  UNL     1     -15.229  21.526 -16.951  1.00  0.00    -0.271 OA
HETATM   37  N2  UNL     1     -16.021  23.416 -17.942  1.00  0.00    -0.350 N 
HETATM   38  C11 UNL     1     -16.728  24.672 -18.015  1.00  0.00     0.126 C 
HETATM   39  C14 UNL     1     -15.438  23.179 -19.244  1.00  0.00     0.126 C 
HETATM   40  C12 UNL     1     -16.294  25.383 -19.252  1.00  0.00     0.021 C 
HETATM   41  C13 UNL     1     -15.230  24.544 -19.851  1.00  0.00     0.021 C 
ENDBRANCH  34  35
ENDBRANCH  29  30
ENDBRANCH  28  29
ENDBRANCH  26  27
ENDBRANCH   2  25
TORSDOF 12
ENDMDL
MODEL 3
REMARK VINA RESULT: -9.104307357      1.948      3.311
REMARK  12 active torsions:
REMARK  status: ('A' for Active; 'I' for Inactive)
REMARK    1  A    between atoms: C1_2  and  C2_3 
REMARK       I    between atoms: C1_2  and  N3_20 
REMARK    2  A    between atoms: C3_4  and  C4_5 
REMARK    3  A    between atoms: C5_6  and  C6_7 
REMARK    4  A    between atoms: C6_7  and  N1_8 
REMARK    5  A    between atoms: C9_12  and  C10_13 
REMARK       I    between atoms: C10_13  and  N2_15 
REMARK    6  A    between atoms: N3_20  and  C15_22 
REMARK    7  A    between atoms: C16_23  and  O3_24 
REMARK    8  A    between atoms: C18_27  and  C19_28 
REMARK    9  A    between atoms: C21_32  and  O6_33 
REMARK   10  A    between atoms: O6_33  and  C22_34 
REMARK   11  A    between atoms: C22_34  and  C23_35 
REMARK   12  A    between atoms: C23_35  and  N4_36 
ROOT
HETATM    1  O1  UNL     1     -11.462  17.498 -15.859  1.00  0.00    -0.268 OA
HETATM    2  C1  UNL     1     -10.855  18.443 -16.437  1.00  0.00     0.245 C 
HETATM    3  N3  UNL     1      -9.469  18.330 -16.578  1.00  0.00    -0.319 N 
ATOM      4  H3  UNL     1      -8.957  19.084 -17.036  1.00  0.00     0.169 HD
ENDROOT
BRANCH   3   5
HETATM    5  C15 UNL     1      -8.742  17.184 -16.097  1.00  0.00     0.102 A 
HETATM    6  C16 UNL     1      -8.518  16.998 -14.765  1.00  0.00     0.096 A 
HETATM    7  C17 UNL     1      -7.796  15.890 -14.338  1.00  0.00     0.057 A 
HETATM    8  C18 UNL     1      -7.299  14.970 -15.230  1.00  0.00     0.046 A 
HETATM    9  C20 UNL     1      -7.524  15.156 -16.577  1.00  0.00     0.057 A 
HETATM   10  C21 UNL     1      -8.249  16.262 -17.031  1.00  0.00     0.099 A 
BRANCH   6  11
HETATM   11  O3  UNL     1      -9.013  17.921 -13.833  1.00  0.00    -0.358 OA
ATOM     12  H3  UNL     1      -8.417  18.379 -13.253  1.00  0.00     0.217 HD
ENDBRANCH   6  11
BRANCH   8  13
HETATM   13  C19 UNL     1      -6.550  13.834 -14.721  1.00  0.00     0.209 C 
HETATM   14  O4  UNL     1      -6.929  13.135 -13.749  1.00  0.00    -0.644 OA
HETATM   15  O5  UNL     1      -5.346  13.470 -15.319  1.00  0.00    -0.644 OA
ENDBRANCH   8  13
BRANCH  10  16
HETATM   16  O6  UNL     1      -8.527  16.546 -18.331  1.00  0.00    -0.347 OA
BRANCH  16  17
HETATM   17  C22 UNL     1      -7.692  17.124 -19.259  1.00  0.00     0.195 C 
BRANCH  17  18
HETATM   18  C23 UNL     1      -8.414  17.626 -20.459  1.00  0.00     0.143 C 
BRANCH  18  19
HETATM   19  N4  UNL     1      -9.109  18.859 -20.190  1.00  0.00    -0.410 N 
HETATM   20  C24 UNL     1      -8.356  20.050 -20.319  1.00  0.00     0.117 C 
HETATM   21  C25 UNL     1      -9.240  21.120 -20.973  1.00  0.00     0.019 C 
HETATM   22  C26 UNL     1     -10.423  21.295 -20.023  1.00  0.00     0.003 C 
HETATM   23  C27 UNL     1     -11.259  20.036 -20.142  1.00  0.00     0.019 C 
HETATM   24  C28 UNL     1     -10.444  18.876 -20.668  1.00  0.00     0.117 C 
ENDBRANCH  18  19
ENDBRANCH  17  18
ENDBRANCH  16  17
ENDBRANCH  10  16
ENDBRANCH   3   5
BRANCH   2  25
HETATM   25  C2  UNL     1     -11.597  19.569 -16.915  1.00  0.00     0.074 C 
HETATM   26  C3  UNL     1     -11.592  20.775 -16.341  1.00  0.00     0.005 C 
BRANCH  26  27
HETATM   27  C4  UNL     1     -12.394  21.833 -16.933  1.00  0.00    -0.002 C 
HETATM   28  C5  UNL     1     -13.596  22.125 -16.527  1.00  0.00    -0.007 C 
BRANCH  28  29
HETATM   29  C6  UNL     1     -14.336  21.474 -15.443  1.00  0.00     0.151 C 
BRANCH  29  30
HETATM   30  N1  UNL     1     -15.772  21.548 -15.617  1.00  0.00    -0.367 N 
HETATM   31  C7  UNL     1     -16.525  20.529 -15.000  1.00  0.00     0.132 C 
HETATM   32  S1  UNL     1     -17.040  21.414 -13.470  1.00  0.00    -0.122 SA
HETATM   33  C8  UNL     1     -16.971  23.098 -14.208  1.00  0.00     0.114 C 
HETATM   34  C9  UNL     1     -16.348  22.825 -15.536  1.00  0.00     0.186 C 
BRANCH  34  35
HETATM   35  C10 UNL     1     -17.256  23.154 -16.673  1.00  0.00     0.243 C 
HETATM   36  O2  UNL     1     -18.472  22.762 -16.631  1.00  0.00    -0.271 OA
HETATM   37  N2  UNL     1     -16.871  23.872 -17.808  1.00  0.00    -0.350 N 
HETATM   38  C11 UNL     1     -15.553  24.392 -18.079  1.00  0.00     0.126 C 
HETATM   39  C14 UNL     1     -17.708  24.229 -18.933  1.00  0.00     0.126 C 
HETATM   40  C12 UNL     1     -15.482  24.765 -19.520  1.00  0.00     0.021 C 
HETATM   41  C13 UNL     1     -16.775  24.350 -20.112  1.00  0.00     0.021 C 
ENDBRANCH  34  35
ENDBRANCH  29  30
ENDBRANCH  28  29
ENDBRANCH  26  27
ENDBRANCH   2  25
TORSDOF 12
ENDMDL
MODEL 4
REMARK VINA RESULT: -9.063563611      3.134     10.975
REMARK  12 active torsions:
REMARK  status: ('A' for Active; 'I' for Inactive)
REMARK    1  A    between atoms: C1_2  and  C2_3 
REMARK       I    between atoms: C1_2  and  N3_20 
REMARK    2  A    between atoms: C3_4  and  C4_5 
REMARK    3  A    between atoms: C5_6  and  C6_7 
REMARK    4  A    between atoms: C6_7  and  N1_8 
REMARK    5  A    between atoms: C9_12  and  C10_13 
REMARK       I    between atoms: C10_13  and  N2_15 
REMARK    6  A    between atoms: N3_20  and  C15_22 
REMARK    7  A    between atoms: C16_23  and  O3_24 
REMARK    8  A    between atoms: C18_27  and  C19_28 
REMARK    9  A    between atoms: C21_32  and  O6_33 
REMARK   10  A    between atoms: O6_33  and  C22_34 
REMARK   11  A    between atoms: C22_34  and  C23_35 
REMARK   12  A    between atoms: C23_35  and  N4_36 
ROOT
HETATM    1  O1  UNL     1     -15.197  23.183 -16.978  1.00  0.00    -0.268 OA
HETATM    2  C1  UNL     1     -16.014  22.282 -17.319  1.00  0.00     0.245 C 
HETATM    3  N3  UNL     1     -17.329  22.671 -17.589  1.00  0.00    -0.319 N 
ATOM      4  H3  UNL     1     -18.008  21.960 -17.860  1.00  0.00     0.169 HD
ENDROOT
BRANCH   3   5
HETATM    5  C15 UNL     1     -17.755  24.043 -17.496  1.00  0.00     0.102 A 
HETATM    6  C16 UNL     1     -17.323  24.979 -18.389  1.00  0.00     0.096 A 
HETATM    7  C17 UNL     1     -17.741  26.297 -18.257  1.00  0.00     0.057 A 
HETATM    8  C18 UNL     1     -18.583  26.686 -17.244  1.00  0.00     0.046 A 
HETATM    9  C20 UNL     1     -19.021  25.742 -16.339  1.00  0.00     0.057 A 
HETATM   10  C21 UNL     1     -18.616  24.409 -16.451  1.00  0.00     0.099 A 
BRANCH   6  11
HETATM   11  O3  UNL     1     -16.463  24.610 -19.432  1.00  0.00    -0.358 OA
ATOM     12  H3  UNL     1     -16.526  25.042 -20.276  1.00  0.00     0.217 HD
ENDBRANCH   6  11
BRANCH   8  13
HETATM   13  C19 UNL     1     -18.982  28.081 -17.158  1.00  0.00     0.209 C 
HETATM   14  O4  UNL     1     -18.622  28.847 -16.231  1.00  0.00    -0.644 OA
HETATM   15  O5  UNL     1     -19.803  28.631 -18.138  1.00  0.00    -0.644 OA
ENDBRANCH   8  13
BRANCH  10  16
HETATM   16  O6  UNL     1     -18.981  23.399 -15.618  1.00  0.00    -0.347 OA
BRANCH  16  17
HETATM   17  C22 UNL     1     -18.588  23.206 -14.313  1.00  0.00     0.195 C 
BRANCH  17  18
HETATM   18  C23 UNL     1     -18.313  21.779 -13.993  1.00  0.00     0.143 C 
BRANCH  18  19
HETATM   19  N4  UNL     1     -16.904  21.485 -14.022  1.00  0.00    -0.410 N 
HETATM   20  C24 UNL     1     -16.033  22.524 -13.613  1.00  0.00     0.117 C 
HETATM   21  C25 UNL     1     -14.897  21.912 -12.781  1.00  0.00     0.019 C 
HETATM   22  C26 UNL     1     -14.205  20.925 -13.719  1.00  0.00     0.003 C 
HETATM   23  C27 UNL     1     -15.162  19.764 -13.902  1.00  0.00     0.019 C 
HETATM   24  C28 UNL     1     -16.588  20.167 -13.604  1.00  0.00     0.117 C 
ENDBRANCH  18  19
ENDBRANCH  17  18
ENDBRANCH  16  17
ENDBRANCH  10  16
ENDBRANCH   3   5
BRANCH   2  25
HETATM   25  C2  UNL     1     -15.568  20.926 -17.414  1.00  0.00     0.074 C 
HETATM   26  C3  UNL     1     -14.287  20.554 -17.471  1.00  0.00     0.005 C 
BRANCH  26  27
HETATM   27  C4  UNL     1     -13.974  19.138 -17.565  1.00  0.00    -0.002 C 
HETATM   28  C5  UNL     1     -12.996  18.582 -16.910  1.00  0.00    -0.007 C 
BRANCH  28  29
HETATM   29  C6  UNL     1     -12.066  19.246 -15.993  1.00  0.00     0.151 C 
BRANCH  29  30
HETATM   30  N1  UNL     1     -10.677  19.007 -16.327  1.00  0.00    -0.367 N 
HETATM   31  C7  UNL     1      -9.760  19.091 -15.260  1.00  0.00     0.132 C 
HETATM   32  S1  UNL     1      -9.586  17.301 -14.865  1.00  0.00    -0.122 SA
HETATM   33  C8  UNL     1      -9.985  16.706 -16.560  1.00  0.00     0.114 C 
HETATM   34  C9  UNL     1     -10.421  17.966 -17.232  1.00  0.00     0.186 C 
BRANCH  34  35
HETATM   35  C10 UNL     1      -9.526  18.351 -18.362  1.00  0.00     0.243 C 
HETATM   36  O2  UNL     1      -8.395  17.768 -18.487  1.00  0.00    -0.271 OA
HETATM   37  N2  UNL     1      -9.836  19.323 -19.317  1.00  0.00    -0.350 N 
HETATM   38  C11 UNL     1     -11.039  20.118 -19.362  1.00  0.00     0.126 C 
HETATM   39  C14 UNL     1      -9.015  19.729 -20.437  1.00  0.00     0.126 C 
HETATM   40  C12 UNL     1     -10.815  21.256 -20.299  1.00  0.00     0.021 C 
HETATM   41  C13 UNL     1      -9.400  21.159 -20.725  1.00  0.00     0.021 C 
ENDBRANCH  34  35
ENDBRANCH  29  30
ENDBRANCH  28  29
ENDBRANCH  26  27
ENDBRANCH   2  25
TORSDOF 12
ENDMDL
MODEL 5
REMARK VINA RESULT: -8.995738119      3.073      8.542
REMARK  12 active torsions:
REMARK  status: ('A' for Active; 'I' for Inactive)
REMARK    1  A    between atoms: C1_2  and  C2_3 
REMARK       I    between atoms: C1_2  and  N3_20 
REMARK    2  A    between atoms: C3_4  and  C4_5 
REMARK    3  A    between atoms: C5_6  and  C6_7 
REMARK    4  A    between atoms: C6_7  and  N1_8 
REMARK    5  A    between atoms: C9_12  and  C10_13 
REMARK       I    between atoms: C10_13  and  N2_15 
REMARK    6  A    between atoms: N3_20  and  C15_22 
REMARK    7  A    between atoms: C16_23  and  O3_24 
REMARK    8  A    between atoms: C18_27  and  C19_28 
REMARK    9  A    between atoms: C21_32  and  O6_33 
REMARK   10  A    between atoms: O6_33  and  C22_34 
REMARK   11  A    between atoms: C22_34  and  C23_35 
REMARK   12  A    between atoms: C23_35  and  N4_36 
ROOT
HETATM    1  O1  UNL     1     -11.494  21.646 -17.553  1.00  0.00    -0.268 OA
HETATM    2  C1  UNL     1     -11.448  20.511 -18.106  1.00  0.00     0.245 C 
HETATM    3  N3  UNL     1     -12.189  19.479 -17.524  1.00  0.00    -0.319 N 
ATOM      4  H3  UNL     1     -12.163  18.552 -17.949  1.00  0.00     0.169 HD
ENDROOT
BRANCH   3   5
HETATM    5  C15 UNL     1     -12.988  19.683 -16.343  1.00  0.00     0.102 A 
HETATM    6  C16 UNL     1     -12.498  19.401 -15.102  1.00  0.00     0.096 A 
HETATM    7  C17 UNL     1     -13.304  19.592 -13.987  1.00  0.00     0.057 A 
HETATM    8  C18 UNL     1     -14.590  20.060 -14.102  1.00  0.00     0.046 A 
HETATM    9  C20 UNL     1     -15.088  20.345 -15.355  1.00  0.00     0.057 A 
HETATM   10  C21 UNL     1     -14.297  20.163 -16.493  1.00  0.00     0.099 A 
BRANCH   6  11
HETATM   11  O3  UNL     1     -11.189  18.921 -14.956  1.00  0.00    -0.358 OA
ATOM     12  H3  UNL     1     -10.498  19.504 -14.665  1.00  0.00     0.217 HD
ENDBRANCH   6  11
BRANCH   8  13
HETATM   13  C19 UNL     1     -15.384  20.236 -12.897  1.00  0.00     0.209 C 
HETATM   14  O4  UNL     1     -16.634  20.355 -12.903  1.00  0.00    -0.644 OA
HETATM   15  O5  UNL     1     -14.760  20.278 -11.653  1.00  0.00    -0.644 OA
ENDBRANCH   8  13
BRANCH  10  16
HETATM   16  O6  UNL     1     -14.683  20.408 -17.773  1.00  0.00    -0.347 OA
BRANCH  16  17
HETATM   17  C22 UNL     1     -15.493  21.426 -18.223  1.00  0.00     0.195 C 
BRANCH  17  18
HETATM   18  C23 UNL     1     -14.753  22.693 -18.468  1.00  0.00     0.143 C 
BRANCH  18  19
HETATM   19  N4  UNL     1     -15.643  23.780 -18.788  1.00  0.00    -0.410 N 
HETATM   20  C24 UNL     1     -15.368  24.490 -19.982  1.00  0.00     0.117 C 
HETATM   21  C25 UNL     1     -16.698  24.813 -20.676  1.00  0.00     0.019 C 
HETATM   22  C26 UNL     1     -17.474  25.664 -19.673  1.00  0.00     0.003 C 
HETATM   23  C27 UNL     1     -17.889  24.734 -18.551  1.00  0.00     0.019 C 
HETATM   24  C28 UNL     1     -17.002  23.511 -18.487  1.00  0.00     0.117 C 
ENDBRANCH  18  19
ENDBRANCH  17  18
ENDBRANCH  16  17
ENDBRANCH  10  16
ENDBRANCH   3   5
BRANCH   2  25
HETATM   25  C2  UNL     1     -10.656  20.332 -19.283  1.00  0.00     0.074 C 
HETATM   26  C3  UNL     1      -9.485  20.937 -19.505  1.00  0.00     0.005 C 
BRANCH  26  27
HETATM   27  C4  UNL     1      -8.782  20.664 -20.747  1.00  0.00    -0.002 C 
HETATM   28  C5  UNL     1      -7.801  19.813 -20.836  1.00  0.00    -0.007 C 
BRANCH  28  29
HETATM   29  C6  UNL     1      -7.244  19.003 -19.749  1.00  0.00     0.151 C 
BRANCH  29  30
HETATM   30  N1  UNL     1      -8.102  17.898 -19.372  1.00  0.00    -0.367 N 
HETATM   31  C7  UNL     1      -8.725  17.209 -20.432  1.00  0.00     0.132 C 
HETATM   32  S1  UNL     1      -7.576  15.777 -20.581  1.00  0.00    -0.122 SA
HETATM   33  C8  UNL     1      -7.026  15.808 -18.826  1.00  0.00     0.114 C 
HETATM   34  C9  UNL     1      -7.643  17.075 -18.334  1.00  0.00     0.186 C 
BRANCH  34  35
HETATM   35  C10 UNL     1      -8.649  16.841 -17.256  1.00  0.00     0.243 C 
HETATM   36  O2  UNL     1      -9.764  17.463 -17.302  1.00  0.00    -0.271 OA
HETATM   37  N2  UNL     1      -8.460  15.976 -16.175  1.00  0.00    -0.350 N 
HETATM   38  C11 UNL     1      -7.278  15.191 -15.910  1.00  0.00     0.126 C 
HETATM   39  C14 UNL     1      -9.400  15.702 -15.110  1.00  0.00     0.126 C 
HETATM   40  C12 UNL     1      -7.346  14.701 -14.504  1.00  0.00     0.021 C 
HETATM   41  C13 UNL     1      -8.562  15.312 -13.918  1.00  0.00     0.021 C 
ENDBRANCH  34  35
ENDBRANCH  29  30
ENDBRANCH  28  29
ENDBRANCH  26  27
ENDBRANCH   2  25
TORSDOF 12
ENDMDL
