MODEL 1
REMARK VINA RESULT: -5.725307221      0.000      0.000
REMARK  7 active torsions:
REMARK  status: ('A' for Active; 'I' for Inactive)
REMARK    1  A    between atoms: C3_3  and  O1_4 
REMARK    2  A    between atoms: O1_4  and  C4_5 
REMARK    3  A    between atoms: C4_5  and  C5_6 
REMARK    4  A    between atoms: C5_6  and  N1_7 
REMARK    5  A    between atoms: N1_7  and  C6_9 
REMARK    6  A    between atoms: C6_9  and  C7_10 
REMARK    7  A    between atoms: C7_10  and  C8_11 
ROOT
HETATM    1  C5  UNL     1      15.055  -8.185  -0.906  1.00  0.00     0.140 C 
ENDROOT
BRANCH   1   2
HETATM    2  C4  UNL     1      14.771  -8.709  -2.320  1.00  0.00     0.187 C 
BRANCH   2   3
HETATM    3  O1  UNL     1      13.698  -8.076  -2.790  1.00  0.00    -0.384 OA
BRANCH   3   4
HETATM    4  C3  UNL     1      13.700  -6.790  -3.113  1.00  0.00     0.121 C 
HETATM    5  C2  UNL     1      13.346  -6.286  -4.453  1.00  0.00     0.032 C 
HETATM    6  C1  UNL     1      11.903  -6.027  -4.001  1.00  0.00     0.005 C 
HETATM    7  C11 UNL     1      12.441  -6.084  -2.582  1.00  0.00     0.032 C 
ENDBRANCH   3   4
ENDBRANCH   2   3
ENDBRANCH   1   2
BRANCH   1   8
HETATM    8  N1  UNL     1      15.799  -9.114  -0.124  1.00  0.00    -0.419 N 
ATOM      9  H1  UNL     1      16.495  -8.811   0.558  1.00  0.00     0.153 HD
BRANCH   8  10
HETATM   10  C6  UNL     1      15.516 -10.496  -0.351  1.00  0.00     0.114 C 
BRANCH  10  11
HETATM   11  C7  UNL     1      16.215 -11.328   0.696  1.00  0.00     0.024 C 
BRANCH  11  12
HETATM   12  C8  UNL     1      15.228 -12.071   1.573  1.00  0.00    -0.013 A 
HETATM   13  C9  UNL     1      14.370 -11.368   2.526  1.00  0.00     0.005 A 
HETATM   14  C10 UNL     1      15.608 -12.112   3.068  1.00  0.00     0.005 A 
ENDBRANCH  11  12
ENDBRANCH  10  11
ENDBRANCH   8  10
ENDBRANCH   1   8
TORSDOF 7
ENDMDL
MODEL 2
REMARK VINA RESULT: -5.670180270      1.206      1.527
REMARK  7 active torsions:
REMARK  status: ('A' for Active; 'I' for Inactive)
REMARK    1  A    between atoms: C3_3  and  O1_4 
REMARK    2  A    between atoms: O1_4  and  C4_5 
REMARK    3  A    between atoms: C4_5  and  C5_6 
REMARK    4  A    between atoms: C5_6  and  N1_7 
REMARK    5  A    between atoms: N1_7  and  C6_9 
REMARK    6  A    between atoms: C6_9  and  C7_10 
REMARK    7  A    between atoms: C7_10  and  C8_11 
ROOT
HETATM    1  C5  UNL     1      13.576  -9.680  -1.690  1.00  0.00     0.140 C 
ENDROOT
BRANCH   1   2
HETATM    2  C4  UNL     1      14.401  -8.464  -2.132  1.00  0.00     0.187 C 
BRANCH   2   3
HETATM    3  O1  UNL     1      13.798  -7.912  -3.182  1.00  0.00    -0.384 OA
BRANCH   3   4
HETATM    4  C3  UNL     1      13.639  -6.602  -3.319  1.00  0.00     0.121 C 
HETATM    5  C2  UNL     1      13.098  -5.971  -4.538  1.00  0.00     0.032 C 
HETATM    6  C1  UNL     1      11.692  -5.937  -3.925  1.00  0.00     0.005 C 
HETATM    7  C11 UNL     1      12.379  -6.117  -2.583  1.00  0.00     0.032 C 
ENDBRANCH   3   4
ENDBRANCH   2   3
ENDBRANCH   1   2
BRANCH   1   8
HETATM    8  N1  UNL     1      13.265  -9.647  -0.301  1.00  0.00    -0.419 N 
ATOM      9  H1  UNL     1      12.353  -9.936   0.055  1.00  0.00     0.153 HD
BRANCH   8  10
HETATM   10  C6  UNL     1      14.303  -9.186   0.565  1.00  0.00     0.114 C 
BRANCH  10  11
HETATM   11  C7  UNL     1      14.362 -10.066   1.789  1.00  0.00     0.024 C 
BRANCH  11  12
HETATM   12  C8  UNL     1      15.571 -10.977   1.767  1.00  0.00    -0.013 A 
HETATM   13  C9  UNL     1      15.705 -12.051   0.782  1.00  0.00     0.005 A 
HETATM   14  C10 UNL     1      15.289 -12.425   2.220  1.00  0.00     0.005 A 
ENDBRANCH  11  12
ENDBRANCH  10  11
ENDBRANCH   8  10
ENDBRANCH   1   8
TORSDOF 7
ENDMDL
MODEL 3
REMARK VINA RESULT: -5.615433968      2.418      6.662
REMARK  7 active torsions:
REMARK  status: ('A' for Active; 'I' for Inactive)
REMARK    1  A    between atoms: C3_3  and  O1_4 
REMARK    2  A    between atoms: O1_4  and  C4_5 
REMARK    3  A    between atoms: C4_5  and  C5_6 
REMARK    4  A    between atoms: C5_6  and  N1_7 
REMARK    5  A    between atoms: N1_7  and  C6_9 
REMARK    6  A    between atoms: C6_9  and  C7_10 
REMARK    7  A    between atoms: C7_10  and  C8_11 
ROOT
HETATM    1  C5  UNL     1      15.328  -8.925  -1.153  1.00  0.00     0.140 C 
ENDROOT
BRANCH   1   2
HETATM    2  C4  UNL     1      16.244  -8.951   0.078  1.00  0.00     0.187 C 
BRANCH   2   3
HETATM    3  O1  UNL     1      15.571  -9.505   1.085  1.00  0.00    -0.384 OA
BRANCH   3   4
HETATM    4  C3  UNL     1      15.031 -10.715   1.015  1.00  0.00     0.121 C 
HETATM    5  C2  UNL     1      15.812 -11.962   1.120  1.00  0.00     0.032 C 
HETATM    6  C1  UNL     1      15.498 -12.060   2.619  1.00  0.00     0.005 C 
HETATM    7  C11 UNL     1      14.356 -11.098   2.343  1.00  0.00     0.032 C 
ENDBRANCH   3   4
ENDBRANCH   2   3
ENDBRANCH   1   2
BRANCH   1   8
HETATM    8  N1  UNL     1      14.645  -7.683  -1.292  1.00  0.00    -0.419 N 
ATOM      9  H1  UNL     1      14.149  -7.249  -0.513  1.00  0.00     0.153 HD
BRANCH   8  10
HETATM   10  C6  UNL     1      14.695  -7.080  -2.586  1.00  0.00     0.114 C 
BRANCH  10  11
HETATM   11  C7  UNL     1      14.475  -5.592  -2.453  1.00  0.00     0.024 C 
BRANCH  11  12
HETATM   12  C8  UNL     1      15.784  -4.832  -2.420  1.00  0.00    -0.013 A 
HETATM   13  C9  UNL     1      16.530  -4.645  -1.176  1.00  0.00     0.005 A 
HETATM   14  C10 UNL     1      15.708  -3.459  -1.721  1.00  0.00     0.005 A 
ENDBRANCH  11  12
ENDBRANCH  10  11
ENDBRANCH   8  10
ENDBRANCH   1   8
TORSDOF 7
ENDMDL
MODEL 4
REMARK VINA RESULT: -5.589007537      1.715      6.735
REMARK  7 active torsions:
REMARK  status: ('A' for Active; 'I' for Inactive)
REMARK    1  A    between atoms: C3_3  and  O1_4 
REMARK    2  A    between atoms: O1_4  and  C4_5 
REMARK    3  A    between atoms: C4_5  and  C5_6 
REMARK    4  A    between atoms: C5_6  and  N1_7 
REMARK    5  A    between atoms: N1_7  and  C6_9 
REMARK    6  A    between atoms: C6_9  and  C7_10 
REMARK    7  A    between atoms: C7_10  and  C8_11 
ROOT
HETATM    1  C5  UNL     1      13.825  -9.708  -1.525  1.00  0.00     0.140 C 
ENDROOT
BRANCH   1   2
HETATM    2  C4  UNL     1      13.743  -9.222  -0.072  1.00  0.00     0.187 C 
BRANCH   2   3
HETATM    3  O1  UNL     1      13.940 -10.268   0.727  1.00  0.00    -0.384 OA
BRANCH   3   4
HETATM    4  C3  UNL     1      15.092 -10.502   1.343  1.00  0.00     0.121 C 
HETATM    5  C2  UNL     1      15.190 -10.954   2.743  1.00  0.00     0.032 C 
HETATM    6  C1  UNL     1      15.295 -12.416   2.289  1.00  0.00     0.005 C 
HETATM    7  C11 UNL     1      15.676 -11.863   0.927  1.00  0.00     0.032 C 
ENDBRANCH   3   4
ENDBRANCH   2   3
ENDBRANCH   1   2
BRANCH   1   8
HETATM    8  N1  UNL     1      14.340  -8.709  -2.401  1.00  0.00    -0.419 N 
ATOM      9  H1  UNL     1      14.374  -8.842  -3.412  1.00  0.00     0.153 HD
BRANCH   8  10
HETATM   10  C6  UNL     1      14.809  -7.510  -1.781  1.00  0.00     0.114 C 
BRANCH  10  11
HETATM   11  C7  UNL     1      14.209  -6.317  -2.483  1.00  0.00     0.024 C 
BRANCH  11  12
HETATM   12  C8  UNL     1      13.357  -6.731  -3.665  1.00  0.00    -0.013 A 
HETATM   13  C9  UNL     1      13.179  -5.857  -4.825  1.00  0.00     0.005 A 
HETATM   14  C10 UNL     1      12.030  -5.955  -3.800  1.00  0.00     0.005 A 
ENDBRANCH  11  12
ENDBRANCH  10  11
ENDBRANCH   8  10
ENDBRANCH   1   8
TORSDOF 7
ENDMDL
MODEL 5
REMARK VINA RESULT: -5.586599103      2.427      6.669
REMARK  7 active torsions:
REMARK  status: ('A' for Active; 'I' for Inactive)
REMARK    1  A    between atoms: C3_3  and  O1_4 
REMARK    2  A    between atoms: O1_4  and  C4_5 
REMARK    3  A    between atoms: C4_5  and  C5_6 
REMARK    4  A    between atoms: C5_6  and  N1_7 
REMARK    5  A    between atoms: N1_7  and  C6_9 
REMARK    6  A    between atoms: C6_9  and  C7_10 
REMARK    7  A    between atoms: C7_10  and  C8_11 
ROOT
HETATM    1  C5  UNL     1      14.439  -8.359  -0.695  1.00  0.00     0.140 C 
ENDROOT
BRANCH   1   2
HETATM    2  C4  UNL     1      13.826  -9.757  -0.529  1.00  0.00     0.187 C 
BRANCH   2   3
HETATM    3  O1  UNL     1      13.927 -10.104   0.752  1.00  0.00    -0.384 OA
BRANCH   3   4
HETATM    4  C3  UNL     1      15.085 -10.382   1.337  1.00  0.00     0.121 C 
HETATM    5  C2  UNL     1      15.196 -10.949   2.695  1.00  0.00     0.032 C 
HETATM    6  C1  UNL     1      15.305 -12.367   2.120  1.00  0.00     0.005 C 
HETATM    7  C11 UNL     1      15.672 -11.701   0.806  1.00  0.00     0.032 C 
ENDBRANCH   3   4
ENDBRANCH   2   3
ENDBRANCH   1   2
BRANCH   1   8
HETATM    8  N1  UNL     1      13.781  -7.597  -1.702  1.00  0.00    -0.419 N 
ATOM      9  H1  UNL     1      12.767  -7.480  -1.714  1.00  0.00     0.153 HD
BRANCH   8  10
HETATM   10  C6  UNL     1      14.621  -7.006  -2.694  1.00  0.00     0.114 C 
BRANCH  10  11
HETATM   11  C7  UNL     1      14.457  -5.506  -2.659  1.00  0.00     0.024 C 
BRANCH  11  12
HETATM   12  C8  UNL     1      15.782  -4.801  -2.458  1.00  0.00    -0.013 A 
HETATM   13  C9  UNL     1      16.447  -4.776  -1.156  1.00  0.00     0.005 A 
HETATM   14  C10 UNL     1      15.698  -3.509  -1.618  1.00  0.00     0.005 A 
ENDBRANCH  11  12
ENDBRANCH  10  11
ENDBRANCH   8  10
ENDBRANCH   1   8
TORSDOF 7
ENDMDL
