MODEL 1
REMARK VINA RESULT: -6.707200025      0.000      0.000
REMARK  6 active torsions:
REMARK  status: ('A' for Active; 'I' for Inactive)
REMARK    1  A    between atoms: N1_4  and  C4_5 
REMARK    2  A    between atoms: C4_5  and  C5_6 
REMARK    3  A    between atoms: C5_6  and  C6_7 
REMARK    4  A    between atoms: C5_6  and  C7_12 
REMARK    5  A    between atoms: C6_7  and  N2_8 
REMARK    6  A    between atoms: C7_12  and  C8_13 
ROOT
HETATM    1  C5  UNL     1      18.552  -4.406  -3.138  1.00  0.00     0.038 C 
ENDROOT
BRANCH   1   2
HETATM    2  C4  UNL     1      19.452  -3.241  -3.169  1.00  0.00     0.130 C 
BRANCH   2   3
HETATM    3  N1  UNL     1      19.741  -2.601  -4.409  1.00  0.00    -0.377 N 
HETATM    4  C2  UNL     1      20.481  -2.560  -5.666  1.00  0.00     0.016 A 
HETATM    5  C1  UNL     1      21.393  -3.106  -6.464  1.00  0.00     0.039 C 
HETATM    6  C3  UNL     1      19.524  -1.519  -5.413  1.00  0.00     0.178 A 
ENDBRANCH   2   3
ENDBRANCH   1   2
BRANCH   1   7
HETATM    7  C6  UNL     1      18.533  -5.219  -4.388  1.00  0.00     0.236 C 
BRANCH   7   8
HETATM    8  N2  UNL     1      19.720  -6.088  -4.478  1.00  0.00    -0.079 N 
ATOM      9  H23 UNL     1      20.583  -5.544  -4.462  1.00  0.00     0.274 HD
ATOM     10  H22 UNL     1      19.858  -6.625  -3.622  1.00  0.00     0.274 HD
ATOM     11  H21 UNL     1      19.674  -6.694  -5.297  1.00  0.00     0.274 HD
ENDBRANCH   7   8
ENDBRANCH   1   7
BRANCH   1  12
HETATM   12  C7  UNL     1      17.202  -4.102  -2.537  1.00  0.00    -0.030 C 
HETATM   13  C11 UNL     1      16.092  -4.393  -3.525  1.00  0.00     0.010 C 
HETATM   14  C12 UNL     1      15.443  -3.059  -3.872  1.00  0.00     0.001 C 
HETATM   15  C13 UNL     1      15.716  -2.208  -2.648  1.00  0.00     0.001 C 
HETATM   16  C14 UNL     1      17.127  -2.629  -2.236  1.00  0.00     0.010 C 
BRANCH  12  17
HETATM   17  C8  UNL     1      16.975  -4.916  -1.320  1.00  0.00    -0.005 A 
HETATM   18  C9  UNL     1      17.905  -5.946  -0.834  1.00  0.00     0.006 A 
HETATM   19  C10 UNL     1      16.459  -6.311  -1.244  1.00  0.00     0.006 A 
ENDBRANCH  12  17
ENDBRANCH   1  12
TORSDOF 6
ENDMDL
MODEL 2
REMARK VINA RESULT: -6.570392104      2.004      5.025
REMARK  6 active torsions:
REMARK  status: ('A' for Active; 'I' for Inactive)
REMARK    1  A    between atoms: N1_4  and  C4_5 
REMARK    2  A    between atoms: C4_5  and  C5_6 
REMARK    3  A    between atoms: C5_6  and  C6_7 
REMARK    4  A    between atoms: C5_6  and  C7_12 
REMARK    5  A    between atoms: C6_7  and  N2_8 
REMARK    6  A    between atoms: C7_12  and  C8_13 
ROOT
HETATM    1  C5  UNL     1      18.715  -3.198  -4.030  1.00  0.00     0.038 C 
ENDROOT
BRANCH   1   2
HETATM    2  C4  UNL     1      17.886  -1.985  -4.134  1.00  0.00     0.130 C 
BRANCH   2   3
HETATM    3  N1  UNL     1      16.627  -1.926  -3.471  1.00  0.00    -0.377 N 
HETATM    4  C2  UNL     1      15.667  -2.497  -2.531  1.00  0.00     0.016 A 
HETATM    5  C1  UNL     1      15.350  -3.473  -1.686  1.00  0.00     0.039 C 
HETATM    6  C3  UNL     1      15.326  -1.260  -3.175  1.00  0.00     0.178 A 
ENDBRANCH   2   3
ENDBRANCH   1   2
BRANCH   1   7
HETATM    7  C6  UNL     1      18.986  -3.654  -2.636  1.00  0.00     0.236 C 
BRANCH   7   8
HETATM    8  N2  UNL     1      18.629  -5.073  -2.459  1.00  0.00    -0.079 N 
ATOM      9  H23 UNL     1      19.372  -5.690  -2.787  1.00  0.00     0.274 HD
ATOM     10  H22 UNL     1      18.629  -5.339  -1.474  1.00  0.00     0.274 HD
ATOM     11  H21 UNL     1      17.738  -5.289  -2.906  1.00  0.00     0.274 HD
ENDBRANCH   7   8
ENDBRANCH   1   7
BRANCH   1  12
HETATM   12  C7  UNL     1      19.904  -3.191  -4.958  1.00  0.00    -0.030 C 
HETATM   13  C11 UNL     1      21.198  -3.093  -4.177  1.00  0.00     0.010 C 
HETATM   14  C12 UNL     1      21.824  -1.748  -4.521  1.00  0.00     0.001 C 
HETATM   15  C13 UNL     1      21.273  -1.446  -5.900  1.00  0.00     0.001 C 
HETATM   16  C14 UNL     1      19.836  -1.961  -5.823  1.00  0.00     0.010 C 
BRANCH  12  17
HETATM   17  C8  UNL     1      19.938  -4.427  -5.774  1.00  0.00    -0.005 A 
HETATM   18  C9  UNL     1      20.720  -5.622  -5.425  1.00  0.00     0.006 A 
HETATM   19  C10 UNL     1      20.992  -4.850  -6.738  1.00  0.00     0.006 A 
ENDBRANCH  12  17
ENDBRANCH   1  12
TORSDOF 6
ENDMDL
MODEL 3
REMARK VINA RESULT: -6.556299064      1.269      1.353
REMARK  6 active torsions:
REMARK  status: ('A' for Active; 'I' for Inactive)
REMARK    1  A    between atoms: N1_4  and  C4_5 
REMARK    2  A    between atoms: C4_5  and  C5_6 
REMARK    3  A    between atoms: C5_6  and  C6_7 
REMARK    4  A    between atoms: C5_6  and  C7_12 
REMARK    5  A    between atoms: C6_7  and  N2_8 
REMARK    6  A    between atoms: C7_12  and  C8_13 
ROOT
HETATM    1  C5  UNL     1      18.825  -3.813  -3.945  1.00  0.00     0.038 C 
ENDROOT
BRANCH   1   2
HETATM    2  C4  UNL     1      19.121  -2.480  -4.497  1.00  0.00     0.130 C 
BRANCH   2   3
HETATM    3  N1  UNL     1      20.474  -2.067  -4.667  1.00  0.00    -0.377 N 
HETATM    4  C2  UNL     1      21.888  -2.207  -4.333  1.00  0.00     0.016 A 
HETATM    5  C1  UNL     1      22.832  -2.821  -3.627  1.00  0.00     0.039 C 
HETATM    6  C3  UNL     1      21.520  -1.217  -5.307  1.00  0.00     0.178 A 
ENDBRANCH   2   3
ENDBRANCH   1   2
BRANCH   1   7
HETATM    7  C6  UNL     1      19.002  -4.943  -4.902  1.00  0.00     0.236 C 
BRANCH   7   8
HETATM    8  N2  UNL     1      20.327  -5.570  -4.749  1.00  0.00    -0.079 N 
ATOM      9  H23 UNL     1      20.876  -5.112  -4.022  1.00  0.00     0.274 HD
ATOM     10  H22 UNL     1      20.256  -6.498  -4.330  1.00  0.00     0.274 HD
ATOM     11  H21 UNL     1      20.829  -5.597  -5.636  1.00  0.00     0.274 HD
ENDBRANCH   7   8
ENDBRANCH   1   7
BRANCH   1  12
HETATM   12  C7  UNL     1      17.564  -3.850  -3.118  1.00  0.00    -0.030 C 
HETATM   13  C11 UNL     1      16.464  -4.599  -3.842  1.00  0.00     0.010 C 
HETATM   14  C12 UNL     1      15.373  -3.586  -4.163  1.00  0.00     0.001 C 
HETATM   15  C13 UNL     1      15.548  -2.528  -3.091  1.00  0.00     0.001 C 
HETATM   16  C14 UNL     1      17.066  -2.442  -2.931  1.00  0.00     0.010 C 
BRANCH  12  17
HETATM   17  C8  UNL     1      17.810  -4.515  -1.817  1.00  0.00    -0.005 A 
HETATM   18  C9  UNL     1      17.869  -5.973  -1.638  1.00  0.00     0.006 A 
HETATM   19  C10 UNL     1      16.803  -5.125  -0.904  1.00  0.00     0.006 A 
ENDBRANCH  12  17
ENDBRANCH   1  12
TORSDOF 6
ENDMDL
MODEL 4
REMARK VINA RESULT: -6.353829386      1.865      3.077
REMARK  6 active torsions:
REMARK  status: ('A' for Active; 'I' for Inactive)
REMARK    1  A    between atoms: N1_4  and  C4_5 
REMARK    2  A    between atoms: C4_5  and  C5_6 
REMARK    3  A    between atoms: C5_6  and  C6_7 
REMARK    4  A    between atoms: C5_6  and  C7_12 
REMARK    5  A    between atoms: C6_7  and  N2_8 
REMARK    6  A    between atoms: C7_12  and  C8_13 
ROOT
HETATM    1  C5  UNL     1      17.863  -4.232  -3.848  1.00  0.00     0.038 C 
ENDROOT
BRANCH   1   2
HETATM    2  C4  UNL     1      19.216  -3.690  -3.631  1.00  0.00     0.130 C 
BRANCH   2   3
HETATM    3  N1  UNL     1      20.272  -4.040  -4.520  1.00  0.00    -0.377 N 
HETATM    4  C2  UNL     1      20.848  -4.959  -5.496  1.00  0.00     0.016 A 
HETATM    5  C1  UNL     1      20.750  -6.094  -6.182  1.00  0.00     0.039 C 
HETATM    6  C3  UNL     1      21.581  -3.766  -5.180  1.00  0.00     0.178 A 
ENDBRANCH   2   3
ENDBRANCH   1   2
BRANCH   1   7
HETATM    7  C6  UNL     1      16.771  -3.217  -3.837  1.00  0.00     0.236 C 
BRANCH   7   8
HETATM    8  N2  UNL     1      17.067  -2.124  -2.894  1.00  0.00    -0.079 N 
ATOM      9  H23 UNL     1      17.950  -2.278  -2.408  1.00  0.00     0.274 HD
ATOM     10  H22 UNL     1      17.305  -1.261  -3.383  1.00  0.00     0.274 HD
ATOM     11  H21 UNL     1      16.298  -1.983  -2.238  1.00  0.00     0.274 HD
ENDBRANCH   7   8
ENDBRANCH   1   7
BRANCH   1  12
HETATM   12  C7  UNL     1      17.592  -5.493  -3.065  1.00  0.00    -0.030 C 
HETATM   13  C11 UNL     1      16.135  -5.572  -2.657  1.00  0.00     0.010 C 
HETATM   14  C12 UNL     1      16.093  -5.470  -1.138  1.00  0.00     0.001 C 
HETATM   15  C13 UNL     1      17.450  -5.995  -0.712  1.00  0.00     0.001 C 
HETATM   16  C14 UNL     1      18.389  -5.450  -1.789  1.00  0.00     0.010 C 
BRANCH  12  17
HETATM   17  C8  UNL     1      17.921  -6.691  -3.871  1.00  0.00    -0.005 A 
HETATM   18  C9  UNL     1      17.266  -7.033  -5.142  1.00  0.00     0.006 A 
HETATM   19  C10 UNL     1      17.181  -7.983  -3.922  1.00  0.00     0.006 A 
ENDBRANCH  12  17
ENDBRANCH   1  12
TORSDOF 6
ENDMDL
MODEL 5
REMARK VINA RESULT: -6.345222328      1.686      3.072
REMARK  6 active torsions:
REMARK  status: ('A' for Active; 'I' for Inactive)
REMARK    1  A    between atoms: N1_4  and  C4_5 
REMARK    2  A    between atoms: C4_5  and  C5_6 
REMARK    3  A    between atoms: C5_6  and  C6_7 
REMARK    4  A    between atoms: C5_6  and  C7_12 
REMARK    5  A    between atoms: C6_7  and  N2_8 
REMARK    6  A    between atoms: C7_12  and  C8_13 
ROOT
HETATM    1  C5  UNL     1      17.034  -3.960  -3.783  1.00  0.00     0.038 C 
ENDROOT
BRANCH   1   2
HETATM    2  C4  UNL     1      18.036  -2.901  -3.572  1.00  0.00     0.130 C 
BRANCH   2   3
HETATM    3  N1  UNL     1      19.018  -2.645  -4.572  1.00  0.00    -0.377 N 
HETATM    4  C2  UNL     1      20.046  -3.132  -5.486  1.00  0.00     0.016 A 
HETATM    5  C1  UNL     1      20.745  -4.157  -5.965  1.00  0.00     0.039 C 
HETATM    6  C3  UNL     1      19.756  -1.726  -5.486  1.00  0.00     0.178 A 
ENDBRANCH   2   3
ENDBRANCH   1   2
BRANCH   1   7
HETATM    7  C6  UNL     1      15.618  -3.528  -3.603  1.00  0.00     0.236 C 
BRANCH   7   8
HETATM    8  N2  UNL     1      15.523  -2.372  -2.693  1.00  0.00    -0.079 N 
ATOM      9  H23 UNL     1      15.558  -2.662  -1.716  1.00  0.00     0.274 HD
ATOM     10  H22 UNL     1      16.371  -1.805  -2.719  1.00  0.00     0.274 HD
ATOM     11  H21 UNL     1      14.693  -1.814  -2.889  1.00  0.00     0.274 HD
ENDBRANCH   7   8
ENDBRANCH   1   7
BRANCH   1  12
HETATM   12  C7  UNL     1      17.405  -5.271  -3.135  1.00  0.00    -0.030 C 
HETATM   13  C11 UNL     1      16.194  -5.918  -2.495  1.00  0.00     0.010 C 
HETATM   14  C12 UNL     1      16.437  -5.925  -0.991  1.00  0.00     0.001 C 
HETATM   15  C13 UNL     1      17.948  -5.920  -0.879  1.00  0.00     0.001 C 
HETATM   16  C14 UNL     1      18.381  -5.001  -2.022  1.00  0.00     0.010 C 
BRANCH  12  17
HETATM   17  C8  UNL     1      17.967  -6.208  -4.135  1.00  0.00    -0.005 A 
HETATM   18  C9  UNL     1      17.269  -6.619  -5.362  1.00  0.00     0.006 A 
HETATM   19  C10 UNL     1      17.669  -7.659  -4.288  1.00  0.00     0.006 A 
ENDBRANCH  12  17
ENDBRANCH   1  12
TORSDOF 6
ENDMDL
