MODEL 1
REMARK VINA RESULT: -6.833567133      0.000      0.000
REMARK  5 active torsions:
REMARK  status: ('A' for Active; 'I' for Inactive)
REMARK    1  A    between atoms: C2_2  and  C3_3 
REMARK    2  A    between atoms: C2_2  and  C10_10 
REMARK    3  A    between atoms: C4_4  and  C5_5 
REMARK    4  A    between atoms: C5_5  and  C7_7 
REMARK    5  A    between atoms: C10_10  and  N1_11 
ROOT
HETATM    1  C1  UNL     1      18.758  -1.646  -4.811  1.00  0.00     0.025 C 
HETATM    2  C2  UNL     1      19.293  -2.576  -4.064  1.00  0.00    -0.030 C 
ENDROOT
BRANCH   2   3
HETATM    3  C3  UNL     1      18.575  -3.022  -2.823  1.00  0.00     0.012 C 
HETATM    4  C4  UNL     1      18.123  -4.232  -2.678  1.00  0.00     0.007 C 
BRANCH   4   5
HETATM    5  C5  UNL     1      17.426  -4.850  -1.592  1.00  0.00    -0.063 C 
HETATM    6  C6  UNL     1      18.076  -5.886  -0.983  1.00  0.00     0.019 C 
BRANCH   5   7
HETATM    7  C7  UNL     1      16.109  -4.555  -1.039  1.00  0.00     0.018 A 
HETATM    8  C8  UNL     1      15.134  -3.559  -1.431  1.00  0.00     0.010 A 
HETATM    9  C9  UNL     1      14.953  -4.946  -1.996  1.00  0.00     0.010 A 
ENDBRANCH   5   7
ENDBRANCH   4   5
ENDBRANCH   2   3
BRANCH   2  10
HETATM   10  C10 UNL     1      20.589  -3.183  -4.400  1.00  0.00     0.102 C 
BRANCH  10  11
HETATM   11  N1  UNL     1      20.572  -4.009  -5.513  1.00  0.00    -0.352 N 
HETATM   12  C11 UNL     1      20.449  -5.397  -5.408  1.00  0.00     0.130 C 
HETATM   13  C12 UNL     1      20.913  -6.134  -6.671  1.00  0.00     0.040 C 
HETATM   14  C13 UNL     1      20.112  -5.504  -7.791  1.00  0.00     0.122 C 
HETATM   15  N2  UNL     1      20.495  -4.144  -7.934  1.00  0.00    -0.386 N 
HETATM   16  C14 UNL     1      20.968  -3.477  -6.766  1.00  0.00     0.178 C 
ATOM     17  H2  UNL     1      20.435  -3.665  -8.833  1.00  0.00     0.160 HD
ENDBRANCH  10  11
ENDBRANCH   2  10
TORSDOF 5
ENDMDL
MODEL 2
REMARK VINA RESULT: -6.817085817      2.991      6.632
REMARK  5 active torsions:
REMARK  status: ('A' for Active; 'I' for Inactive)
REMARK    1  A    between atoms: C2_2  and  C3_3 
REMARK    2  A    between atoms: C2_2  and  C10_10 
REMARK    3  A    between atoms: C4_4  and  C5_5 
REMARK    4  A    between atoms: C5_5  and  C7_7 
REMARK    5  A    between atoms: C10_10  and  N1_11 
ROOT
HETATM    1  C1  UNL     1      18.335  -6.588  -5.358  1.00  0.00     0.025 C 
HETATM    2  C2  UNL     1      19.336  -5.759  -5.493  1.00  0.00    -0.030 C 
ENDROOT
BRANCH   2   3
HETATM    3  C3  UNL     1      20.048  -5.680  -6.813  1.00  0.00     0.012 C 
HETATM    4  C4  UNL     1      20.031  -6.655  -7.672  1.00  0.00     0.007 C 
BRANCH   4   5
HETATM    5  C5  UNL     1      20.631  -6.778  -8.965  1.00  0.00    -0.063 C 
HETATM    6  C6  UNL     1      20.702  -5.627  -9.697  1.00  0.00     0.019 C 
BRANCH   5   7
HETATM    7  C7  UNL     1      21.169  -7.955  -9.637  1.00  0.00     0.018 A 
HETATM    8  C8  UNL     1      22.423  -8.137 -10.338  1.00  0.00     0.010 A 
HETATM    9  C9  UNL     1      22.384  -8.570  -8.894  1.00  0.00     0.010 A 
ENDBRANCH   5   7
ENDBRANCH   4   5
ENDBRANCH   2   3
BRANCH   2  10
HETATM   10  C10 UNL     1      19.793  -4.914  -4.380  1.00  0.00     0.102 C 
BRANCH  10  11
HETATM   11  N1  UNL     1      20.253  -3.661  -4.753  1.00  0.00    -0.352 N 
HETATM   12  C11 UNL     1      21.609  -3.323  -4.715  1.00  0.00     0.130 C 
HETATM   13  C12 UNL     1      21.846  -1.808  -4.710  1.00  0.00     0.040 C 
HETATM   14  C13 UNL     1      21.096  -1.304  -5.926  1.00  0.00     0.122 C 
HETATM   15  N2  UNL     1      19.704  -1.511  -5.737  1.00  0.00    -0.386 N 
HETATM   16  C14 UNL     1      19.317  -2.607  -4.910  1.00  0.00     0.178 C 
ATOM     17  H2  UNL     1      19.011  -0.903  -6.174  1.00  0.00     0.160 HD
ENDBRANCH  10  11
ENDBRANCH   2  10
TORSDOF 5
ENDMDL
MODEL 3
REMARK VINA RESULT: -6.655959235      4.073      6.287
REMARK  5 active torsions:
REMARK  status: ('A' for Active; 'I' for Inactive)
REMARK    1  A    between atoms: C2_2  and  C3_3 
REMARK    2  A    between atoms: C2_2  and  C10_10 
REMARK    3  A    between atoms: C4_4  and  C5_5 
REMARK    4  A    between atoms: C5_5  and  C7_7 
REMARK    5  A    between atoms: C10_10  and  N1_11 
ROOT
HETATM    1  C1  UNL     1      16.900  -5.886  -0.897  1.00  0.00     0.025 C 
HETATM    2  C2  UNL     1      15.759  -6.253  -1.419  1.00  0.00    -0.030 C 
ENDROOT
BRANCH   2   3
HETATM    3  C3  UNL     1      15.306  -7.676  -1.263  1.00  0.00     0.012 C 
HETATM    4  C4  UNL     1      14.902  -8.157  -0.125  1.00  0.00     0.007 C 
BRANCH   4   5
HETATM    5  C5  UNL     1      14.435  -9.462   0.231  1.00  0.00    -0.063 C 
HETATM    6  C6  UNL     1      14.171 -10.301  -0.814  1.00  0.00     0.019 C 
BRANCH   5   7
HETATM    7  C7  UNL     1      14.178 -10.036   1.546  1.00  0.00     0.018 A 
HETATM    8  C8  UNL     1      14.862 -11.101   2.249  1.00  0.00     0.010 A 
HETATM    9  C9  UNL     1      15.282  -9.691   2.579  1.00  0.00     0.010 A 
ENDBRANCH   5   7
ENDBRANCH   4   5
ENDBRANCH   2   3
BRANCH   2  10
HETATM   10  C10 UNL     1      14.916  -5.311  -2.170  1.00  0.00     0.102 C 
BRANCH  10  11
HETATM   11  N1  UNL     1      15.577  -4.184  -2.632  1.00  0.00    -0.352 N 
HETATM   12  C11 UNL     1      15.356  -2.916  -2.088  1.00  0.00     0.130 C 
HETATM   13  C12 UNL     1      15.807  -1.781  -3.016  1.00  0.00     0.040 C 
HETATM   14  C13 UNL     1      17.255  -2.100  -3.328  1.00  0.00     0.122 C 
HETATM   15  N2  UNL     1      17.319  -3.306  -4.076  1.00  0.00    -0.386 N 
HETATM   16  C14 UNL     1      16.279  -4.258  -3.862  1.00  0.00     0.178 C 
ATOM     17  H2  UNL     1      18.074  -3.482  -4.738  1.00  0.00     0.160 HD
ENDBRANCH  10  11
ENDBRANCH   2  10
TORSDOF 5
ENDMDL
MODEL 4
REMARK VINA RESULT: -6.640766873      3.722      5.568
REMARK  5 active torsions:
REMARK  status: ('A' for Active; 'I' for Inactive)
REMARK    1  A    between atoms: C2_2  and  C3_3 
REMARK    2  A    between atoms: C2_2  and  C10_10 
REMARK    3  A    between atoms: C4_4  and  C5_5 
REMARK    4  A    between atoms: C5_5  and  C7_7 
REMARK    5  A    between atoms: C10_10  and  N1_11 
ROOT
HETATM    1  C1  UNL     1      17.185  -5.910  -0.543  1.00  0.00     0.025 C 
HETATM    2  C2  UNL     1      16.282  -6.175  -1.450  1.00  0.00    -0.030 C 
ENDROOT
BRANCH   2   3
HETATM    3  C3  UNL     1      15.477  -7.437  -1.335  1.00  0.00     0.012 C 
HETATM    4  C4  UNL     1      15.317  -8.060  -0.205  1.00  0.00     0.007 C 
BRANCH   4   5
HETATM    5  C5  UNL     1      14.599  -9.255   0.115  1.00  0.00    -0.063 C 
HETATM    6  C6  UNL     1      14.237 -10.032  -0.949  1.00  0.00     0.019 C 
BRANCH   5   7
HETATM    7  C7  UNL     1      14.173  -9.771   1.411  1.00  0.00     0.018 A 
HETATM    8  C8  UNL     1      14.627 -10.931   2.148  1.00  0.00     0.010 A 
HETATM    9  C9  UNL     1      15.257  -9.610   2.508  1.00  0.00     0.010 A 
ENDBRANCH   5   7
ENDBRANCH   4   5
ENDBRANCH   2   3
BRANCH   2  10
HETATM   10  C10 UNL     1      16.047  -5.276  -2.589  1.00  0.00     0.102 C 
BRANCH  10  11
HETATM   11  N1  UNL     1      17.155  -4.547  -2.992  1.00  0.00    -0.352 N 
HETATM   12  C11 UNL     1      17.220  -3.157  -2.860  1.00  0.00     0.130 C 
HETATM   13  C12 UNL     1      18.285  -2.522  -3.763  1.00  0.00     0.040 C 
HETATM   14  C13 UNL     1      19.563  -3.258  -3.416  1.00  0.00     0.122 C 
HETATM   15  N2  UNL     1      19.440  -4.619  -3.805  1.00  0.00    -0.386 N 
HETATM   16  C14 UNL     1      18.128  -5.177  -3.809  1.00  0.00     0.178 C 
ATOM     17  H2  UNL     1      20.255  -5.172  -4.069  1.00  0.00     0.160 HD
ENDBRANCH  10  11
ENDBRANCH   2  10
TORSDOF 5
ENDMDL
MODEL 5
REMARK VINA RESULT: -6.606592469      1.660      2.175
REMARK  5 active torsions:
REMARK  status: ('A' for Active; 'I' for Inactive)
REMARK    1  A    between atoms: C2_2  and  C3_3 
REMARK    2  A    between atoms: C2_2  and  C10_10 
REMARK    3  A    between atoms: C4_4  and  C5_5 
REMARK    4  A    between atoms: C5_5  and  C7_7 
REMARK    5  A    between atoms: C10_10  and  N1_11 
ROOT
HETATM    1  C1  UNL     1      17.108  -1.724  -3.726  1.00  0.00     0.025 C 
HETATM    2  C2  UNL     1      17.815  -2.666  -3.159  1.00  0.00    -0.030 C 
ENDROOT
BRANCH   2   3
HETATM    3  C3  UNL     1      17.108  -3.781  -2.444  1.00  0.00     0.012 C 
HETATM    4  C4  UNL     1      17.718  -4.868  -2.076  1.00  0.00     0.007 C 
BRANCH   4   5
HETATM    5  C5  UNL     1      17.237  -6.029  -1.392  1.00  0.00    -0.063 C 
HETATM    6  C6  UNL     1      17.778  -6.257  -0.159  1.00  0.00     0.019 C 
BRANCH   5   7
HETATM    7  C7  UNL     1      16.261  -7.027  -1.817  1.00  0.00     0.018 A 
HETATM    8  C8  UNL     1      15.250  -7.726  -1.052  1.00  0.00     0.010 A 
HETATM    9  C9  UNL     1      14.806  -6.491  -1.795  1.00  0.00     0.010 A 
ENDBRANCH   5   7
ENDBRANCH   4   5
ENDBRANCH   2   3
BRANCH   2  10
HETATM   10  C10 UNL     1      19.284  -2.651  -3.190  1.00  0.00     0.102 C 
BRANCH  10  11
HETATM   11  N1  UNL     1      19.840  -2.779  -4.454  1.00  0.00    -0.352 N 
HETATM   12  C11 UNL     1      20.160  -4.023  -5.004  1.00  0.00     0.130 C 
HETATM   13  C12 UNL     1      21.161  -3.923  -6.162  1.00  0.00     0.040 C 
HETATM   14  C13 UNL     1      20.526  -2.942  -7.126  1.00  0.00     0.122 C 
HETATM   15  N2  UNL     1      20.461  -1.661  -6.516  1.00  0.00    -0.386 N 
HETATM   16  C14 UNL     1      20.356  -1.624  -5.094  1.00  0.00     0.178 C 
ATOM     17  H2  UNL     1      20.488  -0.805  -7.070  1.00  0.00     0.160 HD
ENDBRANCH  10  11
ENDBRANCH   2  10
TORSDOF 5
ENDMDL
