MODEL 1
REMARK VINA RESULT: -6.338443349      0.000      0.000
REMARK  5 active torsions:
REMARK  status: ('A' for Active; 'I' for Inactive)
REMARK    1  A    between atoms: C2_2  and  C3_3 
REMARK    2  A    between atoms: C3_3  and  N1_4 
REMARK       I    between atoms: N1_4  and  C4_5 
REMARK    3  A    between atoms: N1_4  and  C7_9 
REMARK    4  A    between atoms: C4_5  and  C5_7 
REMARK    5  A    between atoms: C13_15  and  O2_16 
ROOT
HETATM    1  C7  UNL     1      16.488  -4.287  -2.104  1.00  0.00     0.058 C 
HETATM    2  C8  UNL     1      15.675  -3.587  -1.000  1.00  0.00     0.041 C 
HETATM    3  C9  UNL     1      17.281  -5.394  -1.386  1.00  0.00     0.033 C 
HETATM    4  C10 UNL     1      16.648  -6.740  -1.477  1.00  0.00     0.003 C 
HETATM    5  C11 UNL     1      15.164  -6.767  -1.503  1.00  0.00     0.003 C 
HETATM    6  C12 UNL     1      14.511  -5.667  -2.254  1.00  0.00     0.034 C 
HETATM    7  C13 UNL     1      15.554  -4.875  -3.074  1.00  0.00     0.146 C 
ENDROOT
BRANCH   1   8
HETATM    8  N1  UNL     1      17.380  -3.288  -2.613  1.00  0.00    -0.334 N 
HETATM    9  C4  UNL     1      18.577  -3.656  -3.339  1.00  0.00     0.243 C 
HETATM   10  O1  UNL     1      18.893  -4.849  -3.552  1.00  0.00    -0.268 OA
BRANCH   8  11
HETATM   11  C3  UNL     1      17.075  -1.893  -2.409  1.00  0.00     0.153 C 
BRANCH  11  12
HETATM   12  C2  UNL     1      16.401  -1.232  -3.537  1.00  0.00    -0.017 C 
HETATM   13  C1  UNL     1      15.109  -1.029  -3.532  1.00  0.00     0.008 C 
ENDBRANCH  11  12
ENDBRANCH   8  11
BRANCH   9  14
HETATM   14  C5  UNL     1      19.476  -2.638  -3.861  1.00  0.00     0.064 C 
HETATM   15  C6  UNL     1      19.560  -2.350  -5.144  1.00  0.00     0.017 C 
ENDBRANCH   9  14
ENDBRANCH   1   8
BRANCH   7  16
HETATM   16  O2  UNL     1      16.126  -5.824  -3.921  1.00  0.00    -0.393 OA
ATOM     17  H2  UNL     1      15.551  -6.545  -4.146  1.00  0.00     0.210 HD
ENDBRANCH   7  16
TORSDOF 5
ENDMDL
MODEL 2
REMARK VINA RESULT: -6.321835165      2.414      5.285
REMARK  5 active torsions:
REMARK  status: ('A' for Active; 'I' for Inactive)
REMARK    1  A    between atoms: C2_2  and  C3_3 
REMARK    2  A    between atoms: C3_3  and  N1_4 
REMARK       I    between atoms: N1_4  and  C4_5 
REMARK    3  A    between atoms: N1_4  and  C7_9 
REMARK    4  A    between atoms: C4_5  and  C5_7 
REMARK    5  A    between atoms: C13_15  and  O2_16 
ROOT
HETATM    1  C7  UNL     1      19.544  -3.101  -4.621  1.00  0.00     0.058 C 
HETATM    2  C8  UNL     1      18.634  -1.860  -4.668  1.00  0.00     0.041 C 
HETATM    3  C9  UNL     1      20.100  -3.255  -6.048  1.00  0.00     0.033 C 
HETATM    4  C10 UNL     1      21.466  -2.685  -6.224  1.00  0.00     0.003 C 
HETATM    5  C11 UNL     1      21.786  -1.484  -5.411  1.00  0.00     0.003 C 
HETATM    6  C12 UNL     1      21.223  -1.465  -4.039  1.00  0.00     0.034 C 
HETATM    7  C13 UNL     1      20.637  -2.847  -3.672  1.00  0.00     0.146 C 
ENDROOT
BRANCH   1   8
HETATM    8  N1  UNL     1      18.678  -4.198  -4.305  1.00  0.00    -0.334 N 
HETATM    9  C4  UNL     1      19.084  -5.565  -4.554  1.00  0.00     0.243 C 
HETATM   10  O1  UNL     1      20.194  -5.855  -5.056  1.00  0.00    -0.268 OA
BRANCH   8  11
HETATM   11  C3  UNL     1      17.386  -3.937  -3.719  1.00  0.00     0.153 C 
BRANCH  11  12
HETATM   12  C2  UNL     1      17.357  -3.945  -2.249  1.00  0.00    -0.017 C 
HETATM   13  C1  UNL     1      16.430  -3.303  -1.585  1.00  0.00     0.008 C 
ENDBRANCH  11  12
ENDBRANCH   8  11
BRANCH   9  14
HETATM   14  C5  UNL     1      18.204  -6.676  -4.225  1.00  0.00     0.064 C 
HETATM   15  C6  UNL     1      17.485  -7.309  -5.131  1.00  0.00     0.017 C 
ENDBRANCH   9  14
ENDBRANCH   1   8
BRANCH   7  16
HETATM   16  O2  UNL     1      21.714  -3.724  -3.786  1.00  0.00    -0.393 OA
ATOM     17  H2  UNL     1      22.375  -3.623  -3.112  1.00  0.00     0.210 HD
ENDBRANCH   7  16
TORSDOF 5
ENDMDL
MODEL 3
REMARK VINA RESULT: -6.267197514      2.288      3.841
REMARK  5 active torsions:
REMARK  status: ('A' for Active; 'I' for Inactive)
REMARK    1  A    between atoms: C2_2  and  C3_3 
REMARK    2  A    between atoms: C3_3  and  N1_4 
REMARK       I    between atoms: N1_4  and  C4_5 
REMARK    3  A    between atoms: N1_4  and  C7_9 
REMARK    4  A    between atoms: C4_5  and  C5_7 
REMARK    5  A    between atoms: C13_15  and  O2_16 
ROOT
HETATM    1  C7  UNL     1      17.001  -4.886  -3.031  1.00  0.00     0.058 C 
HETATM    2  C8  UNL     1      17.835  -5.273  -1.797  1.00  0.00     0.041 C 
HETATM    3  C9  UNL     1      15.632  -5.561  -2.827  1.00  0.00     0.033 C 
HETATM    4  C10 UNL     1      14.593  -4.653  -2.267  1.00  0.00     0.003 C 
HETATM    5  C11 UNL     1      15.071  -3.611  -1.323  1.00  0.00     0.003 C 
HETATM    6  C12 UNL     1      16.388  -3.007  -1.642  1.00  0.00     0.034 C 
HETATM    7  C13 UNL     1      16.850  -3.424  -3.056  1.00  0.00     0.146 C 
ENDROOT
BRANCH   1   8
HETATM    8  N1  UNL     1      17.681  -5.468  -4.150  1.00  0.00    -0.334 N 
HETATM    9  C4  UNL     1      18.946  -4.938  -4.613  1.00  0.00     0.243 C 
HETATM   10  O1  UNL     1      19.500  -3.955  -4.071  1.00  0.00    -0.268 OA
BRANCH   8  11
HETATM   11  C3  UNL     1      17.102  -6.607  -4.818  1.00  0.00     0.153 C 
BRANCH  11  12
HETATM   12  C2  UNL     1      17.614  -7.914  -4.379  1.00  0.00    -0.017 C 
HETATM   13  C1  UNL     1      16.813  -8.833  -3.904  1.00  0.00     0.008 C 
ENDBRANCH  11  12
ENDBRANCH   8  11
BRANCH   9  14
HETATM   14  C5  UNL     1      19.636  -5.537  -5.745  1.00  0.00     0.064 C 
HETATM   15  C6  UNL     1      20.764  -6.207  -5.619  1.00  0.00     0.017 C 
ENDBRANCH   9  14
ENDBRANCH   1   8
BRANCH   7  16
HETATM   16  O2  UNL     1      15.842  -2.964  -3.902  1.00  0.00    -0.393 OA
ATOM     17  H2  UNL     1      15.773  -2.018  -3.951  1.00  0.00     0.210 HD
ENDBRANCH   7  16
TORSDOF 5
ENDMDL
MODEL 4
REMARK VINA RESULT: -6.235336258      1.958      2.973
REMARK  5 active torsions:
REMARK  status: ('A' for Active; 'I' for Inactive)
REMARK    1  A    between atoms: C2_2  and  C3_3 
REMARK    2  A    between atoms: C3_3  and  N1_4 
REMARK       I    between atoms: N1_4  and  C4_5 
REMARK    3  A    between atoms: N1_4  and  C7_9 
REMARK    4  A    between atoms: C4_5  and  C5_7 
REMARK    5  A    between atoms: C13_15  and  O2_16 
ROOT
HETATM    1  C7  UNL     1      17.837  -4.898  -3.134  1.00  0.00     0.058 C 
HETATM    2  C8  UNL     1      16.797  -5.260  -4.210  1.00  0.00     0.041 C 
HETATM    3  C9  UNL     1      17.240  -3.698  -2.376  1.00  0.00     0.033 C 
HETATM    4  C10 UNL     1      16.561  -4.072  -1.102  1.00  0.00     0.003 C 
HETATM    5  C11 UNL     1      15.885  -5.394  -1.082  1.00  0.00     0.003 C 
HETATM    6  C12 UNL     1      16.573  -6.482  -1.820  1.00  0.00     0.034 C 
HETATM    7  C13 UNL     1      17.997  -6.045  -2.230  1.00  0.00     0.146 C 
ENDROOT
BRANCH   1   8
HETATM    8  N1  UNL     1      19.008  -4.496  -3.856  1.00  0.00    -0.334 N 
HETATM    9  C4  UNL     1      19.709  -5.425  -4.717  1.00  0.00     0.243 C 
HETATM   10  O1  UNL     1      19.337  -6.611  -4.870  1.00  0.00    -0.268 OA
BRANCH   8  11
HETATM   11  C3  UNL     1      19.490  -3.143  -3.730  1.00  0.00     0.153 C 
BRANCH  11  12
HETATM   12  C2  UNL     1      18.980  -2.205  -4.741  1.00  0.00    -0.017 C 
HETATM   13  C1  UNL     1      19.792  -1.528  -5.511  1.00  0.00     0.008 C 
ENDBRANCH  11  12
ENDBRANCH   8  11
BRANCH   9  14
HETATM   14  C5  UNL     1      20.894  -5.011  -5.453  1.00  0.00     0.064 C 
HETATM   15  C6  UNL     1      20.908  -4.873  -6.763  1.00  0.00     0.017 C 
ENDBRANCH   9  14
ENDBRANCH   1   8
BRANCH   7  16
HETATM   16  O2  UNL     1      18.631  -5.744  -1.025  1.00  0.00    -0.393 OA
ATOM     17  H2  UNL     1      19.574  -5.857  -1.040  1.00  0.00     0.210 HD
ENDBRANCH   7  16
TORSDOF 5
ENDMDL
MODEL 5
REMARK VINA RESULT: -6.209394604      1.349      1.829
REMARK  5 active torsions:
REMARK  status: ('A' for Active; 'I' for Inactive)
REMARK    1  A    between atoms: C2_2  and  C3_3 
REMARK    2  A    between atoms: C3_3  and  N1_4 
REMARK       I    between atoms: N1_4  and  C4_5 
REMARK    3  A    between atoms: N1_4  and  C7_9 
REMARK    4  A    between atoms: C4_5  and  C5_7 
REMARK    5  A    between atoms: C13_15  and  O2_16 
ROOT
HETATM    1  C7  UNL     1      17.247  -4.521  -2.920  1.00  0.00     0.058 C 
HETATM    2  C8  UNL     1      16.316  -4.838  -4.104  1.00  0.00     0.041 C 
HETATM    3  C9  UNL     1      16.314  -4.280  -1.720  1.00  0.00     0.033 C 
HETATM    4  C10 UNL     1      16.158  -5.469  -0.833  1.00  0.00     0.003 C 
HETATM    5  C11 UNL     1      16.210  -6.795  -1.499  1.00  0.00     0.003 C 
HETATM    6  C12 UNL     1      17.173  -6.917  -2.621  1.00  0.00     0.034 C 
HETATM    7  C13 UNL     1      18.106  -5.687  -2.672  1.00  0.00     0.146 C 
ENDROOT
BRANCH   1   8
HETATM    8  N1  UNL     1      17.920  -3.307  -3.277  1.00  0.00    -0.334 N 
HETATM    9  C4  UNL     1      19.058  -3.320  -4.171  1.00  0.00     0.243 C 
HETATM   10  O1  UNL     1      19.511  -4.377  -4.666  1.00  0.00    -0.268 OA
BRANCH   8  11
HETATM   11  C3  UNL     1      17.449  -2.052  -2.746  1.00  0.00     0.153 C 
BRANCH  11  12
HETATM   12  C2  UNL     1      16.557  -1.295  -3.638  1.00  0.00    -0.017 C 
HETATM   13  C1  UNL     1      15.295  -1.116  -3.343  1.00  0.00     0.008 C 
ENDBRANCH  11  12
ENDBRANCH   8  11
BRANCH   9  14
HETATM   14  C5  UNL     1      19.734  -2.085  -4.536  1.00  0.00     0.064 C 
HETATM   15  C6  UNL     1      19.969  -1.743  -5.787  1.00  0.00     0.017 C 
ENDBRANCH   9  14
ENDBRANCH   1   8
BRANCH   7  16
HETATM   16  O2  UNL     1      18.743  -5.680  -1.432  1.00  0.00    -0.393 OA
ATOM     17  H2  UNL     1      18.444  -6.355  -0.834  1.00  0.00     0.210 HD
ENDBRANCH   7  16
TORSDOF 5
ENDMDL
