MODEL 1
REMARK VINA RESULT: -5.588938359      0.000      0.000
REMARK  4 active torsions:
REMARK  status: ('A' for Active; 'I' for Inactive)
REMARK    1  A    between atoms: O1_2  and  C2_3 
REMARK    2  A    between atoms: C3_4  and  O2_5 
REMARK    3  A    between atoms: C7_11  and  S1_12 
REMARK    4  A    between atoms: C9_14  and  O3_15 
ROOT
HETATM    1  C2  UNL     1      39.393  60.783  16.328  1.00  0.00     0.179 C 
HETATM    2  C3  UNL     1      38.940  61.601  15.128  1.00  0.00     0.151 C 
HETATM    3  C4  UNL     1      37.581  61.022  14.751  1.00  0.00     0.055 C 
HETATM    4  C5  UNL     1      36.610  61.151  15.884  1.00  0.00     0.111 C 
HETATM    5  C6  UNL     1      35.508  60.212  15.605  1.00  0.00     0.065 C 
HETATM    6  N1  UNL     1      34.678  59.420  15.394  1.00  0.00    -0.197 NA
HETATM    7  C7  UNL     1      37.149  60.803  17.226  1.00  0.00     0.096 C 
HETATM    8  C9  UNL     1      38.558  61.223  17.490  1.00  0.00     0.164 C 
ENDROOT
BRANCH   7   9
HETATM    9  S1  UNL     1      36.093  61.555  18.508  1.00  0.00    -0.165 SA
HETATM   10  C8  UNL     1      35.175  60.241  19.344  1.00  0.00     0.090 C 
ENDBRANCH   7   9
BRANCH   2  11
HETATM   11  O2  UNL     1      38.842  62.954  15.422  1.00  0.00    -0.393 OA
ATOM     12  H2  UNL     1      39.200  63.499  14.730  1.00  0.00     0.210 HD
ENDBRANCH   2  11
BRANCH   8  13
HETATM   13  O3  UNL     1      38.667  62.560  17.803  1.00  0.00    -0.392 OA
ATOM     14  H3  UNL     1      38.775  63.136  17.055  1.00  0.00     0.210 HD
ENDBRANCH   8  13
BRANCH   1  15
HETATM   15  O1  UNL     1      40.746  60.806  16.533  1.00  0.00    -0.386 OA
HETATM   16  C1  UNL     1      41.066  60.085  17.696  1.00  0.00     0.202 C 
ENDBRANCH   1  15
TORSDOF 4
ENDMDL
MODEL 2
REMARK VINA RESULT: -5.489715574      2.323      3.439
REMARK  4 active torsions:
REMARK  status: ('A' for Active; 'I' for Inactive)
REMARK    1  A    between atoms: O1_2  and  C2_3 
REMARK    2  A    between atoms: C3_4  and  O2_5 
REMARK    3  A    between atoms: C7_11  and  S1_12 
REMARK    4  A    between atoms: C9_14  and  O3_15 
ROOT
HETATM    1  C2  UNL     1      38.105  60.932  15.545  1.00  0.00     0.179 C 
HETATM    2  C3  UNL     1      36.803  61.625  15.921  1.00  0.00     0.151 C 
HETATM    3  C4  UNL     1      36.420  61.029  17.270  1.00  0.00     0.055 C 
HETATM    4  C5  UNL     1      37.480  61.291  18.294  1.00  0.00     0.111 C 
HETATM    5  C6  UNL     1      37.245  60.343  19.400  1.00  0.00     0.065 C 
HETATM    6  N1  UNL     1      37.076  59.545  20.233  1.00  0.00    -0.197 NA
HETATM    7  C7  UNL     1      38.878  61.079  17.830  1.00  0.00     0.096 C 
HETATM    8  C9  UNL     1      39.169  61.504  16.428  1.00  0.00     0.164 C 
ENDROOT
BRANCH   7   9
HETATM    9  S1  UNL     1      40.018  61.977  18.934  1.00  0.00    -0.165 SA
HETATM   10  C8  UNL     1      39.114  63.333  19.717  1.00  0.00     0.090 C 
ENDBRANCH   7   9
BRANCH   2  11
HETATM   11  O2  UNL     1      36.948  63.003  16.007  1.00  0.00    -0.393 OA
ATOM     12  H2  UNL     1      36.640  63.345  16.838  1.00  0.00     0.210 HD
ENDBRANCH   2  11
BRANCH   8  13
HETATM   13  O3  UNL     1      39.346  62.865  16.309  1.00  0.00    -0.392 OA
ATOM     14  H3  UNL     1      39.314  63.193  15.417  1.00  0.00     0.210 HD
ENDBRANCH   8  13
BRANCH   1  15
HETATM   15  O1  UNL     1      38.375  60.957  14.204  1.00  0.00    -0.386 OA
HETATM   16  C1  UNL     1      37.186  60.791  13.474  1.00  0.00     0.202 C 
ENDBRANCH   1  15
TORSDOF 4
ENDMDL
MODEL 3
REMARK VINA RESULT: -5.472075390      2.349      3.783
REMARK  4 active torsions:
REMARK  status: ('A' for Active; 'I' for Inactive)
REMARK    1  A    between atoms: O1_2  and  C2_3 
REMARK    2  A    between atoms: C3_4  and  O2_5 
REMARK    3  A    between atoms: C7_11  and  S1_12 
REMARK    4  A    between atoms: C9_14  and  O3_15 
ROOT
HETATM    1  C2  UNL     1      38.122  60.978  15.404  1.00  0.00     0.179 C 
HETATM    2  C3  UNL     1      36.840  61.632  15.898  1.00  0.00     0.151 C 
HETATM    3  C4  UNL     1      36.603  61.033  17.279  1.00  0.00     0.055 C 
HETATM    4  C5  UNL     1      37.746  61.334  18.199  1.00  0.00     0.111 C 
HETATM    5  C6  UNL     1      37.644  60.386  19.324  1.00  0.00     0.065 C 
HETATM    6  N1  UNL     1      37.579  59.588  20.173  1.00  0.00    -0.197 NA
HETATM    7  C7  UNL     1      39.100  61.162  17.606  1.00  0.00     0.096 C 
HETATM    8  C9  UNL     1      39.245  61.587  16.182  1.00  0.00     0.164 C 
ENDROOT
BRANCH   7   9
HETATM    9  S1  UNL     1      40.309  62.102  18.596  1.00  0.00    -0.165 SA
HETATM   10  C8  UNL     1      41.974  61.591  18.111  1.00  0.00     0.090 C 
ENDBRANCH   7   9
BRANCH   2  11
HETATM   11  O2  UNL     1      36.949  63.015  15.966  1.00  0.00    -0.393 OA
ATOM     12  H2  UNL     1      36.150  63.451  15.694  1.00  0.00     0.210 HD
ENDBRANCH   2  11
BRANCH   8  13
HETATM   13  O3  UNL     1      39.367  62.952  16.042  1.00  0.00    -0.392 OA
ATOM     14  H3  UNL     1      39.064  63.457  16.788  1.00  0.00     0.210 HD
ENDBRANCH   8  13
BRANCH   1  15
HETATM   15  O1  UNL     1      38.265  61.003  14.043  1.00  0.00    -0.386 OA
HETATM   16  C1  UNL     1      37.024  60.764  13.428  1.00  0.00     0.202 C 
ENDBRANCH   1  15
TORSDOF 4
ENDMDL
MODEL 4
REMARK VINA RESULT: -5.467267730      1.743      2.064
REMARK  4 active torsions:
REMARK  status: ('A' for Active; 'I' for Inactive)
REMARK    1  A    between atoms: O1_2  and  C2_3 
REMARK    2  A    between atoms: C3_4  and  O2_5 
REMARK    3  A    between atoms: C7_11  and  S1_12 
REMARK    4  A    between atoms: C9_14  and  O3_15 
ROOT
HETATM    1  C2  UNL     1      38.511  61.352  16.724  1.00  0.00     0.179 C 
HETATM    2  C3  UNL     1      37.288  61.682  15.881  1.00  0.00     0.151 C 
HETATM    3  C4  UNL     1      36.181  60.793  16.436  1.00  0.00     0.055 C 
HETATM    4  C5  UNL     1      35.929  61.089  17.883  1.00  0.00     0.111 C 
HETATM    5  C6  UNL     1      35.189  59.935  18.428  1.00  0.00     0.065 C 
HETATM    6  N1  UNL     1      34.658  58.987  18.851  1.00  0.00    -0.197 NA
HETATM    7  C7  UNL     1      37.149  61.257  18.718  1.00  0.00     0.096 C 
HETATM    8  C9  UNL     1      38.289  61.971  18.068  1.00  0.00     0.164 C 
ENDROOT
BRANCH   7   9
HETATM    9  S1  UNL     1      36.713  62.168  20.236  1.00  0.00    -0.165 SA
HETATM   10  C8  UNL     1      36.919  61.062  21.652  1.00  0.00     0.090 C 
ENDBRANCH   7   9
BRANCH   2  11
HETATM   11  O2  UNL     1      36.939  63.023  15.964  1.00  0.00    -0.393 OA
ATOM     12  H2  UNL     1      37.532  63.515  16.520  1.00  0.00     0.210 HD
ENDBRANCH   2  11
BRANCH   8  13
HETATM   13  O3  UNL     1      38.122  63.339  18.052  1.00  0.00    -0.392 OA
ATOM     14  H3  UNL     1      37.916  63.724  18.896  1.00  0.00     0.210 HD
ENDBRANCH   8  13
BRANCH   1  15
HETATM   15  O1  UNL     1      39.698  61.667  16.119  1.00  0.00    -0.386 OA
HETATM   16  C1  UNL     1      40.761  61.455  17.014  1.00  0.00     0.202 C 
ENDBRANCH   1  15
TORSDOF 4
ENDMDL
MODEL 5
REMARK VINA RESULT: -5.293435833      1.519      1.744
REMARK  4 active torsions:
REMARK  status: ('A' for Active; 'I' for Inactive)
REMARK    1  A    between atoms: O1_2  and  C2_3 
REMARK    2  A    between atoms: C3_4  and  O2_5 
REMARK    3  A    between atoms: C7_11  and  S1_12 
REMARK    4  A    between atoms: C9_14  and  O3_15 
ROOT
HETATM    1  C2  UNL     1      38.122  60.912  17.179  1.00  0.00     0.179 C 
HETATM    2  C3  UNL     1      37.350  61.538  16.027  1.00  0.00     0.151 C 
HETATM    3  C4  UNL     1      36.188  60.586  15.773  1.00  0.00     0.055 C 
HETATM    4  C5  UNL     1      35.324  60.457  16.989  1.00  0.00     0.111 C 
HETATM    5  C6  UNL     1      34.518  59.235  16.808  1.00  0.00     0.065 C 
HETATM    6  N1  UNL     1      33.935  58.234  16.671  1.00  0.00    -0.197 NA
HETATM    7  C7  UNL     1      36.056  60.309  18.276  1.00  0.00     0.096 C 
HETATM    8  C9  UNL     1      37.302  61.121  18.413  1.00  0.00     0.164 C 
ENDROOT
BRANCH   7   9
HETATM    9  S1  UNL     1      34.945  60.756  19.651  1.00  0.00    -0.165 SA
HETATM   10  C8  UNL     1      35.594  60.033  21.176  1.00  0.00     0.090 C 
ENDBRANCH   7   9
BRANCH   2  11
HETATM   11  O2  UNL     1      36.894  62.813  16.333  1.00  0.00    -0.393 OA
ATOM     12  H2  UNL     1      37.247  63.472  15.746  1.00  0.00     0.210 HD
ENDBRANCH   2  11
BRANCH   8  13
HETATM   13  O3  UNL     1      37.049  62.440  18.719  1.00  0.00    -0.392 OA
ATOM     14  H3  UNL     1      36.145  62.630  18.940  1.00  0.00     0.210 HD
ENDBRANCH   8  13
BRANCH   1  15
HETATM   15  O1  UNL     1      39.425  61.327  17.260  1.00  0.00    -0.386 OA
HETATM   16  C1  UNL     1      40.285  60.219  17.171  1.00  0.00     0.202 C 
ENDBRANCH   1  15
TORSDOF 4
ENDMDL
