MODEL 1
REMARK VINA RESULT: -5.806139625      0.000      0.000
REMARK  3 active torsions:
REMARK  status: ('A' for Active; 'I' for Inactive)
REMARK    1  A    between atoms: O1_1  and  C1_3 
REMARK    2  A    between atoms: C7_13  and  C8_14 
REMARK    3  A    between atoms: C8_14  and  N2_15 
ROOT
HETATM    1  C1  UNL     1      37.045  60.656  15.410  1.00  0.00     0.154 C 
HETATM    2  C2  UNL     1      38.526  60.954  15.213  1.00  0.00     0.045 C 
HETATM    3  C3  UNL     1      39.391  60.068  16.063  1.00  0.00     0.239 C 
HETATM    4  N1  UNL     1      40.368  60.829  16.793  1.00  0.00    -0.072 N 
ATOM      5  H11 UNL     1      40.986  61.332  16.157  1.00  0.00     0.277 HD
ATOM      6  H12 UNL     1      41.050  60.215  17.237  1.00  0.00     0.277 HD
HETATM    7  C4  UNL     1      39.783  61.726  17.756  1.00  0.00     0.264 C 
HETATM    8  C5  UNL     1      38.512  62.360  17.184  1.00  0.00     0.148 C 
HETATM    9  C6  UNL     1      38.696  62.404  15.687  1.00  0.00     0.042 C 
HETATM   10  O2  UNL     1      37.462  61.590  17.596  1.00  0.00    -0.375 OA
HETATM   11  C7  UNL     1      36.499  61.344  16.641  1.00  0.00     0.170 C 
ENDROOT
BRANCH  11  12
HETATM   12  C8  UNL     1      35.508  60.378  17.266  1.00  0.00     0.184 C 
BRANCH  12  13
HETATM   13  N2  UNL     1      35.214  60.748  18.653  1.00  0.00    -0.285 N 
HETATM   14  C9  UNL     1      35.197  59.937  19.720  1.00  0.00     0.130 A 
HETATM   15  C10 UNL     1      34.878  60.671  20.836  1.00  0.00     0.127 A 
HETATM   16  N3  UNL     1      34.712  61.923  20.384  1.00  0.00    -0.296 N 
HETATM   17  N4  UNL     1      34.915  61.954  19.086  1.00  0.00    -0.241 N 
ATOM     18  H3  UNL     1      34.467  62.729  20.961  1.00  0.00     0.187 HD
ATOM     19  H4  UNL     1      34.851  62.787  18.501  1.00  0.00     0.208 HD
ENDBRANCH  12  13
ENDBRANCH  11  12
BRANCH   1  20
HETATM   20  O1  UNL     1      36.386  61.194  14.302  1.00  0.00    -0.393 OA
ATOM     21  H1  UNL     1      35.478  61.304  14.559  1.00  0.00     0.210 HD
ENDBRANCH   1  20
TORSDOF 3
ENDMDL
MODEL 2
REMARK VINA RESULT: -5.710423749      1.422      1.925
REMARK  3 active torsions:
REMARK  status: ('A' for Active; 'I' for Inactive)
REMARK    1  A    between atoms: O1_1  and  C1_3 
REMARK    2  A    between atoms: C7_13  and  C8_14 
REMARK    3  A    between atoms: C8_14  and  N2_15 
ROOT
HETATM    1  C1  UNL     1      38.834  61.653  16.080  1.00  0.00     0.154 C 
HETATM    2  C2  UNL     1      40.197  61.224  16.611  1.00  0.00     0.045 C 
HETATM    3  C3  UNL     1      40.244  59.750  16.900  1.00  0.00     0.239 C 
HETATM    4  N1  UNL     1      40.775  59.488  18.210  1.00  0.00    -0.072 N 
ATOM      5  H11 UNL     1      41.727  59.842  18.294  1.00  0.00     0.277 HD
ATOM      6  H12 UNL     1      40.955  58.492  18.337  1.00  0.00     0.277 HD
HETATM    7  C4  UNL     1      39.943  59.997  19.270  1.00  0.00     0.264 C 
HETATM    8  C5  UNL     1      39.363  61.360  18.880  1.00  0.00     0.148 C 
HETATM    9  C6  UNL     1      40.356  61.988  17.932  1.00  0.00     0.042 C 
HETATM   10  O2  UNL     1      38.136  61.128  18.330  1.00  0.00    -0.375 OA
HETATM   11  C7  UNL     1      37.843  61.865  17.202  1.00  0.00     0.170 C 
ENDROOT
BRANCH  11  12
HETATM   12  C8  UNL     1      36.505  61.362  16.691  1.00  0.00     0.184 C 
BRANCH  12  13
HETATM   13  N2  UNL     1      35.580  61.107  17.799  1.00  0.00    -0.285 N 
HETATM   14  C9  UNL     1      34.772  60.049  17.950  1.00  0.00     0.130 A 
HETATM   15  C10 UNL     1      34.067  60.186  19.120  1.00  0.00     0.127 A 
HETATM   16  N3  UNL     1      34.489  61.349  19.638  1.00  0.00    -0.296 N 
HETATM   17  N4  UNL     1      35.388  61.885  18.842  1.00  0.00    -0.241 N 
ATOM     18  H3  UNL     1      34.163  61.756  20.515  1.00  0.00     0.187 HD
ATOM     19  H4  UNL     1      35.865  62.771  19.008  1.00  0.00     0.208 HD
ENDBRANCH  12  13
ENDBRANCH  11  12
BRANCH   1  20
HETATM   20  O1  UNL     1      39.028  62.886  15.453  1.00  0.00    -0.393 OA
ATOM     21  H1  UNL     1      39.339  63.481  16.124  1.00  0.00     0.210 HD
ENDBRANCH   1  20
TORSDOF 3
ENDMDL
MODEL 3
REMARK VINA RESULT: -5.687636323      2.667      5.211
REMARK  3 active torsions:
REMARK  status: ('A' for Active; 'I' for Inactive)
REMARK    1  A    between atoms: O1_1  and  C1_3 
REMARK    2  A    between atoms: C7_13  and  C8_14 
REMARK    3  A    between atoms: C8_14  and  N2_15 
ROOT
HETATM    1  C1  UNL     1      36.357  61.806  19.762  1.00  0.00     0.154 C 
HETATM    2  C2  UNL     1      36.035  60.934  20.970  1.00  0.00     0.045 C 
HETATM    3  C3  UNL     1      37.076  61.066  22.045  1.00  0.00     0.239 C 
HETATM    4  N1  UNL     1      37.525  59.780  22.505  1.00  0.00    -0.072 N 
ATOM      5  H11 UNL     1      36.752  59.244  22.898  1.00  0.00     0.277 HD
ATOM      6  H12 UNL     1      38.104  59.873  23.339  1.00  0.00     0.277 HD
HETATM    7  C4  UNL     1      38.208  59.023  21.488  1.00  0.00     0.264 C 
HETATM    8  C5  UNL     1      37.520  59.214  20.133  1.00  0.00     0.148 C 
HETATM    9  C6  UNL     1      36.068  59.498  20.431  1.00  0.00     0.042 C 
HETATM   10  O2  UNL     1      38.169  60.233  19.496  1.00  0.00    -0.375 OA
HETATM   11  C7  UNL     1      37.356  61.136  18.845  1.00  0.00     0.170 C 
ENDROOT
BRANCH  11  12
HETATM   12  C8  UNL     1      38.263  62.237  18.325  1.00  0.00     0.184 C 
BRANCH  12  13
HETATM   13  N2  UNL     1      38.255  62.280  16.860  1.00  0.00    -0.285 N 
HETATM   14  C9  UNL     1      37.219  62.024  16.049  1.00  0.00     0.130 A 
HETATM   15  C10 UNL     1      37.622  62.174  14.746  1.00  0.00     0.127 A 
HETATM   16  N3  UNL     1      38.915  62.523  14.826  1.00  0.00    -0.296 N 
HETATM   17  N4  UNL     1      39.277  62.582  16.088  1.00  0.00    -0.241 N 
ATOM     18  H3  UNL     1      39.523  62.714  14.029  1.00  0.00     0.187 HD
ATOM     19  H4  UNL     1      40.211  62.825  16.421  1.00  0.00     0.208 HD
ENDBRANCH  12  13
ENDBRANCH  11  12
BRANCH   1  20
HETATM   20  O1  UNL     1      35.164  61.945  19.050  1.00  0.00    -0.393 OA
ATOM     21  H1  UNL     1      34.736  62.720  19.395  1.00  0.00     0.210 HD
ENDBRANCH   1  20
TORSDOF 3
ENDMDL
MODEL 4
REMARK VINA RESULT: -5.676854224      2.115      5.053
REMARK  3 active torsions:
REMARK  status: ('A' for Active; 'I' for Inactive)
REMARK    1  A    between atoms: O1_1  and  C1_3 
REMARK    2  A    between atoms: C7_13  and  C8_14 
REMARK    3  A    between atoms: C8_14  and  N2_15 
ROOT
HETATM    1  C1  UNL     1      34.714  60.813  18.975  1.00  0.00     0.154 C 
HETATM    2  C2  UNL     1      34.620  61.234  20.436  1.00  0.00     0.045 C 
HETATM    3  C3  UNL     1      34.813  62.715  20.603  1.00  0.00     0.239 C 
HETATM    4  N1  UNL     1      35.777  63.009  21.627  1.00  0.00    -0.072 N 
ATOM      5  H11 UNL     1      35.473  62.641  22.529  1.00  0.00     0.277 HD
ATOM      6  H12 UNL     1      35.783  64.005  21.847  1.00  0.00     0.277 HD
HETATM    7  C4  UNL     1      37.102  62.547  21.306  1.00  0.00     0.264 C 
HETATM    8  C5  UNL     1      37.034  61.183  20.613  1.00  0.00     0.148 C 
HETATM    9  C6  UNL     1      35.785  60.509  21.124  1.00  0.00     0.042 C 
HETATM   10  O2  UNL     1      37.032  61.419  19.268  1.00  0.00    -0.375 OA
HETATM   11  C7  UNL     1      36.151  60.652  18.534  1.00  0.00     0.170 C 
ENDROOT
BRANCH  11  12
HETATM   12  C8  UNL     1      36.220  61.162  17.106  1.00  0.00     0.184 C 
BRANCH  12  13
HETATM   13  N2  UNL     1      37.595  61.515  16.737  1.00  0.00    -0.285 N 
HETATM   14  C9  UNL     1      38.471  60.759  16.063  1.00  0.00     0.130 A 
HETATM   15  C10 UNL     1      39.647  61.453  15.922  1.00  0.00     0.127 A 
HETATM   16  N3  UNL     1      39.426  62.627  16.532  1.00  0.00    -0.296 N 
HETATM   17  N4  UNL     1      38.202  62.650  17.012  1.00  0.00    -0.241 N 
ATOM     18  H3  UNL     1      40.103  63.385  16.611  1.00  0.00     0.187 HD
ATOM     19  H4  UNL     1      37.785  63.430  17.520  1.00  0.00     0.208 HD
ENDBRANCH  12  13
ENDBRANCH  11  12
BRANCH   1  20
HETATM   20  O1  UNL     1      34.107  59.558  18.889  1.00  0.00    -0.393 OA
ATOM     21  H1  UNL     1      33.185  59.694  19.073  1.00  0.00     0.210 HD
ENDBRANCH   1  20
TORSDOF 3
ENDMDL
MODEL 5
REMARK VINA RESULT: -5.661902263      1.859      2.294
REMARK  3 active torsions:
REMARK  status: ('A' for Active; 'I' for Inactive)
REMARK    1  A    between atoms: O1_1  and  C1_3 
REMARK    2  A    between atoms: C7_13  and  C8_14 
REMARK    3  A    between atoms: C8_14  and  N2_15 
ROOT
HETATM    1  C1  UNL     1      36.596  60.281  15.643  1.00  0.00     0.154 C 
HETATM    2  C2  UNL     1      37.878  60.876  15.073  1.00  0.00     0.045 C 
HETATM    3  C3  UNL     1      39.100  60.321  15.749  1.00  0.00     0.239 C 
HETATM    4  N1  UNL     1      39.993  61.367  16.164  1.00  0.00    -0.072 N 
ATOM      5  H11 UNL     1      40.313  61.911  15.363  1.00  0.00     0.277 HD
ATOM      6  H12 UNL     1      40.886  60.982  16.472  1.00  0.00     0.277 HD
HETATM    7  C4  UNL     1      39.430  62.225  17.174  1.00  0.00     0.264 C 
HETATM    8  C5  UNL     1      37.948  62.481  16.884  1.00  0.00     0.148 C 
HETATM    9  C6  UNL     1      37.784  62.375  15.388  1.00  0.00     0.042 C 
HETATM   10  O2  UNL     1      37.237  61.554  17.591  1.00  0.00    -0.375 OA
HETATM   11  C7  UNL     1      36.180  60.980  16.918  1.00  0.00     0.170 C 
ENDROOT
BRANCH  11  12
HETATM   12  C8  UNL     1      35.619  59.904  17.831  1.00  0.00     0.184 C 
BRANCH  12  13
HETATM   13  N2  UNL     1      34.223  59.606  17.500  1.00  0.00    -0.285 N 
HETATM   14  C9  UNL     1      33.130  60.031  18.147  1.00  0.00     0.130 A 
HETATM   15  C10 UNL     1      32.015  59.532  17.521  1.00  0.00     0.127 A 
HETATM   16  N3  UNL     1      32.493  58.808  16.498  1.00  0.00    -0.296 N 
HETATM   17  N4  UNL     1      33.807  58.862  16.497  1.00  0.00    -0.241 N 
ATOM     18  H3  UNL     1      31.925  58.296  15.823  1.00  0.00     0.187 HD
ATOM     19  H4  UNL     1      34.413  58.396  15.822  1.00  0.00     0.208 HD
ENDBRANCH  12  13
ENDBRANCH  11  12
BRANCH   1  20
HETATM   20  O1  UNL     1      35.599  60.514  14.693  1.00  0.00    -0.393 OA
ATOM     21  H1  UNL     1      35.819  59.980  13.939  1.00  0.00     0.210 HD
ENDBRANCH   1  20
TORSDOF 3
ENDMDL
