MODEL 1
REMARK VINA RESULT: -8.690337653      0.000      0.000
REMARK  2 active torsions:
REMARK  status: ('A' for Active; 'I' for Inactive)
REMARK    1  A    between atoms: C5_5  and  C6_6 
REMARK    2  A    between atoms: C13_16  and  N2_17 
ROOT
HETATM    1  C1  UNL     1      13.417  14.868  -9.108  1.00  0.00     0.045 C 
HETATM    2  C2  UNL     1      14.054  14.149 -10.292  1.00  0.00    -0.057 C 
HETATM    3  C3  UNL     1      14.817  15.101 -11.102  1.00  0.00     0.045 C 
HETATM    4  C4  UNL     1      14.544  12.826 -10.003  1.00  0.00     0.083 A 
HETATM    5  C5  UNL     1      15.361  11.967 -10.653  1.00  0.00     0.045 A 
HETATM    6  N1  UNL     1      15.397  10.810  -9.930  1.00  0.00    -0.339 N 
ATOM      7  H1  UNL     1      15.932   9.977 -10.176  1.00  0.00     0.167 HD
HETATM    8  C12 UNL     1      14.635  10.938  -8.869  1.00  0.00     0.172 A 
HETATM    9  C13 UNL     1      14.375  10.022  -7.866  1.00  0.00     0.146 A 
HETATM   10  N3  UNL     1      13.539  10.413  -6.877  1.00  0.00    -0.335 N 
ATOM     11  H3  UNL     1      13.324   9.766  -6.120  1.00  0.00     0.168 HD
HETATM   12  C14 UNL     1      12.985  11.646  -6.874  1.00  0.00     0.199 A 
HETATM   13  N4  UNL     1      13.294  12.455  -7.878  1.00  0.00    -0.287 N 
ATOM     14  H4  UNL     1      12.875  13.384  -7.875  1.00  0.00     0.188 HD
HETATM   15  N5  UNL     1      14.107  12.151  -8.890  1.00  0.00    -0.234 N 
ENDROOT
BRANCH   5  16
HETATM   16  C6  UNL     1      16.145  12.216 -11.873  1.00  0.00     0.049 C 
HETATM   17  C7  UNL     1      16.807  10.862 -12.224  1.00  0.00     0.085 C 
HETATM   18  S1  UNL     1      18.351  10.877 -11.289  1.00  0.00    -0.159 SA
HETATM   19  C8  UNL     1      18.509  12.677 -11.228  1.00  0.00     0.001 C 
HETATM   20  C9  UNL     1      18.807  13.075  -9.795  1.00  0.00     0.026 C 
HETATM   21  C10 UNL     1      19.669  13.126 -12.085  1.00  0.00     0.026 C 
HETATM   22  C11 UNL     1      17.216  13.215 -11.726  1.00  0.00     0.031 C 
ENDBRANCH   5  16
BRANCH   9  23
HETATM   23  N2  UNL     1      14.906   8.854  -7.884  1.00  0.00    -0.382 N 
ATOM     24  H22 UNL     1      14.437   8.041  -7.484  1.00  0.00     0.157 HD
ATOM     25  H21 UNL     1      15.823   8.700  -8.303  1.00  0.00     0.157 HD
ENDBRANCH   9  23
TORSDOF 2
ENDMDL
MODEL 2
REMARK VINA RESULT: -8.190501567      1.476      1.570
REMARK  2 active torsions:
REMARK  status: ('A' for Active; 'I' for Inactive)
REMARK    1  A    between atoms: C5_5  and  C6_6 
REMARK    2  A    between atoms: C13_16  and  N2_17 
ROOT
HETATM    1  C1  UNL     1      13.462  15.298  -9.620  1.00  0.00     0.045 C 
HETATM    2  C2  UNL     1      14.395  14.763 -10.700  1.00  0.00    -0.057 C 
HETATM    3  C3  UNL     1      14.817  15.856 -11.580  1.00  0.00     0.045 C 
HETATM    4  C4  UNL     1      15.308  13.741 -10.257  1.00  0.00     0.083 A 
HETATM    5  C5  UNL     1      16.423  13.189 -10.786  1.00  0.00     0.045 A 
HETATM    6  N1  UNL     1      16.824  12.192  -9.945  1.00  0.00    -0.339 N 
ATOM      7  H1  UNL     1      17.639  11.595 -10.083  1.00  0.00     0.167 HD
HETATM    8  C12 UNL     1      15.995  12.123  -8.929  1.00  0.00     0.172 A 
HETATM    9  C13 UNL     1      16.014  11.265  -7.844  1.00  0.00     0.146 A 
HETATM   10  N3  UNL     1      15.028  11.407  -6.930  1.00  0.00    -0.335 N 
ATOM     11  H3  UNL     1      15.009  10.793  -6.116  1.00  0.00     0.168 HD
HETATM   12  C14 UNL     1      14.067  12.346  -7.075  1.00  0.00     0.199 A 
HETATM   13  N4  UNL     1      14.132  13.123  -8.148  1.00  0.00    -0.287 N 
ATOM     14  H4  UNL     1      13.407  13.831  -8.257  1.00  0.00     0.188 HD
HETATM   15  N5  UNL     1      15.068  13.052  -9.095  1.00  0.00    -0.234 N 
ENDROOT
BRANCH   5  16
HETATM   16  C6  UNL     1      17.147  13.601 -11.999  1.00  0.00     0.049 C 
HETATM   17  C7  UNL     1      17.629  12.289 -12.661  1.00  0.00     0.085 C 
HETATM   18  S1  UNL     1      19.224  11.967 -11.879  1.00  0.00    -0.159 SA
HETATM   19  C8  UNL     1      19.586  13.694 -11.486  1.00  0.00     0.001 C 
HETATM   20  C9  UNL     1      20.020  13.765 -10.034  1.00  0.00     0.026 C 
HETATM   21  C10 UNL     1      20.729  14.193 -12.338  1.00  0.00     0.026 C 
HETATM   22  C11 UNL     1      18.331  14.443 -11.755  1.00  0.00     0.031 C 
ENDBRANCH   5  16
BRANCH   9  23
HETATM   23  N2  UNL     1      16.932  10.375  -7.721  1.00  0.00    -0.382 N 
ATOM     24  H22 UNL     1      17.899  10.623  -7.515  1.00  0.00     0.157 HD
ATOM     25  H21 UNL     1      16.718   9.383  -7.825  1.00  0.00     0.157 HD
ENDBRANCH   9  23
TORSDOF 2
ENDMDL
MODEL 3
REMARK VINA RESULT: -8.068410346      1.742      2.160
REMARK  2 active torsions:
REMARK  status: ('A' for Active; 'I' for Inactive)
REMARK    1  A    between atoms: C5_5  and  C6_6 
REMARK    2  A    between atoms: C13_16  and  N2_17 
ROOT
HETATM    1  C1  UNL     1      12.031  14.561  -7.410  1.00  0.00     0.045 C 
HETATM    2  C2  UNL     1      13.040  14.171  -8.484  1.00  0.00    -0.057 C 
HETATM    3  C3  UNL     1      13.499  15.367  -9.195  1.00  0.00     0.045 C 
HETATM    4  C4  UNL     1      13.941  13.111  -8.110  1.00  0.00     0.083 A 
HETATM    5  C5  UNL     1      15.097  12.638  -8.629  1.00  0.00     0.045 A 
HETATM    6  N1  UNL     1      15.460  11.549  -7.891  1.00  0.00    -0.339 N 
ATOM      7  H1  UNL     1      16.292  10.981  -8.048  1.00  0.00     0.167 HD
HETATM    8  C12 UNL     1      14.570  11.348  -6.947  1.00  0.00     0.172 A 
HETATM    9  C13 UNL     1      14.535  10.364  -5.976  1.00  0.00     0.146 A 
HETATM   10  N3  UNL     1      13.491  10.383  -5.118  1.00  0.00    -0.335 N 
ATOM     11  H3  UNL     1      13.430   9.674  -4.388  1.00  0.00     0.168 HD
HETATM   12  C14 UNL     1      12.525  11.325  -5.209  1.00  0.00     0.199 A 
HETATM   13  N4  UNL     1      12.645  12.228  -6.173  1.00  0.00    -0.287 N 
ATOM     14  H4  UNL     1      11.916  12.938  -6.242  1.00  0.00     0.188 HD
HETATM   15  N5  UNL     1      13.639  12.282  -7.058  1.00  0.00    -0.234 N 
ENDROOT
BRANCH   5  16
HETATM   16  C6  UNL     1      15.888  13.202  -9.733  1.00  0.00     0.049 C 
HETATM   17  C7  UNL     1      15.153  12.783 -11.028  1.00  0.00     0.085 C 
HETATM   18  S1  UNL     1      15.852  11.165 -11.421  1.00  0.00    -0.159 SA
HETATM   19  C8  UNL     1      17.434  11.445 -10.593  1.00  0.00     0.001 C 
HETATM   20  C9  UNL     1      17.726  10.242  -9.716  1.00  0.00     0.026 C 
HETATM   21  C10 UNL     1      18.543  11.555 -11.613  1.00  0.00     0.026 C 
HETATM   22  C11 UNL     1      17.271  12.703  -9.819  1.00  0.00     0.031 C 
ENDBRANCH   5  16
BRANCH   9  23
HETATM   23  N2  UNL     1      15.458   9.475  -5.903  1.00  0.00    -0.382 N 
ATOM     24  H22 UNL     1      16.441   9.724  -5.794  1.00  0.00     0.157 HD
ATOM     25  H21 UNL     1      15.234   8.480  -5.951  1.00  0.00     0.157 HD
ENDBRANCH   9  23
TORSDOF 2
ENDMDL
MODEL 4
REMARK VINA RESULT: -8.067935467      1.774      3.732
REMARK  2 active torsions:
REMARK  status: ('A' for Active; 'I' for Inactive)
REMARK    1  A    between atoms: C5_5  and  C6_6 
REMARK    2  A    between atoms: C13_16  and  N2_17 
ROOT
HETATM    1  C1  UNL     1      14.944   9.347  -5.679  1.00  0.00     0.045 C 
HETATM    2  C2  UNL     1      15.787   9.823  -6.856  1.00  0.00    -0.057 C 
HETATM    3  C3  UNL     1      16.374   8.672  -7.547  1.00  0.00     0.045 C 
HETATM    4  C4  UNL     1      15.244  10.949  -7.572  1.00  0.00     0.083 A 
HETATM    5  C5  UNL     1      15.514  11.516  -8.769  1.00  0.00     0.045 A 
HETATM    6  N1  UNL     1      14.727  12.625  -8.883  1.00  0.00    -0.339 N 
ATOM      7  H1  UNL     1      14.712  13.259  -9.681  1.00  0.00     0.167 HD
HETATM    8  C12 UNL     1      13.992  12.748  -7.801  1.00  0.00     0.172 A 
HETATM    9  C13 UNL     1      13.060  13.719  -7.486  1.00  0.00     0.146 A 
HETATM   10  N3  UNL     1      12.439  13.611  -6.289  1.00  0.00    -0.335 N 
ATOM     11  H3  UNL     1      11.745  14.308  -6.021  1.00  0.00     0.168 HD
HETATM   12  C14 UNL     1      12.721  12.597  -5.442  1.00  0.00     0.199 A 
HETATM   13  N4  UNL     1      13.630  11.713  -5.832  1.00  0.00    -0.287 N 
ATOM     14  H4  UNL     1      13.843  10.948  -5.193  1.00  0.00     0.188 HD
HETATM   15  N5  UNL     1      14.287  11.744  -6.991  1.00  0.00    -0.234 N 
ENDROOT
BRANCH   5  16
HETATM   16  C6  UNL     1      16.422  11.024  -9.816  1.00  0.00     0.049 C 
HETATM   17  C7  UNL     1      17.848  11.376  -9.329  1.00  0.00     0.085 C 
HETATM   18  S1  UNL     1      18.119  13.049  -9.950  1.00  0.00    -0.159 SA
HETATM   19  C8  UNL     1      16.980  12.912 -11.347  1.00  0.00     0.001 C 
HETATM   20  C9  UNL     1      16.084  14.136 -11.347  1.00  0.00     0.026 C 
HETATM   21  C10 UNL     1      17.750  12.900 -12.647  1.00  0.00     0.026 C 
HETATM   22  C11 UNL     1      16.233  11.644 -11.139  1.00  0.00     0.031 C 
ENDBRANCH   5  16
BRANCH   9  23
HETATM   23  N2  UNL     1      12.804  14.679  -8.299  1.00  0.00    -0.382 N 
ATOM     24  H22 UNL     1      13.150  14.680  -9.259  1.00  0.00     0.157 HD
ATOM     25  H21 UNL     1      12.240  15.478  -8.008  1.00  0.00     0.157 HD
ENDBRANCH   9  23
TORSDOF 2
ENDMDL
MODEL 5
REMARK VINA RESULT: -8.003388065      2.065      3.936
REMARK  2 active torsions:
REMARK  status: ('A' for Active; 'I' for Inactive)
REMARK    1  A    between atoms: C5_5  and  C6_6 
REMARK    2  A    between atoms: C13_16  and  N2_17 
ROOT
HETATM    1  C1  UNL     1      14.753   9.678  -5.712  1.00  0.00     0.045 C 
HETATM    2  C2  UNL     1      15.928  10.217  -6.519  1.00  0.00    -0.057 C 
HETATM    3  C3  UNL     1      16.769   9.107  -6.976  1.00  0.00     0.045 C 
HETATM    4  C4  UNL     1      15.616  11.338  -7.366  1.00  0.00     0.083 A 
HETATM    5  C5  UNL     1      16.257  11.946  -8.390  1.00  0.00     0.045 A 
HETATM    6  N1  UNL     1      15.509  13.026  -8.757  1.00  0.00    -0.339 N 
ATOM      7  H1  UNL     1      15.743  13.679  -9.505  1.00  0.00     0.167 HD
HETATM    8  C12 UNL     1      14.441  13.093  -7.996  1.00  0.00     0.172 A 
HETATM    9  C13 UNL     1      13.415  14.020  -8.012  1.00  0.00     0.146 A 
HETATM   10  N3  UNL     1      12.424  13.857  -7.106  1.00  0.00    -0.335 N 
ATOM     11  H3  UNL     1      11.650  14.520  -7.088  1.00  0.00     0.168 HD
HETATM   12  C14 UNL     1      12.441  12.833  -6.225  1.00  0.00     0.199 A 
HETATM   13  N4  UNL     1      13.467  11.995  -6.286  1.00  0.00    -0.287 N 
ATOM     14  H4  UNL     1      13.480  11.223  -5.620  1.00  0.00     0.188 HD
HETATM   15  N5  UNL     1      14.482  12.081  -7.145  1.00  0.00    -0.234 N 
ENDROOT
BRANCH   5  16
HETATM   16  C6  UNL     1      17.492  11.516  -9.063  1.00  0.00     0.049 C 
HETATM   17  C7  UNL     1      18.059  12.786  -9.742  1.00  0.00     0.085 C 
HETATM   18  S1  UNL     1      17.249  12.817 -11.354  1.00  0.00    -0.159 SA
HETATM   19  C8  UNL     1      16.976  11.033 -11.455  1.00  0.00     0.001 C 
HETATM   20  C9  UNL     1      15.531  10.799 -11.853  1.00  0.00     0.026 C 
HETATM   21  C10 UNL     1      17.855  10.431 -12.526  1.00  0.00     0.026 C 
HETATM   22  C11 UNL     1      17.302  10.495 -10.108  1.00  0.00     0.031 C 
ENDBRANCH   5  16
BRANCH   9  23
HETATM   23  N2  UNL     1      13.413  14.990  -8.854  1.00  0.00    -0.382 N 
ATOM     24  H22 UNL     1      13.966  15.834  -8.706  1.00  0.00     0.157 HD
ATOM     25  H21 UNL     1      12.853  14.945  -9.705  1.00  0.00     0.157 HD
ENDBRANCH   9  23
TORSDOF 2
ENDMDL
