MODEL 1
REMARK VINA RESULT: -8.788743504      0.000      0.000
REMARK  3 active torsions:
REMARK  status: ('A' for Active; 'I' for Inactive)
REMARK    1  A    between atoms: C2_2  and  C3_3 
REMARK    2  A    between atoms: C3_3  and  N1_5 
REMARK    3  A    between atoms: C14_21  and  N5_22 
ROOT
HETATM    1  N1  UNL     1      16.526  11.687  -9.333  1.00  0.00    -0.313 N 
HETATM    2  C5  UNL     1      15.658  12.662  -9.614  1.00  0.00     0.124 A 
HETATM    3  N2  UNL     1      15.609  13.576 -10.572  1.00  0.00    -0.331 N 
ATOM      4  H2  UNL     1      16.344  13.580 -11.279  1.00  0.00     0.168 HD
HETATM    5  C6  UNL     1      14.652  14.484 -10.654  1.00  0.00     0.078 A 
HETATM    6  C7  UNL     1      14.643  15.478 -11.768  1.00  0.00     0.089 C 
HETATM    7  N3  UNL     1      13.709  14.471  -9.727  1.00  0.00    -0.349 N 
ATOM      8  H3  UNL     1      12.974  15.175  -9.789  1.00  0.00     0.167 HD
HETATM    9  C8  UNL     1      13.648  13.576  -8.683  1.00  0.00     0.021 A 
HETATM   10  C9  UNL     1      12.677  13.911  -7.648  1.00  0.00     0.069 C 
HETATM   11  C10 UNL     1      14.633  12.646  -8.636  1.00  0.00     0.046 A 
HETATM   12  C11 UNL     1      14.912  11.621  -7.774  1.00  0.00     0.047 A 
HETATM   13  C12 UNL     1      14.272  11.105  -6.692  1.00  0.00     0.037 A 
HETATM   14  C13 UNL     1      12.902  11.368  -6.248  1.00  0.00     0.070 C 
HETATM   15  N4  UNL     1      14.868  10.043  -6.078  1.00  0.00    -0.195 N 
ATOM     16  H4  UNL     1      14.414   9.643  -5.258  1.00  0.00     0.184 HD
HETATM   17  C14 UNL     1      16.022   9.495  -6.496  1.00  0.00     0.677 A 
HETATM   18  N6  UNL     1      16.629  10.002  -7.574  1.00  0.00    -0.176 N 
ATOM     19  H6  UNL     1      17.503   9.587  -7.899  1.00  0.00     0.186 HD
HETATM   20  C15 UNL     1      16.111  11.044  -8.232  1.00  0.00     0.138 A 
ENDROOT
BRANCH   1  21
HETATM   21  C3  UNL     1      17.711  11.348 -10.054  1.00  0.00     0.089 C 
HETATM   22  C4  UNL     1      18.658  12.535 -10.157  1.00  0.00     0.033 C 
BRANCH  21  23
HETATM   23  C2  UNL     1      17.432  10.779 -11.423  1.00  0.00     0.021 C 
HETATM   24  C1  UNL     1      18.702  10.198 -12.033  1.00  0.00     0.007 C 
ENDBRANCH  21  23
ENDBRANCH   1  21
BRANCH  17  25
HETATM   25  N5  UNL     1      16.478   8.513  -5.831  1.00  0.00    -0.234 N 
ATOM     26  H52 UNL     1      17.052   7.775  -6.239  1.00  0.00     0.174 HD
ATOM     27  H51 UNL     1      16.255   8.473  -4.837  1.00  0.00     0.174 HD
ENDBRANCH  17  25
TORSDOF 3
ENDMDL
MODEL 2
REMARK VINA RESULT: -8.635293141      1.840      4.780
REMARK  3 active torsions:
REMARK  status: ('A' for Active; 'I' for Inactive)
REMARK    1  A    between atoms: C2_2  and  C3_3 
REMARK    2  A    between atoms: C3_3  and  N1_5 
REMARK    3  A    between atoms: C14_21  and  N5_22 
ROOT
HETATM    1  N1  UNL     1      15.938  11.061  -9.297  1.00  0.00    -0.313 N 
HETATM    2  C5  UNL     1      16.697  11.320 -10.364  1.00  0.00     0.124 A 
HETATM    3  N2  UNL     1      17.660  10.642 -10.971  1.00  0.00    -0.331 N 
ATOM      4  H2  UNL     1      17.908   9.721 -10.609  1.00  0.00     0.168 HD
HETATM    5  C6  UNL     1      18.314  11.103 -12.023  1.00  0.00     0.078 A 
HETATM    6  C7  UNL     1      19.379  10.283 -12.673  1.00  0.00     0.089 C 
HETATM    7  N3  UNL     1      17.986  12.302 -12.475  1.00  0.00    -0.349 N 
ATOM      8  H3  UNL     1      18.495  12.658 -13.284  1.00  0.00     0.167 HD
HETATM    9  C8  UNL     1      17.007  13.103 -11.935  1.00  0.00     0.021 A 
HETATM   10  C9  UNL     1      16.998  14.475 -12.430  1.00  0.00     0.069 C 
HETATM   11  C10 UNL     1      16.342  12.596 -10.869  1.00  0.00     0.046 A 
HETATM   12  C11 UNL     1      15.336  13.079 -10.077  1.00  0.00     0.047 A 
HETATM   13  C12 UNL     1      14.581  14.208 -10.104  1.00  0.00     0.037 A 
HETATM   14  C13 UNL     1      14.463  15.184 -11.189  1.00  0.00     0.070 C 
HETATM   15  N4  UNL     1      13.639  14.337  -9.125  1.00  0.00    -0.195 N 
ATOM     16  H4  UNL     1      13.065  15.180  -9.117  1.00  0.00     0.184 HD
HETATM   17  C14 UNL     1      13.427  13.415  -8.171  1.00  0.00     0.677 A 
HETATM   18  N6  UNL     1      14.167  12.301  -8.169  1.00  0.00    -0.176 N 
ATOM     19  H6  UNL     1      14.007  11.595  -7.450  1.00  0.00     0.186 HD
HETATM   20  C15 UNL     1      15.111  12.097  -9.093  1.00  0.00     0.138 A 
ENDROOT
BRANCH   1  21
HETATM   21  C3  UNL     1      15.964   9.891  -8.479  1.00  0.00     0.089 C 
HETATM   22  C4  UNL     1      14.598   9.221  -8.423  1.00  0.00     0.033 C 
BRANCH  21  23
HETATM   23  C2  UNL     1      16.478  10.151  -7.084  1.00  0.00     0.021 C 
HETATM   24  C1  UNL     1      16.255   8.935  -6.194  1.00  0.00     0.007 C 
ENDBRANCH  21  23
ENDBRANCH   1  21
BRANCH  17  25
HETATM   25  N5  UNL     1      12.525  13.659  -7.310  1.00  0.00    -0.234 N 
ATOM     26  H52 UNL     1      11.550  13.830  -7.551  1.00  0.00     0.174 HD
ATOM     27  H51 UNL     1      12.804  13.680  -6.330  1.00  0.00     0.174 HD
ENDBRANCH  17  25
TORSDOF 3
ENDMDL
MODEL 3
REMARK VINA RESULT: -8.605749601      1.610      4.635
REMARK  3 active torsions:
REMARK  status: ('A' for Active; 'I' for Inactive)
REMARK    1  A    between atoms: C2_2  and  C3_3 
REMARK    2  A    between atoms: C3_3  and  N1_5 
REMARK    3  A    between atoms: C14_21  and  N5_22 
ROOT
HETATM    1  N1  UNL     1      16.028  10.624  -8.265  1.00  0.00    -0.313 N 
HETATM    2  C5  UNL     1      15.120  11.512  -7.856  1.00  0.00     0.124 A 
HETATM    3  N2  UNL     1      14.309  11.555  -6.809  1.00  0.00    -0.331 N 
ATOM      4  H2  UNL     1      14.348  10.792  -6.133  1.00  0.00     0.168 HD
HETATM    5  C6  UNL     1      13.451  12.538  -6.600  1.00  0.00     0.078 A 
HETATM    6  C7  UNL     1      12.575  12.537  -5.392  1.00  0.00     0.089 C 
HETATM    7  N3  UNL     1      13.408  13.516  -7.489  1.00  0.00    -0.349 N 
ATOM      8  H3  UNL     1      12.742  14.272  -7.329  1.00  0.00     0.167 HD
HETATM    9  C8  UNL     1      14.195  13.588  -8.615  1.00  0.00     0.021 A 
HETATM   10  C9  UNL     1      13.796  14.610  -9.576  1.00  0.00     0.069 C 
HETATM   11  C10 UNL     1      15.077  12.575  -8.792  1.00  0.00     0.046 A 
HETATM   12  C11 UNL     1      16.000  12.296  -9.763  1.00  0.00     0.047 A 
HETATM   13  C12 UNL     1      16.429  12.960 -10.868  1.00  0.00     0.037 A 
HETATM   14  C13 UNL     1      16.175  14.355 -11.233  1.00  0.00     0.070 C 
HETATM   15  N4  UNL     1      17.401  12.352 -11.608  1.00  0.00    -0.195 N 
ATOM     16  H4  UNL     1      17.734  12.825 -12.448  1.00  0.00     0.184 HD
HETATM   17  C14 UNL     1      17.944  11.165 -11.290  1.00  0.00     0.677 A 
HETATM   18  N6  UNL     1      17.523  10.532 -10.189  1.00  0.00    -0.176 N 
ATOM     19  H6  UNL     1      17.935   9.633  -9.940  1.00  0.00     0.186 HD
HETATM   20  C15 UNL     1      16.574  11.059  -9.410  1.00  0.00     0.138 A 
ENDROOT
BRANCH   1  21
HETATM   21  C3  UNL     1      16.392   9.399  -7.626  1.00  0.00     0.089 C 
HETATM   22  C4  UNL     1      15.291   8.357  -7.753  1.00  0.00     0.033 C 
BRANCH  21  23
HETATM   23  C2  UNL     1      16.782   9.577  -6.179  1.00  0.00     0.021 C 
HETATM   24  C1  UNL     1      16.001   8.618  -5.290  1.00  0.00     0.007 C 
ENDBRANCH  21  23
ENDBRANCH   1  21
BRANCH  17  25
HETATM   25  N5  UNL     1      18.836  10.702 -12.067  1.00  0.00    -0.234 N 
ATOM     26  H52 UNL     1      19.152  11.181 -12.909  1.00  0.00     0.174 HD
ATOM     27  H51 UNL     1      19.252   9.803 -11.823  1.00  0.00     0.174 HD
ENDBRANCH  17  25
TORSDOF 3
ENDMDL
MODEL 4
REMARK VINA RESULT: -8.547879501      0.627      4.515
REMARK  3 active torsions:
REMARK  status: ('A' for Active; 'I' for Inactive)
REMARK    1  A    between atoms: C2_2  and  C3_3 
REMARK    2  A    between atoms: C3_3  and  N1_5 
REMARK    3  A    between atoms: C14_21  and  N5_22 
ROOT
HETATM    1  N1  UNL     1      16.603  11.675  -9.400  1.00  0.00    -0.313 N 
HETATM    2  C5  UNL     1      16.125  11.083  -8.303  1.00  0.00     0.124 A 
HETATM    3  N2  UNL     1      16.552  10.064  -7.571  1.00  0.00    -0.331 N 
ATOM      4  H2  UNL     1      17.424   9.607  -7.836  1.00  0.00     0.168 HD
HETATM    5  C6  UNL     1      15.900   9.613  -6.513  1.00  0.00     0.078 A 
HETATM    6  C7  UNL     1      16.441   8.471  -5.719  1.00  0.00     0.089 C 
HETATM    7  N3  UNL     1      14.767  10.213  -6.186  1.00  0.00    -0.349 N 
ATOM      8  H3  UNL     1      14.263   9.860  -5.372  1.00  0.00     0.167 HD
HETATM    9  C8  UNL     1      14.219  11.277  -6.864  1.00  0.00     0.021 A 
HETATM   10  C9  UNL     1      12.850  11.603  -6.484  1.00  0.00     0.069 C 
HETATM   11  C10 UNL     1      14.920  11.729  -7.932  1.00  0.00     0.046 A 
HETATM   12  C11 UNL     1      14.705  12.733  -8.836  1.00  0.00     0.047 A 
HETATM   13  C12 UNL     1      13.755  13.697  -8.959  1.00  0.00     0.037 A 
HETATM   14  C13 UNL     1      12.755  14.105  -7.970  1.00  0.00     0.070 C 
HETATM   15  N4  UNL     1      13.884  14.552 -10.014  1.00  0.00    -0.195 N 
ATOM     16  H4  UNL     1      13.179  15.278 -10.135  1.00  0.00     0.184 HD
HETATM   17  C14 UNL     1      14.889  14.489 -10.903  1.00  0.00     0.677 A 
HETATM   18  N6  UNL     1      15.827  13.546 -10.758  1.00  0.00    -0.176 N 
ATOM     19  H6  UNL     1      16.595  13.496 -11.427  1.00  0.00     0.186 HD
HETATM   20  C15 UNL     1      15.773  12.668  -9.751  1.00  0.00     0.138 A 
ENDROOT
BRANCH   1  21
HETATM   21  C3  UNL     1      17.793  11.342 -10.116  1.00  0.00     0.089 C 
HETATM   22  C4  UNL     1      18.728  12.538 -10.224  1.00  0.00     0.033 C 
BRANCH  21  23
HETATM   23  C2  UNL     1      17.524  10.762 -11.482  1.00  0.00     0.021 C 
HETATM   24  C1  UNL     1      18.790  10.145 -12.063  1.00  0.00     0.007 C 
ENDBRANCH  21  23
ENDBRANCH   1  21
BRANCH  17  25
HETATM   25  N5  UNL     1      14.891  15.338 -11.847  1.00  0.00    -0.234 N 
ATOM     26  H52 UNL     1      15.122  15.106 -12.813  1.00  0.00     0.174 HD
ATOM     27  H51 UNL     1      14.644  16.300 -11.615  1.00  0.00     0.174 HD
ENDBRANCH  17  25
TORSDOF 3
ENDMDL
MODEL 5
REMARK VINA RESULT: -8.385841545      1.893      4.693
REMARK  3 active torsions:
REMARK  status: ('A' for Active; 'I' for Inactive)
REMARK    1  A    between atoms: C2_2  and  C3_3 
REMARK    2  A    between atoms: C3_3  and  N1_5 
REMARK    3  A    between atoms: C14_21  and  N5_22 
ROOT
HETATM    1  N1  UNL     1      16.031  11.011  -9.357  1.00  0.00    -0.313 N 
HETATM    2  C5  UNL     1      15.195  12.041  -9.212  1.00  0.00     0.124 A 
HETATM    3  N2  UNL     1      14.225  12.300  -8.347  1.00  0.00    -0.331 N 
ATOM      4  H2  UNL     1      14.041  11.622  -7.607  1.00  0.00     0.168 HD
HETATM    5  C6  UNL     1      13.485  13.394  -8.398  1.00  0.00     0.078 A 
HETATM    6  C7  UNL     1      12.418  13.636  -7.383  1.00  0.00     0.089 C 
HETATM    7  N3  UNL     1      13.732  14.259  -9.367  1.00  0.00    -0.349 N 
ATOM      8  H3  UNL     1      13.157  15.101  -9.408  1.00  0.00     0.167 HD
HETATM    9  C8  UNL     1      14.707  14.107 -10.325  1.00  0.00     0.021 A 
HETATM   10  C9  UNL     1      14.625  15.048 -11.435  1.00  0.00     0.069 C 
HETATM   11  C10 UNL     1      15.461  12.984 -10.236  1.00  0.00     0.046 A 
HETATM   12  C11 UNL     1      16.494  12.488 -10.984  1.00  0.00     0.047 A 
HETATM   13  C12 UNL     1      17.196  12.963 -12.045  1.00  0.00     0.037 A 
HETATM   14  C13 UNL     1      17.202  14.326 -12.581  1.00  0.00     0.070 C 
HETATM   15  N4  UNL     1      18.191  12.165 -12.527  1.00  0.00    -0.195 N 
ATOM     16  H4  UNL     1      18.728  12.494 -13.329  1.00  0.00     0.184 HD
HETATM   17  C14 UNL     1      18.504  10.968 -12.002  1.00  0.00     0.677 A 
HETATM   18  N6  UNL     1      17.815  10.522 -10.946  1.00  0.00    -0.176 N 
ATOM     19  H6  UNL     1      18.050   9.616 -10.540  1.00  0.00     0.186 HD
HETATM   20  C15 UNL     1      16.823  11.243 -10.414  1.00  0.00     0.138 A 
ENDROOT
BRANCH   1  21
HETATM   21  C3  UNL     1      16.108   9.837  -8.548  1.00  0.00     0.089 C 
HETATM   22  C4  UNL     1      14.769   9.115  -8.488  1.00  0.00     0.033 C 
BRANCH  21  23
HETATM   23  C2  UNL     1      16.622  10.106  -7.156  1.00  0.00     0.021 C 
HETATM   24  C1  UNL     1      16.256   8.962  -6.217  1.00  0.00     0.007 C 
ENDBRANCH  21  23
ENDBRANCH   1  21
BRANCH  17  25
HETATM   25  N5  UNL     1      19.447  10.316 -12.549  1.00  0.00    -0.234 N 
ATOM     26  H52 UNL     1      20.391  10.684 -12.664  1.00  0.00     0.174 HD
ATOM     27  H51 UNL     1      19.238   9.376 -12.884  1.00  0.00     0.174 HD
ENDBRANCH  17  25
TORSDOF 3
ENDMDL
