MODEL 1
REMARK VINA RESULT: -8.105023637      0.000      0.000
REMARK  3 active torsions:
REMARK  status: ('A' for Active; 'I' for Inactive)
REMARK    1  A    between atoms: N1_2  and  C3_4 
REMARK    2  A    between atoms: C5_10  and  N4_11 
REMARK    3  A    between atoms: C6_16  and  C7_17 
ROOT
HETATM    1  C3  UNL     1      16.433  10.963  -8.413  1.00  0.00     0.148 A 
HETATM    2  N2  UNL     1      17.149  10.297  -9.290  1.00  0.00    -0.321 N 
ATOM      3  H2  UNL     1      17.298   9.295  -9.173  1.00  0.00     0.169 HD
HETATM    4  C4  UNL     1      17.664  10.914 -10.300  1.00  0.00     0.142 A 
HETATM    5  N3  UNL     1      18.406  10.350 -11.322  1.00  0.00    -0.175 N 
ATOM      6  H3  UNL     1      18.619   9.353 -11.289  1.00  0.00     0.186 HD
HETATM    7  C5  UNL     1      18.837  11.054 -12.317  1.00  0.00     0.677 A 
HETATM    8  N5  UNL     1      18.631  12.387 -12.481  1.00  0.00    -0.194 N 
ATOM      9  H5  UNL     1      18.990  12.896 -13.288  1.00  0.00     0.184 HD
HETATM   10  C6  UNL     1      17.906  13.004 -11.489  1.00  0.00     0.051 A 
HETATM   11  C13 UNL     1      17.444  12.267 -10.433  1.00  0.00     0.076 A 
HETATM   12  S1  UNL     1      16.488  12.560  -9.051  1.00  0.00    -0.048 SA
ENDROOT
BRANCH  10  13
HETATM   13  C7  UNL     1      17.739  14.451 -11.376  1.00  0.00     0.038 C 
HETATM   14  C8  UNL     1      16.834  15.136 -12.371  1.00  0.00     0.011 C 
HETATM   15  C9  UNL     1      16.823  16.605 -11.854  1.00  0.00     0.001 C 
HETATM   16  C10 UNL     1      18.129  17.179 -12.332  1.00  0.00     0.000 C 
HETATM   17  C11 UNL     1      19.312  16.405 -11.852  1.00  0.00     0.001 C 
HETATM   18  C12 UNL     1      19.149  14.952 -11.938  1.00  0.00     0.011 C 
ENDBRANCH  10  13
BRANCH   7  19
HETATM   19  N4  UNL     1      19.588  10.469 -13.254  1.00  0.00    -0.234 N 
ATOM     20  H42 UNL     1      19.073  10.027 -14.016  1.00  0.00     0.174 HD
ATOM     21  H41 UNL     1      20.604  10.522 -13.183  1.00  0.00     0.174 HD
ENDBRANCH   7  19
BRANCH   1  22
HETATM   22  N1  UNL     1      15.742  10.470  -7.243  1.00  0.00    -0.370 N 
HETATM   23  C1  UNL     1      14.637  11.238  -6.737  1.00  0.00     0.151 C 
HETATM   24  C2  UNL     1      16.100   9.237  -6.608  1.00  0.00     0.151 C 
ENDBRANCH   1  22
TORSDOF 3
ENDMDL
MODEL 2
REMARK VINA RESULT: -8.100846260      1.047      1.561
REMARK  3 active torsions:
REMARK  status: ('A' for Active; 'I' for Inactive)
REMARK    1  A    between atoms: N1_2  and  C3_4 
REMARK    2  A    between atoms: C5_10  and  N4_11 
REMARK    3  A    between atoms: C6_16  and  C7_17 
ROOT
HETATM    1  C3  UNL     1      16.724  11.257  -8.757  1.00  0.00     0.148 A 
HETATM    2  N2  UNL     1      17.227  10.440  -9.653  1.00  0.00    -0.321 N 
ATOM      3  H2  UNL     1      17.028   9.441  -9.602  1.00  0.00     0.169 HD
HETATM    4  C4  UNL     1      17.974  10.903 -10.599  1.00  0.00     0.142 A 
HETATM    5  N3  UNL     1      18.544  10.180 -11.630  1.00  0.00    -0.175 N 
ATOM      6  H3  UNL     1      18.411   9.169 -11.661  1.00  0.00     0.186 HD
HETATM    7  C5  UNL     1      19.239  10.752 -12.558  1.00  0.00     0.677 A 
HETATM    8  N5  UNL     1      19.497  12.084 -12.634  1.00  0.00    -0.194 N 
ATOM      9  H5  UNL     1      20.051  12.487 -13.390  1.00  0.00     0.184 HD
HETATM   10  C6  UNL     1      18.964  12.853 -11.627  1.00  0.00     0.051 A 
HETATM   11  C13 UNL     1      18.224  12.257 -10.643  1.00  0.00     0.076 A 
HETATM   12  S1  UNL     1      17.342  12.777  -9.278  1.00  0.00    -0.048 SA
ENDROOT
BRANCH  10  13
HETATM   13  C7  UNL     1      19.281  14.264 -11.418  1.00  0.00     0.038 C 
HETATM   14  C8  UNL     1      18.809  15.253 -12.456  1.00  0.00     0.011 C 
HETATM   15  C9  UNL     1      19.222  16.617 -11.826  1.00  0.00     0.001 C 
HETATM   16  C10 UNL     1      20.699  16.721 -12.095  1.00  0.00     0.000 C 
HETATM   17  C11 UNL     1      21.470  15.570 -11.541  1.00  0.00     0.001 C 
HETATM   18  C12 UNL     1      20.841  14.266 -11.764  1.00  0.00     0.011 C 
ENDBRANCH  10  13
BRANCH   7  19
HETATM   19  N4  UNL     1      19.805  10.002 -13.507  1.00  0.00    -0.234 N 
ATOM     20  H42 UNL     1      20.201   9.117 -13.188  1.00  0.00     0.174 HD
ATOM     21  H41 UNL     1      19.782  10.321 -14.475  1.00  0.00     0.174 HD
ENDBRANCH   7  19
BRANCH   1  22
HETATM   22  N1  UNL     1      15.843  10.961  -7.650  1.00  0.00    -0.370 N 
HETATM   23  C1  UNL     1      15.949   9.667  -7.030  1.00  0.00     0.151 C 
HETATM   24  C2  UNL     1      14.911  11.919  -7.138  1.00  0.00     0.151 C 
ENDBRANCH   1  22
TORSDOF 3
ENDMDL
MODEL 3
REMARK VINA RESULT: -7.987061507      1.435      1.801
REMARK  3 active torsions:
REMARK  status: ('A' for Active; 'I' for Inactive)
REMARK    1  A    between atoms: N1_2  and  C3_4 
REMARK    2  A    between atoms: C5_10  and  N4_11 
REMARK    3  A    between atoms: C6_16  and  C7_17 
ROOT
HETATM    1  C3  UNL     1      16.097  10.658  -8.035  1.00  0.00     0.148 A 
HETATM    2  N2  UNL     1      17.024  10.264  -8.877  1.00  0.00    -0.321 N 
ATOM      3  H2  UNL     1      17.549   9.409  -8.695  1.00  0.00     0.169 HD
HETATM    4  C4  UNL     1      17.270  10.962  -9.935  1.00  0.00     0.142 A 
HETATM    5  N3  UNL     1      18.184  10.661 -10.928  1.00  0.00    -0.175 N 
ATOM      6  H3  UNL     1      18.766   9.830 -10.833  1.00  0.00     0.186 HD
HETATM    7  C5  UNL     1      18.318  11.407 -11.976  1.00  0.00     0.677 A 
HETATM    8  N5  UNL     1      17.613  12.542 -12.225  1.00  0.00    -0.194 N 
ATOM      9  H5  UNL     1      17.755  13.094 -13.071  1.00  0.00     0.184 HD
HETATM   10  C6  UNL     1      16.695  12.896 -11.264  1.00  0.00     0.051 A 
HETATM   11  C13 UNL     1      16.544  12.112 -10.154  1.00  0.00     0.076 A 
HETATM   12  S1  UNL     1      15.535  12.105  -8.779  1.00  0.00    -0.048 SA
ENDROOT
BRANCH  10  13
HETATM   13  C7  UNL     1      15.979  14.170 -11.246  1.00  0.00     0.038 C 
HETATM   14  C8  UNL     1      14.492  14.146 -11.500  1.00  0.00     0.011 C 
HETATM   15  C9  UNL     1      14.093  15.635 -11.279  1.00  0.00     0.001 C 
HETATM   16  C10 UNL     1      14.510  16.326 -12.549  1.00  0.00     0.000 C 
HETATM   17  C11 UNL     1      15.961  16.154 -12.852  1.00  0.00     0.001 C 
HETATM   18  C12 UNL     1      16.458  14.793 -12.637  1.00  0.00     0.011 C 
ENDBRANCH  10  13
BRANCH   7  19
HETATM   19  N4  UNL     1      19.247  11.096 -12.884  1.00  0.00    -0.234 N 
ATOM     20  H42 UNL     1      18.935  10.486 -13.639  1.00  0.00     0.174 HD
ATOM     21  H41 UNL     1      20.180  11.500 -12.801  1.00  0.00     0.174 HD
ENDBRANCH   7  19
BRANCH   1  22
HETATM   22  N1  UNL     1      15.640  10.017  -6.823  1.00  0.00    -0.370 N 
HETATM   23  C1  UNL     1      14.470  10.550  -6.177  1.00  0.00     0.151 C 
HETATM   24  C2  UNL     1      16.287   8.862  -6.278  1.00  0.00     0.151 C 
ENDBRANCH   1  22
TORSDOF 3
ENDMDL
MODEL 4
REMARK VINA RESULT: -7.678115264      3.707      5.341
REMARK  3 active torsions:
REMARK  status: ('A' for Active; 'I' for Inactive)
REMARK    1  A    between atoms: N1_2  and  C3_4 
REMARK    2  A    between atoms: C5_10  and  N4_11 
REMARK    3  A    between atoms: C6_16  and  C7_17 
ROOT
HETATM    1  C3  UNL     1      12.998  12.882  -6.398  1.00  0.00     0.148 A 
HETATM    2  N2  UNL     1      12.737  13.913  -7.167  1.00  0.00    -0.321 N 
ATOM      3  H2  UNL     1      12.033  14.596  -6.886  1.00  0.00     0.169 HD
HETATM    4  C4  UNL     1      13.373  14.062  -8.281  1.00  0.00     0.142 A 
HETATM    5  N3  UNL     1      13.239  15.107  -9.176  1.00  0.00    -0.175 N 
ATOM      6  H3  UNL     1      12.550  15.837  -8.989  1.00  0.00     0.186 HD
HETATM    7  C5  UNL     1      13.963  15.184 -10.244  1.00  0.00     0.677 A 
HETATM    8  N5  UNL     1      14.908  14.282 -10.617  1.00  0.00    -0.194 N 
ATOM      9  H5  UNL     1      15.456  14.391 -11.470  1.00  0.00     0.184 HD
HETATM   10  C6  UNL     1      15.078  13.213  -9.768  1.00  0.00     0.051 A 
HETATM   11  C13 UNL     1      14.319  13.125  -8.634  1.00  0.00     0.076 A 
HETATM   12  S1  UNL     1      14.216  12.067  -7.300  1.00  0.00    -0.048 SA
ENDROOT
BRANCH  10  13
HETATM   13  C7  UNL     1      15.898  12.044 -10.078  1.00  0.00     0.038 C 
HETATM   14  C8  UNL     1      17.206  11.885  -9.342  1.00  0.00     0.011 C 
HETATM   15  C9  UNL     1      17.704  10.498  -9.847  1.00  0.00     0.001 C 
HETATM   16  C10 UNL     1      18.267  10.777 -11.214  1.00  0.00     0.000 C 
HETATM   17  C11 UNL     1      17.272  11.404 -12.132  1.00  0.00     0.001 C 
HETATM   18  C12 UNL     1      16.469  12.460 -11.512  1.00  0.00     0.011 C 
ENDBRANCH  10  13
BRANCH   7  19
HETATM   19  N4  UNL     1      13.761  16.191 -11.098  1.00  0.00    -0.234 N 
ATOM     20  H42 UNL     1      14.094  17.104 -10.787  1.00  0.00     0.174 HD
ATOM     21  H41 UNL     1      13.333  15.999 -12.004  1.00  0.00     0.174 HD
ENDBRANCH   7  19
BRANCH   1  22
HETATM   22  N1  UNL     1      12.437  12.546  -5.109  1.00  0.00    -0.370 N 
HETATM   23  C1  UNL     1      12.474  11.170  -4.694  1.00  0.00     0.151 C 
HETATM   24  C2  UNL     1      11.889  13.538  -4.232  1.00  0.00     0.151 C 
ENDBRANCH   1  22
TORSDOF 3
ENDMDL
MODEL 5
REMARK VINA RESULT: -7.569470916      2.768      4.177
REMARK  3 active torsions:
REMARK  status: ('A' for Active; 'I' for Inactive)
REMARK    1  A    between atoms: N1_2  and  C3_4 
REMARK    2  A    between atoms: C5_10  and  N4_11 
REMARK    3  A    between atoms: C6_16  and  C7_17 
ROOT
HETATM    1  C3  UNL     1      14.785  11.409  -7.493  1.00  0.00     0.148 A 
HETATM    2  N2  UNL     1      14.085  12.272  -8.192  1.00  0.00    -0.321 N 
ATOM      3  H2  UNL     1      13.139  12.516  -7.901  1.00  0.00     0.169 HD
HETATM    4  C4  UNL     1      14.597  12.811  -9.247  1.00  0.00     0.142 A 
HETATM    5  N3  UNL     1      14.004  13.759 -10.061  1.00  0.00    -0.175 N 
ATOM      6  H3  UNL     1      13.050  14.061  -9.859  1.00  0.00     0.186 HD
HETATM    7  C5  UNL     1      14.626  14.271 -11.072  1.00  0.00     0.677 A 
HETATM    8  N5  UNL     1      15.890  13.955 -11.456  1.00  0.00    -0.194 N 
ATOM      9  H5  UNL     1      16.338  14.392 -12.261  1.00  0.00     0.184 HD
HETATM   10  C6  UNL     1      16.527  13.009 -10.688  1.00  0.00     0.051 A 
HETATM   11  C13 UNL     1      15.878  12.462  -9.614  1.00  0.00     0.076 A 
HETATM   12  S1  UNL     1      16.259  11.350  -8.380  1.00  0.00    -0.048 SA
ENDROOT
BRANCH  10  13
HETATM   13  C7  UNL     1      17.804  12.393 -11.039  1.00  0.00     0.038 C 
HETATM   14  C8  UNL     1      18.547  12.942 -12.233  1.00  0.00     0.011 C 
HETATM   15  C9  UNL     1      19.875  12.128 -12.201  1.00  0.00     0.001 C 
HETATM   16  C10 UNL     1      19.507  10.790 -12.782  1.00  0.00     0.000 C 
HETATM   17  C11 UNL     1      18.400  10.121 -12.039  1.00  0.00     0.001 C 
HETATM   18  C12 UNL     1      17.299  11.016 -11.673  1.00  0.00     0.011 C 
ENDBRANCH  10  13
BRANCH   7  19
HETATM   19  N4  UNL     1      13.991  15.150 -11.853  1.00  0.00    -0.234 N 
ATOM     20  H42 UNL     1      14.564  15.913 -12.211  1.00  0.00     0.174 HD
ATOM     21  H41 UNL     1      13.007  14.999 -12.074  1.00  0.00     0.174 HD
ENDBRANCH   7  19
BRANCH   1  22
HETATM   22  N1  UNL     1      14.425  10.722  -6.274  1.00  0.00    -0.370 N 
HETATM   23  C1  UNL     1      15.303   9.689  -5.795  1.00  0.00     0.151 C 
HETATM   24  C2  UNL     1      13.255  11.064  -5.522  1.00  0.00     0.151 C 
ENDBRANCH   1  22
TORSDOF 3
ENDMDL
