MODEL 1
REMARK VINA RESULT: -8.390044958      0.000      0.000
REMARK  3 active torsions:
REMARK  status: ('A' for Active; 'I' for Inactive)
REMARK    1  A    between atoms: S1_2  and  C2_3 
REMARK    2  A    between atoms: N3_10  and  C5_11 
REMARK    3  A    between atoms: C14_20  and  N4_21 
ROOT
HETATM    1  C2  UNL     1      12.601  12.297  -5.292  1.00  0.00     0.147 A 
HETATM    2  N1  UNL     1      13.132  11.082  -5.487  1.00  0.00    -0.321 N 
ATOM      3  H1  UNL     1      12.930  10.347  -4.808  1.00  0.00     0.169 HD
HETATM    4  C3  UNL     1      13.922  10.787  -6.540  1.00  0.00     0.139 A 
HETATM    5  N2  UNL     1      14.550   9.664  -6.929  1.00  0.00    -0.336 N 
ATOM      6  H2  UNL     1      14.530   8.765  -6.447  1.00  0.00     0.168 HD
HETATM    7  C4  UNL     1      15.211   9.938  -8.073  1.00  0.00     0.185 A 
HETATM    8  N3  UNL     1      15.025  11.225  -8.435  1.00  0.00    -0.332 N 
HETATM    9  C13 UNL     1      14.215  11.782  -7.485  1.00  0.00     0.124 A 
HETATM   10  C14 UNL     1      13.664  13.021  -7.271  1.00  0.00     0.132 A 
HETATM   11  N5  UNL     1      12.885  13.250  -6.203  1.00  0.00    -0.321 N 
ATOM     12  H5  UNL     1      12.492  14.182  -6.074  1.00  0.00     0.169 HD
ENDROOT
BRANCH   8  13
HETATM   13  C5  UNL     1      15.555  11.918  -9.591  1.00  0.00     0.092 C 
HETATM   14  C6  UNL     1      16.908  12.496  -9.187  1.00  0.00     0.030 C 
HETATM   15  C7  UNL     1      17.548  13.250 -10.329  1.00  0.00    -0.012 C 
HETATM   16  C8  UNL     1      18.817  12.477 -10.700  1.00  0.00     0.005 C 
HETATM   17  C11 UNL     1      16.763  13.035 -11.632  1.00  0.00     0.009 C 
HETATM   18  C9  UNL     1      18.188  11.164 -11.187  1.00  0.00     0.005 C 
HETATM   19  C10 UNL     1      16.822  11.522 -11.713  1.00  0.00    -0.012 C 
HETATM   20  C12 UNL     1      15.696  11.016 -10.799  1.00  0.00     0.030 C 
ENDBRANCH   8  13
BRANCH  10  21
HETATM   21  N4  UNL     1      13.891  13.965  -8.096  1.00  0.00    -0.383 N 
ATOM     22  H42 UNL     1      14.406  13.769  -8.954  1.00  0.00     0.157 HD
ATOM     23  H41 UNL     1      13.558  14.907  -7.890  1.00  0.00     0.157 HD
ENDBRANCH  10  21
BRANCH   1  24
HETATM   24  S1  UNL     1      11.555  12.686  -3.898  1.00  0.00    -0.098 SA
HETATM   25  C1  UNL     1      11.560  14.504  -3.719  1.00  0.00     0.099 C 
ENDBRANCH   1  24
TORSDOF 3
ENDMDL
MODEL 2
REMARK VINA RESULT: -8.269004165      0.987      2.538
REMARK  3 active torsions:
REMARK  status: ('A' for Active; 'I' for Inactive)
REMARK    1  A    between atoms: S1_2  and  C2_3 
REMARK    2  A    between atoms: N3_10  and  C5_11 
REMARK    3  A    between atoms: C14_20  and  N4_21 
ROOT
HETATM    1  C2  UNL     1      12.908  12.325  -5.731  1.00  0.00     0.147 A 
HETATM    2  N1  UNL     1      12.764  13.254  -6.687  1.00  0.00    -0.321 N 
ATOM      3  H1  UNL     1      12.045  13.968  -6.568  1.00  0.00     0.169 HD
HETATM    4  C3  UNL     1      13.527  13.289  -7.798  1.00  0.00     0.139 A 
HETATM    5  N2  UNL     1      13.561  14.108  -8.863  1.00  0.00    -0.336 N 
ATOM      6  H2  UNL     1      12.957  14.915  -9.021  1.00  0.00     0.168 HD
HETATM    7  C4  UNL     1      14.537  13.671  -9.687  1.00  0.00     0.185 A 
HETATM    8  N3  UNL     1      15.140  12.578  -9.175  1.00  0.00    -0.332 N 
HETATM    9  C13 UNL     1      14.523  12.316  -7.984  1.00  0.00     0.124 A 
HETATM   10  C14 UNL     1      14.657  11.371  -6.997  1.00  0.00     0.132 A 
HETATM   11  N5  UNL     1      13.865  11.393  -5.914  1.00  0.00    -0.321 N 
ATOM     12  H5  UNL     1      13.991  10.676  -5.200  1.00  0.00     0.169 HD
ENDROOT
BRANCH   8  13
HETATM   13  C5  UNL     1      16.228  11.806  -9.739  1.00  0.00     0.092 C 
HETATM   14  C6  UNL     1      15.939  11.643 -11.227  1.00  0.00     0.030 C 
HETATM   15  C7  UNL     1      17.020  10.840 -11.914  1.00  0.00    -0.012 C 
HETATM   16  C8  UNL     1      17.703  11.790 -12.902  1.00  0.00     0.005 C 
HETATM   17  C11 UNL     1      18.208  10.606 -10.968  1.00  0.00     0.009 C 
HETATM   18  C9  UNL     1      18.305  12.802 -11.916  1.00  0.00     0.005 C 
HETATM   19  C10 UNL     1      18.552  12.045 -10.637  1.00  0.00    -0.012 C 
HETATM   20  C12 UNL     1      17.578  12.455  -9.522  1.00  0.00     0.030 C 
ENDBRANCH   8  13
BRANCH  10  21
HETATM   21  N4  UNL     1      15.544  10.464  -7.107  1.00  0.00    -0.383 N 
ATOM     22  H42 UNL     1      15.731  10.053  -8.022  1.00  0.00     0.157 HD
ATOM     23  H41 UNL     1      16.057  10.156  -6.281  1.00  0.00     0.157 HD
ENDBRANCH  10  21
BRANCH   1  24
HETATM   24  S1  UNL     1      11.896  12.282  -4.261  1.00  0.00    -0.098 SA
HETATM   25  C1  UNL     1      11.698  14.009  -3.700  1.00  0.00     0.099 C 
ENDBRANCH   1  24
TORSDOF 3
ENDMDL
MODEL 3
REMARK VINA RESULT: -8.228313030      1.304      1.447
REMARK  3 active torsions:
REMARK  status: ('A' for Active; 'I' for Inactive)
REMARK    1  A    between atoms: S1_2  and  C2_3 
REMARK    2  A    between atoms: N3_10  and  C5_11 
REMARK    3  A    between atoms: C14_20  and  N4_21 
ROOT
HETATM    1  C2  UNL     1      13.488  11.576  -6.083  1.00  0.00     0.147 A 
HETATM    2  N1  UNL     1      14.435  10.641  -6.250  1.00  0.00    -0.321 N 
ATOM      3  H1  UNL     1      14.472   9.863  -5.591  1.00  0.00     0.169 HD
HETATM    4  C3  UNL     1      15.339  10.682  -7.250  1.00  0.00     0.139 A 
HETATM    5  N2  UNL     1      16.353   9.874  -7.604  1.00  0.00    -0.336 N 
ATOM      6  H2  UNL     1      16.631   9.015  -7.130  1.00  0.00     0.168 HD
HETATM    7  C4  UNL     1      16.936  10.403  -8.700  1.00  0.00     0.185 A 
HETATM    8  N3  UNL     1      16.318  11.545  -9.066  1.00  0.00    -0.332 N 
HETATM    9  C13 UNL     1      15.307  11.744  -8.168  1.00  0.00     0.124 A 
HETATM   10  C14 UNL     1      14.332  12.693  -7.983  1.00  0.00     0.132 A 
HETATM   11  N5  UNL     1      13.462  12.593  -6.967  1.00  0.00    -0.321 N 
ATOM     12  H5  UNL     1      12.751  13.317  -6.859  1.00  0.00     0.169 HD
ENDROOT
BRANCH   8  13
HETATM   13  C5  UNL     1      16.629  12.417 -10.179  1.00  0.00     0.092 C 
HETATM   14  C6  UNL     1      17.958  13.095  -9.862  1.00  0.00     0.030 C 
HETATM   15  C7  UNL     1      18.374  14.039 -10.967  1.00  0.00    -0.012 C 
HETATM   16  C8  UNL     1      19.656  13.460 -11.571  1.00  0.00     0.005 C 
HETATM   17  C11 UNL     1      17.457  13.882 -12.189  1.00  0.00     0.009 C 
HETATM   18  C9  UNL     1      19.103  12.146 -12.142  1.00  0.00     0.005 C 
HETATM   19  C10 UNL     1      17.654  12.404 -12.464  1.00  0.00    -0.012 C 
HETATM   20  C12 UNL     1      16.707  11.677 -11.498  1.00  0.00     0.030 C 
ENDBRANCH   8  13
BRANCH  10  21
HETATM   21  N4  UNL     1      14.251  13.679  -8.785  1.00  0.00    -0.383 N 
ATOM     22  H42 UNL     1      14.029  14.606  -8.421  1.00  0.00     0.157 HD
ATOM     23  H41 UNL     1      14.405  13.534  -9.783  1.00  0.00     0.157 HD
ENDBRANCH  10  21
BRANCH   1  24
HETATM   24  S1  UNL     1      12.292  11.519  -4.759  1.00  0.00    -0.098 SA
HETATM   25  C1  UNL     1      11.915  13.248  -4.307  1.00  0.00     0.099 C 
ENDBRANCH   1  24
TORSDOF 3
ENDMDL
MODEL 4
REMARK VINA RESULT: -7.891788201      1.374      2.760
REMARK  3 active torsions:
REMARK  status: ('A' for Active; 'I' for Inactive)
REMARK    1  A    between atoms: S1_2  and  C2_3 
REMARK    2  A    between atoms: N3_10  and  C5_11 
REMARK    3  A    between atoms: C14_20  and  N4_21 
ROOT
HETATM    1  C2  UNL     1      13.156  12.128  -6.095  1.00  0.00     0.147 A 
HETATM    2  N1  UNL     1      12.838  13.139  -6.916  1.00  0.00    -0.321 N 
ATOM      3  H1  UNL     1      12.014  13.701  -6.700  1.00  0.00     0.169 HD
HETATM    4  C3  UNL     1      13.557  13.447  -8.015  1.00  0.00     0.139 A 
HETATM    5  N2  UNL     1      13.429  14.394  -8.959  1.00  0.00    -0.336 N 
ATOM      6  H2  UNL     1      12.697  15.103  -9.005  1.00  0.00     0.168 HD
HETATM    7  C4  UNL     1      14.442  14.239  -9.837  1.00  0.00     0.185 A 
HETATM    8  N3  UNL     1      15.230  13.204  -9.479  1.00  0.00    -0.332 N 
HETATM    9  C13 UNL     1      14.694  12.687  -8.333  1.00  0.00     0.124 A 
HETATM   10  C14 UNL     1      15.007  11.655  -7.483  1.00  0.00     0.132 A 
HETATM   11  N5  UNL     1      14.249  11.401  -6.405  1.00  0.00    -0.321 N 
ATOM     12  H5  UNL     1      14.510  10.626  -5.795  1.00  0.00     0.169 HD
ENDROOT
BRANCH   8  13
HETATM   13  C5  UNL     1      16.415  12.706 -10.145  1.00  0.00     0.092 C 
HETATM   14  C6  UNL     1      16.447  13.332 -11.535  1.00  0.00     0.030 C 
HETATM   15  C7  UNL     1      17.651  12.868 -12.322  1.00  0.00    -0.012 C 
HETATM   16  C8  UNL     1      18.523  14.107 -12.548  1.00  0.00     0.005 C 
HETATM   17  C11 UNL     1      18.615  12.076 -11.424  1.00  0.00     0.009 C 
HETATM   18  C9  UNL     1      18.900  14.429 -11.095  1.00  0.00     0.005 C 
HETATM   19  C10 UNL     1      18.876  13.117 -10.354  1.00  0.00    -0.012 C 
HETATM   20  C12 UNL     1      17.687  13.019  -9.386  1.00  0.00     0.030 C 
ENDBRANCH   8  13
BRANCH  10  21
HETATM   21  N4  UNL     1      16.028  10.931  -7.717  1.00  0.00    -0.383 N 
ATOM     22  H42 UNL     1      16.060   9.976  -7.359  1.00  0.00     0.157 HD
ATOM     23  H41 UNL     1      16.804  11.312  -8.258  1.00  0.00     0.157 HD
ENDBRANCH  10  21
BRANCH   1  24
HETATM   24  S1  UNL     1      12.203  11.722  -4.641  1.00  0.00    -0.098 SA
HETATM   25  C1  UNL     1      11.724  13.302  -3.860  1.00  0.00     0.099 C 
ENDBRANCH   1  24
TORSDOF 3
ENDMDL
MODEL 5
REMARK VINA RESULT: -7.413679637      3.389      4.988
REMARK  3 active torsions:
REMARK  status: ('A' for Active; 'I' for Inactive)
REMARK    1  A    between atoms: S1_2  and  C2_3 
REMARK    2  A    between atoms: N3_10  and  C5_11 
REMARK    3  A    between atoms: C14_20  and  N4_21 
ROOT
HETATM    1  C2  UNL     1      15.259  10.593  -8.358  1.00  0.00     0.147 A 
HETATM    2  N1  UNL     1      14.506  11.522  -7.751  1.00  0.00    -0.321 N 
ATOM      3  H1  UNL     1      14.142  11.322  -6.819  1.00  0.00     0.169 HD
HETATM    4  C3  UNL     1      14.208  12.710  -8.318  1.00  0.00     0.139 A 
HETATM    5  N2  UNL     1      13.490  13.768  -7.905  1.00  0.00    -0.336 N 
ATOM      6  H2  UNL     1      13.006  13.855  -7.012  1.00  0.00     0.168 HD
HETATM    7  C4  UNL     1      13.524  14.694  -8.886  1.00  0.00     0.185 A 
HETATM    8  N3  UNL     1      14.254  14.255  -9.932  1.00  0.00    -0.332 N 
HETATM    9  C13 UNL     1      14.697  13.006  -9.600  1.00  0.00     0.124 A 
HETATM   10  C14 UNL     1      15.466  12.044 -10.207  1.00  0.00     0.132 A 
HETATM   11  N5  UNL     1      15.726  10.883  -9.589  1.00  0.00    -0.321 N 
ATOM     12  H5  UNL     1      16.300  10.190 -10.069  1.00  0.00     0.169 HD
ENDROOT
BRANCH   8  13
HETATM   13  C5  UNL     1      14.537  14.938 -11.178  1.00  0.00     0.092 C 
HETATM   14  C6  UNL     1      13.490  16.034 -11.339  1.00  0.00     0.030 C 
HETATM   15  C7  UNL     1      13.694  16.808 -12.621  1.00  0.00    -0.012 C 
HETATM   16  C8  UNL     1      14.059  18.238 -12.210  1.00  0.00     0.005 C 
HETATM   17  C11 UNL     1      15.023  16.418 -13.286  1.00  0.00     0.009 C 
HETATM   18  C9  UNL     1      15.396  17.971 -11.504  1.00  0.00     0.005 C 
HETATM   19  C10 UNL     1      15.976  16.740 -12.152  1.00  0.00    -0.012 C 
HETATM   20  C12 UNL     1      15.934  15.520 -11.220  1.00  0.00     0.030 C 
ENDBRANCH   8  13
BRANCH  10  21
HETATM   21  N4  UNL     1      15.940  12.256 -11.370  1.00  0.00    -0.383 N 
ATOM     22  H42 UNL     1      16.132  11.466 -11.987  1.00  0.00     0.157 HD
ATOM     23  H41 UNL     1      16.126  13.212 -11.674  1.00  0.00     0.157 HD
ENDBRANCH  10  21
BRANCH   1  24
HETATM   24  S1  UNL     1      15.652   9.022  -7.606  1.00  0.00    -0.098 SA
HETATM   25  C1  UNL     1      15.672   9.286  -5.799  1.00  0.00     0.099 C 
ENDBRANCH   1  24
TORSDOF 3
ENDMDL
