MODEL 1
REMARK VINA RESULT: -8.541753865      0.000      0.000
REMARK  8 active torsions:
REMARK  status: ('A' for Active; 'I' for Inactive)
REMARK    1  A    between atoms: C2_2  and  C21_26 
REMARK    2  A    between atoms: C3_3  and  C4_4 
REMARK    3  A    between atoms: C4_4  and  C5_5 
REMARK    4  A    between atoms: C5_5  and  C6_6 
REMARK    5  A    between atoms: C6_6  and  O2_8 
REMARK    6  A    between atoms: O2_8  and  C7_9 
REMARK    7  A    between atoms: C7_9  and  C8_10 
REMARK    8  A    between atoms: C16_19  and  O4_20 
ROOT
HETATM    1  C8  UNL     1       3.933 -10.060 -23.639  1.00  0.00     0.146 C 
HETATM    2  C9  UNL     1       3.432 -10.378 -25.004  1.00  0.00     0.042 C 
HETATM    3  C10 UNL     1       2.263 -11.281 -24.793  1.00  0.00     0.026 C 
HETATM    4  C11 UNL     1       2.365 -11.614 -23.321  1.00  0.00     0.132 C 
HETATM    5  O3  UNL     1       3.002 -10.531 -22.723  1.00  0.00    -0.378 OA
HETATM    6  C12 UNL     1       0.878 -11.515 -23.257  1.00  0.00     0.034 C 
HETATM    7  C13 UNL     1       0.080 -12.746 -23.386  1.00  0.00    -0.015 C 
HETATM    8  C14 UNL     1       0.707 -13.863 -24.168  1.00  0.00     0.018 C 
HETATM    9  C15 UNL     1      -0.109 -13.300 -21.961  1.00  0.00     0.018 C 
HETATM   10  C16 UNL     1      -1.292 -12.442 -23.894  1.00  0.00     0.126 C 
HETATM   11  C17 UNL     1      -1.384 -11.450 -24.984  1.00  0.00     0.033 C 
HETATM   12  C18 UNL     1      -0.109 -10.890 -25.489  1.00  0.00     0.012 C 
HETATM   13  C19 UNL     1       0.937 -10.624 -24.467  1.00  0.00    -0.031 C 
HETATM   14  C20 UNL     1       1.012  -9.185 -24.058  1.00  0.00     0.016 C 
ENDROOT
BRANCH   1  15
HETATM   15  C7  UNL     1       5.309 -10.610 -23.370  1.00  0.00     0.210 C 
BRANCH  15  16
HETATM   16  O2  UNL     1       5.841 -11.381 -24.409  1.00  0.00    -0.319 OA
BRANCH  16  17
HETATM   17  C6  UNL     1       6.114 -12.728 -24.378  1.00  0.00     0.259 C 
HETATM   18  O1  UNL     1       5.194 -13.538 -24.629  1.00  0.00    -0.265 OA
BRANCH  17  19
HETATM   19  C5  UNL     1       7.463 -13.278 -24.059  1.00  0.00     0.115 C 
BRANCH  19  20
HETATM   20  C4  UNL     1       8.050 -13.766 -25.371  1.00  0.00     0.037 C 
BRANCH  20  21
HETATM   21  C3  UNL     1       9.514 -13.563 -25.370  1.00  0.00    -0.013 C 
HETATM   22  C2  UNL     1      10.333 -14.490 -25.807  1.00  0.00     0.011 C 
HETATM   23  C1  UNL     1       9.822 -15.783 -26.321  1.00  0.00     0.055 C 
BRANCH  22  24
HETATM   24  C21 UNL     1      11.762 -14.248 -25.790  1.00  0.00     0.204 C 
HETATM   25  O5  UNL     1      12.322 -13.732 -24.787  1.00  0.00    -0.644 OA
HETATM   26  O6  UNL     1      12.532 -14.584 -26.883  1.00  0.00    -0.644 OA
ENDBRANCH  22  24
ENDBRANCH  20  21
ENDBRANCH  19  20
ENDBRANCH  17  19
ENDBRANCH  16  17
ENDBRANCH  15  16
ENDBRANCH   1  15
BRANCH  10  27
HETATM   27  O4  UNL     1      -2.048 -11.982 -22.798  1.00  0.00    -0.395 OA
ATOM     28  H4  UNL     1      -2.145 -12.712 -22.198  1.00  0.00     0.210 HD
ENDBRANCH  10  27
TORSDOF 8
ENDMDL
MODEL 2
REMARK VINA RESULT: -8.475204324      3.263      6.019
REMARK  8 active torsions:
REMARK  status: ('A' for Active; 'I' for Inactive)
REMARK    1  A    between atoms: C2_2  and  C21_26 
REMARK    2  A    between atoms: C3_3  and  C4_4 
REMARK    3  A    between atoms: C4_4  and  C5_5 
REMARK    4  A    between atoms: C5_5  and  C6_6 
REMARK    5  A    between atoms: C6_6  and  O2_8 
REMARK    6  A    between atoms: O2_8  and  C7_9 
REMARK    7  A    between atoms: C7_9  and  C8_10 
REMARK    8  A    between atoms: C16_19  and  O4_20 
ROOT
HETATM    1  C8  UNL     1      -0.090 -10.084 -24.713  1.00  0.00     0.146 C 
HETATM    2  C9  UNL     1       1.362  -9.869 -24.466  1.00  0.00     0.042 C 
HETATM    3  C10 UNL     1       1.855  -9.110 -25.653  1.00  0.00     0.026 C 
HETATM    4  C11 UNL     1       0.683  -9.193 -26.606  1.00  0.00     0.132 C 
HETATM    5  O3  UNL     1      -0.453  -9.318 -25.813  1.00  0.00    -0.378 OA
HETATM    6  C12 UNL     1       0.969  -7.778 -26.984  1.00  0.00     0.034 C 
HETATM    7  C13 UNL     1       1.799  -7.516 -28.171  1.00  0.00    -0.015 C 
HETATM    8  C14 UNL     1       2.785  -8.586 -28.540  1.00  0.00     0.018 C 
HETATM    9  C15 UNL     1       0.836  -7.418 -29.370  1.00  0.00     0.018 C 
HETATM   10  C16 UNL     1       2.469  -6.184 -28.072  1.00  0.00     0.126 C 
HETATM   11  C17 UNL     1       3.030  -5.829 -26.753  1.00  0.00     0.033 C 
HETATM   12  C18 UNL     1       2.909  -6.841 -25.679  1.00  0.00     0.012 C 
HETATM   13  C19 UNL     1       1.638  -7.610 -25.648  1.00  0.00    -0.031 C 
HETATM   14  C20 UNL     1       0.663  -7.101 -24.631  1.00  0.00     0.016 C 
ENDROOT
BRANCH   1  15
HETATM   15  C7  UNL     1      -0.450 -11.535 -24.901  1.00  0.00     0.210 C 
BRANCH  15  16
HETATM   16  O2  UNL     1      -0.517 -12.277 -23.717  1.00  0.00    -0.319 OA
BRANCH  16  17
HETATM   17  C6  UNL     1       0.463 -13.090 -23.199  1.00  0.00     0.259 C 
HETATM   18  O1  UNL     1       0.663 -13.086 -21.964  1.00  0.00    -0.265 OA
BRANCH  17  19
HETATM   19  C5  UNL     1       1.307 -13.985 -24.043  1.00  0.00     0.115 C 
BRANCH  19  20
HETATM   20  C4  UNL     1       2.651 -13.294 -24.191  1.00  0.00     0.037 C 
BRANCH  20  21
HETATM   21  C3  UNL     1       3.649 -14.250 -24.714  1.00  0.00    -0.013 C 
HETATM   22  C2  UNL     1       4.923 -13.939 -24.783  1.00  0.00     0.011 C 
HETATM   23  C1  UNL     1       5.412 -12.613 -24.338  1.00  0.00     0.055 C 
BRANCH  22  24
HETATM   24  C21 UNL     1       5.867 -14.908 -25.300  1.00  0.00     0.204 C 
HETATM   25  O5  UNL     1       5.541 -15.711 -26.214  1.00  0.00    -0.644 OA
HETATM   26  O6  UNL     1       7.149 -14.962 -24.794  1.00  0.00    -0.644 OA
ENDBRANCH  22  24
ENDBRANCH  20  21
ENDBRANCH  19  20
ENDBRANCH  17  19
ENDBRANCH  16  17
ENDBRANCH  15  16
ENDBRANCH   1  15
BRANCH  10  27
HETATM   27  O4  UNL     1       1.516  -5.212 -28.436  1.00  0.00    -0.395 OA
ATOM     28  H4  UNL     1       1.302  -4.724 -27.650  1.00  0.00     0.210 HD
ENDBRANCH  10  27
TORSDOF 8
ENDMDL
MODEL 3
REMARK VINA RESULT: -8.423876822      3.127      4.351
REMARK  8 active torsions:
REMARK  status: ('A' for Active; 'I' for Inactive)
REMARK    1  A    between atoms: C2_2  and  C21_26 
REMARK    2  A    between atoms: C3_3  and  C4_4 
REMARK    3  A    between atoms: C4_4  and  C5_5 
REMARK    4  A    between atoms: C5_5  and  C6_6 
REMARK    5  A    between atoms: C6_6  and  O2_8 
REMARK    6  A    between atoms: O2_8  and  C7_9 
REMARK    7  A    between atoms: C7_9  and  C8_10 
REMARK    8  A    between atoms: C16_19  and  O4_20 
ROOT
HETATM    1  C8  UNL     1       2.065  -7.163 -24.011  1.00  0.00     0.146 C 
HETATM    2  C9  UNL     1       2.487  -7.812 -25.282  1.00  0.00     0.042 C 
HETATM    3  C10 UNL     1       1.634  -9.032 -25.402  1.00  0.00     0.026 C 
HETATM    4  C11 UNL     1       0.981  -9.113 -24.040  1.00  0.00     0.132 C 
HETATM    5  O3  UNL     1       0.918  -7.807 -23.563  1.00  0.00    -0.378 OA
HETATM    6  C12 UNL     1      -0.272  -9.533 -24.733  1.00  0.00     0.034 C 
HETATM    7  C13 UNL     1      -0.564 -10.970 -24.857  1.00  0.00    -0.015 C 
HETATM    8  C14 UNL     1       0.622 -11.890 -24.867  1.00  0.00     0.018 C 
HETATM    9  C15 UNL     1      -1.376 -11.365 -23.609  1.00  0.00     0.018 C 
HETATM   10  C16 UNL     1      -1.455 -11.236 -26.027  1.00  0.00     0.126 C 
HETATM   11  C17 UNL     1      -1.153 -10.490 -27.265  1.00  0.00     0.033 C 
HETATM   12  C18 UNL     1       0.023  -9.590 -27.234  1.00  0.00     0.012 C 
HETATM   13  C19 UNL     1       0.241  -8.844 -25.968  1.00  0.00    -0.031 C 
HETATM   14  C20 UNL     1      -0.249  -7.429 -26.022  1.00  0.00     0.016 C 
ENDROOT
BRANCH   1  15
HETATM   15  C7  UNL     1       3.147  -7.157 -22.962  1.00  0.00     0.210 C 
BRANCH  15  16
HETATM   16  O2  UNL     1       4.154  -8.109 -23.159  1.00  0.00    -0.319 OA
BRANCH  16  17
HETATM   17  C6  UNL     1       4.370  -9.243 -22.414  1.00  0.00     0.259 C 
HETATM   18  O1  UNL     1       5.075  -9.166 -21.383  1.00  0.00    -0.265 OA
BRANCH  17  19
HETATM   19  C5  UNL     1       3.801 -10.574 -22.776  1.00  0.00     0.115 C 
BRANCH  19  20
HETATM   20  C4  UNL     1       4.688 -11.137 -23.872  1.00  0.00     0.037 C 
BRANCH  20  21
HETATM   21  C3  UNL     1       4.197 -12.471 -24.277  1.00  0.00    -0.013 C 
HETATM   22  C2  UNL     1       5.026 -13.441 -24.581  1.00  0.00     0.011 C 
HETATM   23  C1  UNL     1       6.493 -13.238 -24.531  1.00  0.00     0.055 C 
BRANCH  22  24
HETATM   24  C21 UNL     1       4.501 -14.734 -24.970  1.00  0.00     0.204 C 
HETATM   25  O5  UNL     1       3.262 -14.957 -24.982  1.00  0.00    -0.644 OA
HETATM   26  O6  UNL     1       5.362 -15.747 -25.338  1.00  0.00    -0.644 OA
ENDBRANCH  22  24
ENDBRANCH  20  21
ENDBRANCH  19  20
ENDBRANCH  17  19
ENDBRANCH  16  17
ENDBRANCH  15  16
ENDBRANCH   1  15
BRANCH  10  27
HETATM   27  O4  UNL     1      -2.771 -10.930 -25.624  1.00  0.00    -0.395 OA
ATOM     28  H4  UNL     1      -2.827  -9.985 -25.546  1.00  0.00     0.210 HD
ENDBRANCH  10  27
TORSDOF 8
ENDMDL
MODEL 4
REMARK VINA RESULT: -8.381722310      3.170      5.900
REMARK  8 active torsions:
REMARK  status: ('A' for Active; 'I' for Inactive)
REMARK    1  A    between atoms: C2_2  and  C21_26 
REMARK    2  A    between atoms: C3_3  and  C4_4 
REMARK    3  A    between atoms: C4_4  and  C5_5 
REMARK    4  A    between atoms: C5_5  and  C6_6 
REMARK    5  A    between atoms: C6_6  and  O2_8 
REMARK    6  A    between atoms: O2_8  and  C7_9 
REMARK    7  A    between atoms: C7_9  and  C8_10 
REMARK    8  A    between atoms: C16_19  and  O4_20 
ROOT
HETATM    1  C8  UNL     1       0.458 -10.256 -24.488  1.00  0.00     0.146 C 
HETATM    2  C9  UNL     1       1.803 -10.120 -25.112  1.00  0.00     0.042 C 
HETATM    3  C10 UNL     1       1.738  -8.862 -25.913  1.00  0.00     0.026 C 
HETATM    4  C11 UNL     1       0.262  -8.531 -25.888  1.00  0.00     0.132 C 
HETATM    5  O3  UNL     1      -0.236  -9.073 -24.707  1.00  0.00    -0.378 OA
HETATM    6  C12 UNL     1       0.649  -7.097 -25.744  1.00  0.00     0.034 C 
HETATM    7  C13 UNL     1       0.723  -6.259 -26.952  1.00  0.00    -0.015 C 
HETATM    8  C14 UNL     1       1.024  -6.974 -28.237  1.00  0.00     0.018 C 
HETATM    9  C15 UNL     1      -0.675  -5.641 -27.148  1.00  0.00     0.018 C 
HETATM   10  C16 UNL     1       1.655  -5.109 -26.749  1.00  0.00     0.126 C 
HETATM   11  C17 UNL     1       2.918  -5.405 -26.044  1.00  0.00     0.033 C 
HETATM   12  C18 UNL     1       3.150  -6.813 -25.648  1.00  0.00     0.012 C 
HETATM   13  C19 UNL     1       1.958  -7.561 -25.168  1.00  0.00    -0.031 C 
HETATM   14  C20 UNL     1       1.875  -7.648 -23.675  1.00  0.00     0.016 C 
ENDROOT
BRANCH   1  15
HETATM   15  C7  UNL     1      -0.308 -11.453 -24.988  1.00  0.00     0.210 C 
BRANCH  15  16
HETATM   16  O2  UNL     1      -0.407 -12.506 -24.071  1.00  0.00    -0.319 OA
BRANCH  16  17
HETATM   17  C6  UNL     1       0.629 -13.129 -23.418  1.00  0.00     0.259 C 
HETATM   18  O1  UNL     1       0.819 -12.883 -22.206  1.00  0.00    -0.265 OA
BRANCH  17  19
HETATM   19  C5  UNL     1       1.548 -14.095 -24.089  1.00  0.00     0.115 C 
BRANCH  19  20
HETATM   20  C4  UNL     1       2.893 -13.400 -24.204  1.00  0.00     0.037 C 
BRANCH  20  21
HETATM   21  C3  UNL     1       3.890 -14.332 -24.770  1.00  0.00    -0.013 C 
HETATM   22  C2  UNL     1       5.167 -14.031 -24.801  1.00  0.00     0.011 C 
HETATM   23  C1  UNL     1       5.662 -12.741 -24.267  1.00  0.00     0.055 C 
BRANCH  22  24
HETATM   24  C21 UNL     1       6.110 -14.975 -25.365  1.00  0.00     0.204 C 
HETATM   25  O5  UNL     1       5.808 -15.680 -26.363  1.00  0.00    -0.644 OA
HETATM   26  O6  UNL     1       7.364 -15.114 -24.807  1.00  0.00    -0.644 OA
ENDBRANCH  22  24
ENDBRANCH  20  21
ENDBRANCH  19  20
ENDBRANCH  17  19
ENDBRANCH  16  17
ENDBRANCH  15  16
ENDBRANCH   1  15
BRANCH  10  27
HETATM   27  O4  UNL     1       0.951  -4.127 -26.025  1.00  0.00    -0.395 OA
ATOM     28  H4  UNL     1       1.012  -3.318 -26.518  1.00  0.00     0.210 HD
ENDBRANCH  10  27
TORSDOF 8
ENDMDL
MODEL 5
REMARK VINA RESULT: -8.367221716      2.373      3.035
REMARK  8 active torsions:
REMARK  status: ('A' for Active; 'I' for Inactive)
REMARK    1  A    between atoms: C2_2  and  C21_26 
REMARK    2  A    between atoms: C3_3  and  C4_4 
REMARK    3  A    between atoms: C4_4  and  C5_5 
REMARK    4  A    between atoms: C5_5  and  C6_6 
REMARK    5  A    between atoms: C6_6  and  O2_8 
REMARK    6  A    between atoms: O2_8  and  C7_9 
REMARK    7  A    between atoms: C7_9  and  C8_10 
REMARK    8  A    between atoms: C16_19  and  O4_20 
ROOT
HETATM    1  C8  UNL     1       3.582  -9.349 -23.510  1.00  0.00     0.146 C 
HETATM    2  C9  UNL     1       3.326  -9.727 -24.927  1.00  0.00     0.042 C 
HETATM    3  C10 UNL     1       2.192 -10.697 -24.875  1.00  0.00     0.026 C 
HETATM    4  C11 UNL     1       2.077 -10.992 -23.396  1.00  0.00     0.132 C 
HETATM    5  O3  UNL     1       2.546  -9.858 -22.738  1.00  0.00    -0.378 OA
HETATM    6  C12 UNL     1       0.596 -10.984 -23.571  1.00  0.00     0.034 C 
HETATM    7  C13 UNL     1      -0.098 -12.265 -23.787  1.00  0.00    -0.015 C 
HETATM    8  C14 UNL     1       0.710 -13.357 -24.425  1.00  0.00     0.018 C 
HETATM    9  C15 UNL     1      -0.480 -12.801 -22.394  1.00  0.00     0.018 C 
HETATM   10  C16 UNL     1      -1.387 -12.059 -24.515  1.00  0.00     0.126 C 
HETATM   11  C17 UNL     1      -1.361 -11.097 -25.636  1.00  0.00     0.033 C 
HETATM   12  C18 UNL     1      -0.057 -10.470 -25.950  1.00  0.00     0.012 C 
HETATM   13  C19 UNL     1       0.795 -10.117 -24.784  1.00  0.00    -0.031 C 
HETATM   14  C20 UNL     1       0.719  -8.668 -24.412  1.00  0.00     0.016 C 
ENDROOT
BRANCH   1  15
HETATM   15  C7  UNL     1       4.927  -9.806 -23.009  1.00  0.00     0.210 C 
BRANCH  15  16
HETATM   16  O2  UNL     1       5.825 -10.183 -24.014  1.00  0.00    -0.319 OA
BRANCH  16  17
HETATM   17  C6  UNL     1       7.196 -10.217 -23.922  1.00  0.00     0.259 C 
HETATM   18  O1  UNL     1       7.811  -9.162 -23.650  1.00  0.00    -0.265 OA
BRANCH  17  19
HETATM   19  C5  UNL     1       7.995 -11.460 -24.132  1.00  0.00     0.115 C 
BRANCH  19  20
HETATM   20  C4  UNL     1       7.155 -12.605 -23.594  1.00  0.00     0.037 C 
BRANCH  20  21
HETATM   21  C3  UNL     1       7.040 -13.664 -24.620  1.00  0.00    -0.013 C 
HETATM   22  C2  UNL     1       5.870 -14.093 -25.030  1.00  0.00     0.011 C 
HETATM   23  C1  UNL     1       4.613 -13.533 -24.480  1.00  0.00     0.055 C 
BRANCH  22  24
HETATM   24  C21 UNL     1       5.803 -15.131 -26.038  1.00  0.00     0.204 C 
HETATM   25  O5  UNL     1       4.859 -15.964 -26.053  1.00  0.00    -0.644 OA
HETATM   26  O6  UNL     1       6.784 -15.220 -27.004  1.00  0.00    -0.644 OA
ENDBRANCH  22  24
ENDBRANCH  20  21
ENDBRANCH  19  20
ENDBRANCH  17  19
ENDBRANCH  16  17
ENDBRANCH  15  16
ENDBRANCH   1  15
BRANCH  10  27
HETATM   27  O4  UNL     1      -2.334 -11.624 -23.567  1.00  0.00    -0.395 OA
ATOM     28  H4  UNL     1      -3.008 -11.153 -24.041  1.00  0.00     0.210 HD
ENDBRANCH  10  27
TORSDOF 8
ENDMDL
