MODEL 1
REMARK VINA RESULT: -7.742929242      0.000      0.000
REMARK  6 active torsions:
REMARK  status: ('A' for Active; 'I' for Inactive)
REMARK    1  A    between atoms: C2_2  and  C4_4 
REMARK    2  A    between atoms: C4_4  and  C5_5 
REMARK    3  A    between atoms: C9_9  and  O1_10 
REMARK    4  A    between atoms: N3_19  and  S2_20 
REMARK    5  A    between atoms: S2_20  and  C13_23 
REMARK    6  A    between atoms: C13_23  and  C14_24 
ROOT
HETATM    1  C5  UNL     1       4.947 -12.355 -24.199  1.00  0.00     0.079 C 
HETATM    2  C6  UNL     1       3.929 -11.440 -23.557  1.00  0.00     0.058 C 
HETATM    3  C7  UNL     1       4.517 -10.072 -23.810  1.00  0.00    -0.033 C 
HETATM    4  C8  UNL     1       3.891  -8.934 -23.225  1.00  0.00     0.091 A 
HETATM    5  C9  UNL     1       4.284  -8.227 -22.068  1.00  0.00     0.170 A 
HETATM    6  N1  UNL     1       3.518  -7.127 -21.915  1.00  0.00    -0.312 N 
ATOM      7  H1  UNL     1       3.589  -6.442 -21.162  1.00  0.00     0.170 HD
HETATM    8  C10 UNL     1       2.655  -7.102 -22.925  1.00  0.00     0.180 A 
HETATM    9  S1  UNL     1       1.534  -5.926 -23.156  1.00  0.00    -0.040 SA
HETATM   10  N2  UNL     1       2.864  -8.177 -23.718  1.00  0.00    -0.324 N 
HETATM   11  C11 UNL     1       2.139  -8.417 -24.954  1.00  0.00     0.159 C 
HETATM   12  C12 UNL     1       5.936 -10.257 -24.020  1.00  0.00     0.144 C 
HETATM   13  N3  UNL     1       6.075 -11.628 -24.564  1.00  0.00    -0.202 NA
ENDROOT
BRANCH   1  14
HETATM   14  C4  UNL     1       4.317 -13.260 -25.246  1.00  0.00     0.025 C 
BRANCH  14  15
HETATM   15  C2  UNL     1       3.870 -14.573 -24.565  1.00  0.00    -0.021 C 
HETATM   16  C1  UNL     1       4.370 -15.757 -25.349  1.00  0.00     0.009 C 
HETATM   17  C3  UNL     1       2.370 -14.536 -24.462  1.00  0.00     0.009 C 
ENDBRANCH  14  15
ENDBRANCH   1  14
BRANCH   5  18
HETATM   18  O1  UNL     1       5.298  -8.620 -21.219  1.00  0.00    -0.344 OA
ATOM     19  H1  UNL     1       5.473  -8.226 -20.372  1.00  0.00     0.219 HD
ENDBRANCH   5  18
BRANCH  13  20
HETATM   20  S2  UNL     1       7.498 -12.326 -23.883  1.00  0.00     0.212 S 
HETATM   21  O2  UNL     1       7.395 -12.413 -22.358  1.00  0.00    -0.211 OA
HETATM   22  O3  UNL     1       8.714 -11.520 -24.237  1.00  0.00    -0.211 OA
BRANCH  20  23
HETATM   23  C13 UNL     1       7.664 -13.969 -24.466  1.00  0.00     0.161 C 
BRANCH  23  24
HETATM   24  C14 UNL     1       8.471 -14.140 -25.718  1.00  0.00    -0.007 C 
HETATM   25  C15 UNL     1       7.454 -14.620 -26.778  1.00  0.00     0.010 C 
HETATM   26  C16 UNL     1       9.461 -15.305 -25.612  1.00  0.00     0.010 C 
ENDBRANCH  23  24
ENDBRANCH  20  23
ENDBRANCH  13  20
TORSDOF 6
ENDMDL
MODEL 2
REMARK VINA RESULT: -7.171466067      3.889      6.108
REMARK  6 active torsions:
REMARK  status: ('A' for Active; 'I' for Inactive)
REMARK    1  A    between atoms: C2_2  and  C4_4 
REMARK    2  A    between atoms: C4_4  and  C5_5 
REMARK    3  A    between atoms: C9_9  and  O1_10 
REMARK    4  A    between atoms: N3_19  and  S2_20 
REMARK    5  A    between atoms: S2_20  and  C13_23 
REMARK    6  A    between atoms: C13_23  and  C14_24 
ROOT
HETATM    1  C5  UNL     1       3.163 -11.417 -24.142  1.00  0.00     0.079 C 
HETATM    2  C6  UNL     1       3.213 -10.419 -25.276  1.00  0.00     0.058 C 
HETATM    3  C7  UNL     1       2.040  -9.518 -24.966  1.00  0.00    -0.033 C 
HETATM    4  C8  UNL     1       1.679  -8.510 -25.906  1.00  0.00     0.091 A 
HETATM    5  C9  UNL     1       0.631  -8.542 -26.851  1.00  0.00     0.170 A 
HETATM    6  N1  UNL     1       0.523  -7.345 -27.464  1.00  0.00    -0.312 N 
ATOM      7  H1  UNL     1      -0.149  -7.096 -28.189  1.00  0.00     0.170 HD
HETATM    8  C10 UNL     1       1.456  -6.550 -26.948  1.00  0.00     0.180 A 
HETATM    9  S1  UNL     1       1.684  -4.985 -27.384  1.00  0.00    -0.040 SA
HETATM   10  N2  UNL     1       2.157  -7.233 -26.015  1.00  0.00    -0.324 N 
HETATM   11  C11 UNL     1       3.205  -6.639 -25.203  1.00  0.00     0.159 C 
HETATM   12  C12 UNL     1       1.136 -10.278 -24.133  1.00  0.00     0.144 C 
HETATM   13  N3  UNL     1       1.990 -11.251 -23.414  1.00  0.00    -0.202 NA
ENDROOT
BRANCH   1  14
HETATM   14  C4  UNL     1       4.474 -11.468 -23.373  1.00  0.00     0.025 C 
BRANCH  14  15
HETATM   15  C2  UNL     1       5.564 -12.074 -24.285  1.00  0.00    -0.021 C 
HETATM   16  C1  UNL     1       5.245 -13.516 -24.581  1.00  0.00     0.009 C 
HETATM   17  C3  UNL     1       6.883 -11.903 -23.583  1.00  0.00     0.009 C 
ENDBRANCH  14  15
ENDBRANCH   1  14
BRANCH   5  18
HETATM   18  O1  UNL     1      -0.153  -9.647 -27.112  1.00  0.00    -0.344 OA
ATOM     19  H1  UNL     1      -0.960  -9.854 -26.655  1.00  0.00     0.219 HD
ENDBRANCH   5  18
BRANCH  13  20
HETATM   20  S2  UNL     1       1.124 -12.739 -23.306  1.00  0.00     0.212 S 
HETATM   21  O2  UNL     1       0.715 -13.037 -21.861  1.00  0.00    -0.211 OA
HETATM   22  O3  UNL     1       1.953 -13.882 -23.817  1.00  0.00    -0.211 OA
BRANCH  20  23
HETATM   23  C13 UNL     1      -0.361 -12.603 -24.227  1.00  0.00     0.161 C 
BRANCH  23  24
HETATM   24  C14 UNL     1      -1.497 -11.910 -23.537  1.00  0.00    -0.007 C 
HETATM   25  C15 UNL     1      -2.408 -13.053 -23.035  1.00  0.00     0.010 C 
HETATM   26  C16 UNL     1      -2.387 -11.143 -24.519  1.00  0.00     0.010 C 
ENDBRANCH  23  24
ENDBRANCH  20  23
ENDBRANCH  13  20
TORSDOF 6
ENDMDL
MODEL 3
REMARK VINA RESULT: -7.161400964      3.522      5.375
REMARK  6 active torsions:
REMARK  status: ('A' for Active; 'I' for Inactive)
REMARK    1  A    between atoms: C2_2  and  C4_4 
REMARK    2  A    between atoms: C4_4  and  C5_5 
REMARK    3  A    between atoms: C9_9  and  O1_10 
REMARK    4  A    between atoms: N3_19  and  S2_20 
REMARK    5  A    between atoms: S2_20  and  C13_23 
REMARK    6  A    between atoms: C13_23  and  C14_24 
ROOT
HETATM    1  C5  UNL     1       3.664 -12.569 -24.313  1.00  0.00     0.079 C 
HETATM    2  C6  UNL     1       4.298 -11.302 -24.841  1.00  0.00     0.058 C 
HETATM    3  C7  UNL     1       3.990 -10.305 -23.748  1.00  0.00    -0.033 C 
HETATM    4  C8  UNL     1       4.323  -8.936 -23.950  1.00  0.00     0.091 A 
HETATM    5  C9  UNL     1       3.463  -7.881 -24.326  1.00  0.00     0.170 A 
HETATM    6  N1  UNL     1       4.124  -6.706 -24.281  1.00  0.00    -0.312 N 
ATOM      7  H1  UNL     1       3.741  -5.788 -24.505  1.00  0.00     0.170 HD
HETATM    8  C10 UNL     1       5.369  -6.966 -23.892  1.00  0.00     0.180 A 
HETATM    9  S1  UNL     1       6.530  -5.827 -23.681  1.00  0.00    -0.040 SA
HETATM   10  N2  UNL     1       5.504  -8.297 -23.692  1.00  0.00    -0.324 N 
HETATM   11  C11 UNL     1       6.720  -8.914 -23.190  1.00  0.00     0.159 C 
HETATM   12  C12 UNL     1       2.841 -10.812 -23.030  1.00  0.00     0.144 C 
HETATM   13  N3  UNL     1       2.900 -12.284 -23.187  1.00  0.00    -0.202 NA
ENDROOT
BRANCH   1  14
HETATM   14  C4  UNL     1       4.665 -13.709 -24.220  1.00  0.00     0.025 C 
BRANCH  14  15
HETATM   15  C2  UNL     1       4.857 -14.318 -25.627  1.00  0.00    -0.021 C 
HETATM   16  C1  UNL     1       4.145 -15.642 -25.718  1.00  0.00     0.009 C 
HETATM   17  C3  UNL     1       6.338 -14.437 -25.866  1.00  0.00     0.009 C 
ENDBRANCH  14  15
ENDBRANCH   1  14
BRANCH   5  18
HETATM   18  O1  UNL     1       2.143  -8.041 -24.695  1.00  0.00    -0.344 OA
ATOM     19  H1  UNL     1       1.855  -8.305 -25.561  1.00  0.00     0.219 HD
ENDBRANCH   5  18
BRANCH  13  20
HETATM   20  S2  UNL     1       1.285 -12.860 -23.383  1.00  0.00     0.212 S 
HETATM   21  O2  UNL     1       0.605 -13.071 -22.027  1.00  0.00    -0.211 OA
HETATM   22  O3  UNL     1       1.266 -14.158 -24.137  1.00  0.00    -0.211 OA
BRANCH  20  23
HETATM   23  C13 UNL     1       0.345 -11.649 -24.230  1.00  0.00     0.161 C 
BRANCH  23  24
HETATM   24  C14 UNL     1      -1.028 -12.070 -24.660  1.00  0.00    -0.007 C 
HETATM   25  C15 UNL     1      -1.446 -11.024 -25.718  1.00  0.00     0.010 C 
HETATM   26  C16 UNL     1      -2.063 -11.889 -23.544  1.00  0.00     0.010 C 
ENDBRANCH  23  24
ENDBRANCH  20  23
ENDBRANCH  13  20
TORSDOF 6
ENDMDL
MODEL 4
REMARK VINA RESULT: -7.091596718      3.386      5.307
REMARK  6 active torsions:
REMARK  status: ('A' for Active; 'I' for Inactive)
REMARK    1  A    between atoms: C2_2  and  C4_4 
REMARK    2  A    between atoms: C4_4  and  C5_5 
REMARK    3  A    between atoms: C9_9  and  O1_10 
REMARK    4  A    between atoms: N3_19  and  S2_20 
REMARK    5  A    between atoms: S2_20  and  C13_23 
REMARK    6  A    between atoms: C13_23  and  C14_24 
ROOT
HETATM    1  C5  UNL     1       3.417  -9.394 -23.890  1.00  0.00     0.079 C 
HETATM    2  C6  UNL     1       3.207  -8.190 -24.779  1.00  0.00     0.058 C 
HETATM    3  C7  UNL     1       1.744  -7.879 -24.563  1.00  0.00    -0.033 C 
HETATM    4  C8  UNL     1       1.133  -6.862 -25.351  1.00  0.00     0.091 A 
HETATM    5  C9  UNL     1       0.311  -7.024 -26.488  1.00  0.00     0.170 A 
HETATM    6  N1  UNL     1      -0.187  -5.830 -26.873  1.00  0.00    -0.312 N 
ATOM      7  H1  UNL     1      -0.807  -5.661 -27.665  1.00  0.00     0.170 HD
HETATM    8  C10 UNL     1       0.281  -4.915 -26.029  1.00  0.00     0.180 A 
HETATM    9  S1  UNL     1      -0.079  -3.316 -26.104  1.00  0.00    -0.040 SA
HETATM   10  N2  UNL     1       1.074  -5.517 -25.113  1.00  0.00    -0.324 N 
HETATM   11  C11 UNL     1       1.689  -4.816 -23.999  1.00  0.00     0.159 C 
HETATM   12  C12 UNL     1       1.120  -9.098 -24.101  1.00  0.00     0.144 C 
HETATM   13  N3  UNL     1       2.194  -9.851 -23.412  1.00  0.00    -0.202 NA
ENDROOT
BRANCH   1  14
HETATM   14  C4  UNL     1       4.533  -9.169 -22.883  1.00  0.00     0.025 C 
BRANCH  14  15
HETATM   15  C2  UNL     1       5.879  -9.555 -23.535  1.00  0.00    -0.021 C 
HETATM   16  C1  UNL     1       6.538 -10.656 -22.746  1.00  0.00     0.009 C 
HETATM   17  C3  UNL     1       6.718  -8.309 -23.605  1.00  0.00     0.009 C 
ENDBRANCH  14  15
ENDBRANCH   1  14
BRANCH   5  18
HETATM   18  O1  UNL     1       0.069  -8.229 -27.113  1.00  0.00    -0.344 OA
ATOM     19  H1  UNL     1      -0.013  -8.341 -28.053  1.00  0.00     0.219 HD
ENDBRANCH   5  18
BRANCH  13  20
HETATM   20  S2  UNL     1       1.984 -11.524 -23.774  1.00  0.00     0.212 S 
HETATM   21  O2  UNL     1       0.773 -11.745 -24.686  1.00  0.00    -0.211 OA
HETATM   22  O3  UNL     1       1.791 -12.326 -22.519  1.00  0.00    -0.211 OA
BRANCH  20  23
HETATM   23  C13 UNL     1       3.384 -12.099 -24.656  1.00  0.00     0.161 C 
BRANCH  23  24
HETATM   24  C14 UNL     1       3.950 -13.411 -24.201  1.00  0.00    -0.007 C 
HETATM   25  C15 UNL     1       5.386 -13.437 -24.771  1.00  0.00     0.010 C 
HETATM   26  C16 UNL     1       3.268 -14.601 -24.882  1.00  0.00     0.010 C 
ENDBRANCH  23  24
ENDBRANCH  20  23
ENDBRANCH  13  20
TORSDOF 6
ENDMDL
MODEL 5
REMARK VINA RESULT: -6.992358474      2.925      4.381
REMARK  6 active torsions:
REMARK  status: ('A' for Active; 'I' for Inactive)
REMARK    1  A    between atoms: C2_2  and  C4_4 
REMARK    2  A    between atoms: C4_4  and  C5_5 
REMARK    3  A    between atoms: C9_9  and  O1_10 
REMARK    4  A    between atoms: N3_19  and  S2_20 
REMARK    5  A    between atoms: S2_20  and  C13_23 
REMARK    6  A    between atoms: C13_23  and  C14_24 
ROOT
HETATM    1  C5  UNL     1       1.314  -9.634 -24.345  1.00  0.00     0.079 C 
HETATM    2  C6  UNL     1       0.780  -8.269 -23.974  1.00  0.00     0.058 C 
HETATM    3  C7  UNL     1       1.893  -7.351 -24.423  1.00  0.00    -0.033 C 
HETATM    4  C8  UNL     1       1.808  -5.964 -24.115  1.00  0.00     0.091 A 
HETATM    5  C9  UNL     1       2.464  -5.264 -23.078  1.00  0.00     0.170 A 
HETATM    6  N1  UNL     1       2.236  -3.939 -23.198  1.00  0.00    -0.312 N 
ATOM      7  H1  UNL     1       2.590  -3.208 -22.582  1.00  0.00     0.170 HD
HETATM    8  C10 UNL     1       1.466  -3.764 -24.267  1.00  0.00     0.180 A 
HETATM    9  S1  UNL     1       0.950  -2.304 -24.808  1.00  0.00    -0.040 SA
HETATM   10  N2  UNL     1       1.199  -4.967 -24.826  1.00  0.00    -0.324 N 
HETATM   11  C11 UNL     1       0.443  -5.131 -26.056  1.00  0.00     0.159 C 
HETATM   12  C12 UNL     1       3.099  -8.148 -24.470  1.00  0.00     0.144 C 
HETATM   13  N3  UNL     1       2.644  -9.532 -24.737  1.00  0.00    -0.202 NA
ENDROOT
BRANCH   1  14
HETATM   14  C4  UNL     1       0.360 -10.388 -25.257  1.00  0.00     0.025 C 
BRANCH  14  15
HETATM   15  C2  UNL     1      -0.650 -11.167 -24.386  1.00  0.00    -0.021 C 
HETATM   16  C1  UNL     1      -0.113 -12.539 -24.075  1.00  0.00     0.009 C 
HETATM   17  C3  UNL     1      -1.951 -11.210 -25.140  1.00  0.00     0.009 C 
ENDBRANCH  14  15
ENDBRANCH   1  14
BRANCH   5  18
HETATM   18  O1  UNL     1       3.214  -5.859 -22.086  1.00  0.00    -0.344 OA
ATOM     19  H1  UNL     1       2.914  -5.998 -21.195  1.00  0.00     0.219 HD
ENDBRANCH   5  18
BRANCH  13  20
HETATM   20  S2  UNL     1       3.635 -10.602 -23.817  1.00  0.00     0.212 S 
HETATM   21  O2  UNL     1       2.843 -11.249 -22.679  1.00  0.00    -0.211 OA
HETATM   22  O3  UNL     1       4.811  -9.875 -23.231  1.00  0.00    -0.211 OA
BRANCH  20  23
HETATM   23  C13 UNL     1       4.179 -11.908 -24.851  1.00  0.00     0.161 C 
BRANCH  23  24
HETATM   24  C14 UNL     1       4.293 -13.253 -24.199  1.00  0.00    -0.007 C 
HETATM   25  C15 UNL     1       5.616 -13.841 -24.741  1.00  0.00     0.010 C 
HETATM   26  C16 UNL     1       3.228 -14.232 -24.706  1.00  0.00     0.010 C 
ENDBRANCH  23  24
ENDBRANCH  20  23
ENDBRANCH  13  20
TORSDOF 6
ENDMDL
