MODEL 1
REMARK VINA RESULT: -7.625680989      0.000      0.000
REMARK  10 active torsions:
REMARK  status: ('A' for Active; 'I' for Inactive)
REMARK    1  A    between atoms: O1_2  and  C2_3 
REMARK    2  A    between atoms: C2_3  and  C3_5 
REMARK    3  A    between atoms: C3_5  and  O3_6 
REMARK    4  A    between atoms: C5_9  and  N1_10 
REMARK    5  A    between atoms: N1_10  and  C6_11 
REMARK    6  A    between atoms: C9_14  and  S1_15 
REMARK    7  A    between atoms: S1_15  and  N2_18 
REMARK       I    between atoms: N2_18  and  C10_20 
REMARK    8  A    between atoms: C13_26  and  N4_27 
REMARK    9  A    between atoms: N4_27  and  N5_29 
REMARK   10  A    between atoms: N5_29  and  N6_30 
ROOT
HETATM    1  C3  UNL     1      20.683 -20.324   8.420  1.00  0.00     0.154 C 
HETATM    2  C4  UNL     1      20.928 -21.411   7.504  1.00  0.00     0.129 C 
HETATM    3  C5  UNL     1      21.939 -22.462   7.784  1.00  0.00     0.127 C 
HETATM    4  S2  UNL     1      22.917 -22.057   9.265  1.00  0.00    -0.074 SA
HETATM    5  C13 UNL     1      21.611 -21.568  10.426  1.00  0.00     0.186 C 
HETATM    6  C14 UNL     1      20.751 -20.468   9.874  1.00  0.00     0.087 C 
ENDROOT
BRANCH   3   7
HETATM    7  N1  UNL     1      22.111 -23.440   7.132  1.00  0.00    -0.403 NA
BRANCH   7   8
HETATM    8  C6  UNL     1      21.981 -24.632   6.594  1.00  0.00     0.107 A 
HETATM    9  C7  UNL     1      22.369 -24.905   5.290  1.00  0.00     0.046 A 
HETATM   10  C8  UNL     1      22.268 -26.146   4.732  1.00  0.00     0.028 A 
HETATM   11  C9  UNL     1      21.763 -27.189   5.467  1.00  0.00     0.080 A 
HETATM   12  C11 UNL     1      21.363 -26.962   6.767  1.00  0.00     0.028 A 
HETATM   13  C12 UNL     1      21.469 -25.715   7.321  1.00  0.00     0.046 A 
BRANCH  11  14
HETATM   14  S1  UNL     1      21.657 -28.815   4.869  1.00  0.00     0.266 S 
HETATM   15  O4  UNL     1      21.561 -29.811   5.994  1.00  0.00    -0.200 OA
HETATM   16  O5  UNL     1      20.423 -28.932   3.982  1.00  0.00    -0.200 OA
BRANCH  14  17
HETATM   17  N2  UNL     1      23.009 -29.197   3.878  1.00  0.00    -0.234 N 
HETATM   18  C10 UNL     1      24.292 -29.317   4.361  1.00  0.00     0.342 C 
HETATM   19  N3  UNL     1      25.372 -29.618   3.435  1.00  0.00    -0.039 NA
HETATM   20  O6  UNL     1      24.654 -29.189   5.578  1.00  0.00    -0.250 OA
ATOM     21  H2  UNL     1      22.852 -29.343   2.881  1.00  0.00     0.183 HD
ENDBRANCH  14  17
ENDBRANCH  11  14
ENDBRANCH   7   8
ENDBRANCH   3   7
BRANCH   1  22
HETATM   22  C2  UNL     1      21.501 -19.164   7.960  1.00  0.00     0.293 C 
HETATM   23  O2  UNL     1      22.042 -18.410   8.782  1.00  0.00    -0.262 OA
BRANCH  22  24
HETATM   24  O1  UNL     1      21.684 -18.883   6.610  1.00  0.00    -0.324 OA
HETATM   25  C1  UNL     1      23.025 -18.680   6.129  1.00  0.00     0.213 C 
ENDBRANCH  22  24
ENDBRANCH   1  22
BRANCH   1  26
HETATM   26  O3  UNL     1      19.347 -19.904   8.112  1.00  0.00    -0.379 OA
ATOM     27  H3  UNL     1      18.819 -20.526   8.598  1.00  0.00     0.211 HD
ENDBRANCH   1  26
BRANCH   5  28
HETATM   28  N4  UNL     1      22.283 -21.192  11.651  1.00  0.00    -0.238 N 
ATOM     29  H4  UNL     1      23.296 -21.068  11.648  1.00  0.00     0.198 HD
BRANCH  28  30
HETATM   30  N5  UNL     1      21.653 -21.018  12.703  1.00  0.00    -0.247 NA
BRANCH  30  31
HETATM   31  N6  UNL     1      20.912 -21.233  13.662  1.00  0.00    -0.261 N 
ATOM     32  H62 UNL     1      20.569 -22.139  13.339  1.00  0.00     0.193 HD
ATOM     33  H61 UNL     1      20.423 -21.106  14.548  1.00  0.00     0.193 HD
ENDBRANCH  30  31
ENDBRANCH  28  30
ENDBRANCH   5  28
TORSDOF 10
ENDMDL
MODEL 2
REMARK VINA RESULT: -7.591153986      1.033      1.133
REMARK  10 active torsions:
REMARK  status: ('A' for Active; 'I' for Inactive)
REMARK    1  A    between atoms: O1_2  and  C2_3 
REMARK    2  A    between atoms: C2_3  and  C3_5 
REMARK    3  A    between atoms: C3_5  and  O3_6 
REMARK    4  A    between atoms: C5_9  and  N1_10 
REMARK    5  A    between atoms: N1_10  and  C6_11 
REMARK    6  A    between atoms: C9_14  and  S1_15 
REMARK    7  A    between atoms: S1_15  and  N2_18 
REMARK       I    between atoms: N2_18  and  C10_20 
REMARK    8  A    between atoms: C13_26  and  N4_27 
REMARK    9  A    between atoms: N4_27  and  N5_29 
REMARK   10  A    between atoms: N5_29  and  N6_30 
ROOT
HETATM    1  C3  UNL     1      20.684 -20.330   8.416  1.00  0.00     0.154 C 
HETATM    2  C4  UNL     1      20.937 -21.405   7.488  1.00  0.00     0.129 C 
HETATM    3  C5  UNL     1      21.956 -22.451   7.756  1.00  0.00     0.127 C 
HETATM    4  S2  UNL     1      22.931 -22.056   9.242  1.00  0.00    -0.074 SA
HETATM    5  C13 UNL     1      21.622 -21.590  10.408  1.00  0.00     0.186 C 
HETATM    6  C14 UNL     1      20.753 -20.491   9.868  1.00  0.00     0.087 C 
ENDROOT
BRANCH   3   7
HETATM    7  N1  UNL     1      22.136 -23.421   7.093  1.00  0.00    -0.403 NA
BRANCH   7   8
HETATM    8  C6  UNL     1      21.997 -24.593   6.516  1.00  0.00     0.107 A 
HETATM    9  C7  UNL     1      22.504 -24.864   5.252  1.00  0.00     0.046 A 
HETATM   10  C8  UNL     1      22.392 -26.087   4.656  1.00  0.00     0.028 A 
HETATM   11  C9  UNL     1      21.755 -27.111   5.310  1.00  0.00     0.080 A 
HETATM   12  C11 UNL     1      21.235 -26.886   6.566  1.00  0.00     0.028 A 
HETATM   13  C12 UNL     1      21.352 -25.658   7.158  1.00  0.00     0.046 A 
BRANCH  11  14
HETATM   14  S1  UNL     1      21.623 -28.717   4.664  1.00  0.00     0.266 S 
HETATM   15  O4  UNL     1      20.197 -29.054   4.313  1.00  0.00    -0.200 OA
HETATM   16  O5  UNL     1      22.488 -28.816   3.413  1.00  0.00    -0.200 OA
BRANCH  14  17
HETATM   17  N2  UNL     1      22.231 -29.881   5.772  1.00  0.00    -0.234 N 
HETATM   18  C10 UNL     1      23.557 -29.965   6.131  1.00  0.00     0.342 C 
HETATM   19  N3  UNL     1      23.976 -31.005   7.058  1.00  0.00    -0.039 NA
HETATM   20  O6  UNL     1      24.497 -29.203   5.725  1.00  0.00    -0.250 OA
ATOM     21  H2  UNL     1      21.576 -30.544   6.186  1.00  0.00     0.183 HD
ENDBRANCH  14  17
ENDBRANCH  11  14
ENDBRANCH   7   8
ENDBRANCH   3   7
BRANCH   1  22
HETATM   22  C2  UNL     1      21.494 -19.159   7.969  1.00  0.00     0.293 C 
HETATM   23  O2  UNL     1      22.011 -18.398   8.800  1.00  0.00    -0.262 OA
BRANCH  22  24
HETATM   24  O1  UNL     1      21.695 -18.876   6.622  1.00  0.00    -0.324 OA
HETATM   25  C1  UNL     1      23.034 -18.599   6.173  1.00  0.00     0.213 C 
ENDBRANCH  22  24
ENDBRANCH   1  22
BRANCH   1  26
HETATM   26  O3  UNL     1      19.345 -19.917   8.113  1.00  0.00    -0.379 OA
ATOM     27  H3  UNL     1      19.480 -19.253   7.446  1.00  0.00     0.211 HD
ENDBRANCH   1  26
BRANCH   5  28
HETATM   28  N4  UNL     1      22.290 -21.223  11.637  1.00  0.00    -0.238 N 
ATOM     29  H4  UNL     1      23.303 -21.103  11.638  1.00  0.00     0.198 HD
BRANCH  28  30
HETATM   30  N5  UNL     1      21.657 -21.052  12.688  1.00  0.00    -0.247 NA
BRANCH  30  31
HETATM   31  N6  UNL     1      20.913 -21.269  13.643  1.00  0.00    -0.261 N 
ATOM     32  H62 UNL     1      21.555 -20.937  14.364  1.00  0.00     0.193 HD
ATOM     33  H61 UNL     1      20.095 -21.557  14.180  1.00  0.00     0.193 HD
ENDBRANCH  30  31
ENDBRANCH  28  30
ENDBRANCH   5  28
TORSDOF 10
ENDMDL
MODEL 3
REMARK VINA RESULT: -7.590031341      0.480      1.233
REMARK  10 active torsions:
REMARK  status: ('A' for Active; 'I' for Inactive)
REMARK    1  A    between atoms: O1_2  and  C2_3 
REMARK    2  A    between atoms: C2_3  and  C3_5 
REMARK    3  A    between atoms: C3_5  and  O3_6 
REMARK    4  A    between atoms: C5_9  and  N1_10 
REMARK    5  A    between atoms: N1_10  and  C6_11 
REMARK    6  A    between atoms: C9_14  and  S1_15 
REMARK    7  A    between atoms: S1_15  and  N2_18 
REMARK       I    between atoms: N2_18  and  C10_20 
REMARK    8  A    between atoms: C13_26  and  N4_27 
REMARK    9  A    between atoms: N4_27  and  N5_29 
REMARK   10  A    between atoms: N5_29  and  N6_30 
ROOT
HETATM    1  C3  UNL     1      20.685 -20.356   8.456  1.00  0.00     0.154 C 
HETATM    2  C4  UNL     1      20.910 -21.440   7.531  1.00  0.00     0.129 C 
HETATM    3  C5  UNL     1      21.907 -22.507   7.800  1.00  0.00     0.127 C 
HETATM    4  S2  UNL     1      22.896 -22.128   9.280  1.00  0.00    -0.074 SA
HETATM    5  C13 UNL     1      21.602 -21.629  10.449  1.00  0.00     0.186 C 
HETATM    6  C14 UNL     1      20.756 -20.512   9.908  1.00  0.00     0.087 C 
ENDROOT
BRANCH   3   7
HETATM    7  N1  UNL     1      22.062 -23.484   7.140  1.00  0.00    -0.403 NA
BRANCH   7   8
HETATM    8  C6  UNL     1      21.990 -24.708   6.671  1.00  0.00     0.107 A 
HETATM    9  C7  UNL     1      21.564 -25.778   7.446  1.00  0.00     0.046 A 
HETATM   10  C8  UNL     1      21.457 -27.049   6.960  1.00  0.00     0.028 A 
HETATM   11  C9  UNL     1      21.778 -27.311   5.652  1.00  0.00     0.080 A 
HETATM   12  C11 UNL     1      22.208 -26.278   4.846  1.00  0.00     0.028 A 
HETATM   13  C12 UNL     1      22.311 -25.007   5.339  1.00  0.00     0.046 A 
BRANCH  11  14
HETATM   14  S1  UNL     1      21.610 -28.878   4.925  1.00  0.00     0.266 S 
HETATM   15  O4  UNL     1      21.452 -29.955   5.967  1.00  0.00    -0.200 OA
HETATM   16  O5  UNL     1      20.385 -28.870   4.017  1.00  0.00    -0.200 OA
BRANCH  14  17
HETATM   17  N2  UNL     1      22.958 -29.243   3.923  1.00  0.00    -0.234 N 
HETATM   18  C10 UNL     1      24.244 -29.365   4.399  1.00  0.00     0.342 C 
HETATM   19  N3  UNL     1      25.321 -29.649   3.464  1.00  0.00    -0.039 NA
HETATM   20  O6  UNL     1      24.611 -29.253   5.616  1.00  0.00    -0.250 OA
ATOM     21  H2  UNL     1      22.797 -29.375   2.925  1.00  0.00     0.183 HD
ENDBRANCH  14  17
ENDBRANCH  11  14
ENDBRANCH   7   8
ENDBRANCH   3   7
BRANCH   1  22
HETATM   22  C2  UNL     1      21.519 -19.205   8.001  1.00  0.00     0.293 C 
HETATM   23  O2  UNL     1      21.613 -18.933   6.796  1.00  0.00    -0.262 OA
BRANCH  22  24
HETATM   24  O1  UNL     1      22.216 -18.404   8.900  1.00  0.00    -0.324 OA
HETATM   25  C1  UNL     1      22.286 -16.989   8.644  1.00  0.00     0.213 C 
ENDBRANCH  22  24
ENDBRANCH   1  22
BRANCH   1  26
HETATM   26  O3  UNL     1      19.354 -19.914   8.156  1.00  0.00    -0.379 OA
ATOM     27  H3  UNL     1      19.068 -20.546   7.508  1.00  0.00     0.211 HD
ENDBRANCH   1  26
BRANCH   5  28
HETATM   28  N4  UNL     1      22.284 -21.271  11.674  1.00  0.00    -0.238 N 
ATOM     29  H4  UNL     1      23.298 -21.160  11.667  1.00  0.00     0.198 HD
BRANCH  28  30
HETATM   30  N5  UNL     1      21.661 -21.099  12.731  1.00  0.00    -0.247 NA
BRANCH  30  31
HETATM   31  N6  UNL     1      20.914 -21.310  13.686  1.00  0.00    -0.261 N 
ATOM     32  H62 UNL     1      20.224 -20.597  13.450  1.00  0.00     0.193 HD
ATOM     33  H61 UNL     1      20.538 -21.719  14.541  1.00  0.00     0.193 HD
ENDBRANCH  30  31
ENDBRANCH  28  30
ENDBRANCH   5  28
TORSDOF 10
ENDMDL
MODEL 4
REMARK VINA RESULT: -7.307688397      0.943      1.240
REMARK  10 active torsions:
REMARK  status: ('A' for Active; 'I' for Inactive)
REMARK    1  A    between atoms: O1_2  and  C2_3 
REMARK    2  A    between atoms: C2_3  and  C3_5 
REMARK    3  A    between atoms: C3_5  and  O3_6 
REMARK    4  A    between atoms: C5_9  and  N1_10 
REMARK    5  A    between atoms: N1_10  and  C6_11 
REMARK    6  A    between atoms: C9_14  and  S1_15 
REMARK    7  A    between atoms: S1_15  and  N2_18 
REMARK       I    between atoms: N2_18  and  C10_20 
REMARK    8  A    between atoms: C13_26  and  N4_27 
REMARK    9  A    between atoms: N4_27  and  N5_29 
REMARK   10  A    between atoms: N5_29  and  N6_30 
ROOT
HETATM    1  C3  UNL     1      20.499 -20.693   8.105  1.00  0.00     0.154 C 
HETATM    2  C4  UNL     1      20.850 -21.837   7.300  1.00  0.00     0.129 C 
HETATM    3  C5  UNL     1      21.739 -22.912   7.808  1.00  0.00     0.127 C 
HETATM    4  S2  UNL     1      22.452 -22.468   9.424  1.00  0.00    -0.074 SA
HETATM    5  C13 UNL     1      20.984 -21.864  10.302  1.00  0.00     0.186 C 
HETATM    6  C14 UNL     1      20.294 -20.761   9.551  1.00  0.00     0.087 C 
ENDROOT
BRANCH   3   7
HETATM    7  N1  UNL     1      21.977 -23.930   7.244  1.00  0.00    -0.403 NA
BRANCH   7   8
HETATM    8  C6  UNL     1      21.908 -24.971   6.446  1.00  0.00     0.107 A 
HETATM    9  C7  UNL     1      22.592 -25.029   5.239  1.00  0.00     0.046 A 
HETATM   10  C8  UNL     1      22.552 -26.118   4.418  1.00  0.00     0.028 A 
HETATM   11  C9  UNL     1      21.811 -27.217   4.772  1.00  0.00     0.080 A 
HETATM   12  C11 UNL     1      21.114 -27.201   5.961  1.00  0.00     0.028 A 
HETATM   13  C12 UNL     1      21.160 -26.108   6.781  1.00  0.00     0.046 A 
BRANCH  11  14
HETATM   14  S1  UNL     1      21.753 -28.673   3.828  1.00  0.00     0.266 S 
HETATM   15  O4  UNL     1      21.414 -29.869   4.678  1.00  0.00    -0.200 OA
HETATM   16  O5  UNL     1      20.697 -28.510   2.741  1.00  0.00    -0.200 OA
BRANCH  14  17
HETATM   17  N2  UNL     1      23.246 -28.947   3.022  1.00  0.00    -0.234 N 
HETATM   18  C10 UNL     1      24.422 -29.225   3.680  1.00  0.00     0.342 C 
HETATM   19  N3  UNL     1      25.639 -29.414   2.907  1.00  0.00    -0.039 NA
HETATM   20  O6  UNL     1      24.570 -29.339   4.942  1.00  0.00    -0.250 OA
ATOM     21  H2  UNL     1      23.261 -28.901   2.003  1.00  0.00     0.183 HD
ENDBRANCH  14  17
ENDBRANCH  11  14
ENDBRANCH   7   8
ENDBRANCH   3   7
BRANCH   1  22
HETATM   22  C2  UNL     1      21.444 -19.594   7.751  1.00  0.00     0.293 C 
HETATM   23  O2  UNL     1      21.464 -19.126   6.603  1.00  0.00    -0.262 OA
BRANCH  22  24
HETATM   24  O1  UNL     1      22.330 -19.060   8.681  1.00  0.00    -0.324 OA
HETATM   25  C1  UNL     1      22.488 -17.630   8.732  1.00  0.00     0.213 C 
ENDBRANCH  22  24
ENDBRANCH   1  22
BRANCH   1  26
HETATM   26  O3  UNL     1      19.263 -20.235   7.538  1.00  0.00    -0.379 OA
ATOM     27  H3  UNL     1      18.650 -20.360   8.253  1.00  0.00     0.211 HD
ENDBRANCH   1  26
BRANCH   5  28
HETATM   28  N4  UNL     1      21.441 -21.450  11.611  1.00  0.00    -0.238 N 
ATOM     29  H4  UNL     1      21.001 -21.846  12.442  1.00  0.00     0.198 HD
BRANCH  28  30
HETATM   30  N5  UNL     1      22.355 -20.625  11.741  1.00  0.00    -0.247 NA
BRANCH  30  31
HETATM   31  N6  UNL     1      22.939 -19.548  11.860  1.00  0.00    -0.261 N 
ATOM     32  H62 UNL     1      22.166 -18.964  11.539  1.00  0.00     0.193 HD
ATOM     33  H61 UNL     1      23.671 -18.868  12.064  1.00  0.00     0.193 HD
ENDBRANCH  30  31
ENDBRANCH  28  30
ENDBRANCH   5  28
TORSDOF 10
ENDMDL
MODEL 5
REMARK VINA RESULT: -7.254416327      1.804      2.856
REMARK  10 active torsions:
REMARK  status: ('A' for Active; 'I' for Inactive)
REMARK    1  A    between atoms: O1_2  and  C2_3 
REMARK    2  A    between atoms: C2_3  and  C3_5 
REMARK    3  A    between atoms: C3_5  and  O3_6 
REMARK    4  A    between atoms: C5_9  and  N1_10 
REMARK    5  A    between atoms: N1_10  and  C6_11 
REMARK    6  A    between atoms: C9_14  and  S1_15 
REMARK    7  A    between atoms: S1_15  and  N2_18 
REMARK       I    between atoms: N2_18  and  C10_20 
REMARK    8  A    between atoms: C13_26  and  N4_27 
REMARK    9  A    between atoms: N4_27  and  N5_29 
REMARK   10  A    between atoms: N5_29  and  N6_30 
ROOT
HETATM    1  C3  UNL     1      20.550 -20.715   8.060  1.00  0.00     0.154 C 
HETATM    2  C4  UNL     1      20.897 -21.839   7.225  1.00  0.00     0.129 C 
HETATM    3  C5  UNL     1      21.779 -22.932   7.706  1.00  0.00     0.127 C 
HETATM    4  S2  UNL     1      22.489 -22.537   9.336  1.00  0.00    -0.074 SA
HETATM    5  C13 UNL     1      21.021 -21.949  10.225  1.00  0.00     0.186 C 
HETATM    6  C14 UNL     1      20.341 -20.822   9.504  1.00  0.00     0.087 C 
ENDROOT
BRANCH   3   7
HETATM    7  N1  UNL     1      22.012 -23.936   7.115  1.00  0.00    -0.403 NA
BRANCH   7   8
HETATM    8  C6  UNL     1      22.052 -24.874   6.196  1.00  0.00     0.107 A 
HETATM    9  C7  UNL     1      21.385 -26.084   6.339  1.00  0.00     0.046 A 
HETATM   10  C8  UNL     1      21.394 -27.052   5.377  1.00  0.00     0.028 A 
HETATM   11  C9  UNL     1      22.084 -26.850   4.208  1.00  0.00     0.080 A 
HETATM   12  C11 UNL     1      22.761 -25.664   4.025  1.00  0.00     0.028 A 
HETATM   13  C12 UNL     1      22.746 -24.696   4.992  1.00  0.00     0.046 A 
BRANCH  11  14
HETATM   14  S1  UNL     1      22.098 -27.992   2.901  1.00  0.00     0.266 S 
HETATM   15  O4  UNL     1      22.133 -27.298   1.564  1.00  0.00    -0.200 OA
HETATM   16  O5  UNL     1      23.327 -28.882   3.041  1.00  0.00    -0.200 OA
BRANCH  14  17
HETATM   17  N2  UNL     1      20.731 -29.030   2.973  1.00  0.00    -0.234 N 
HETATM   18  C10 UNL     1      19.438 -28.595   2.786  1.00  0.00     0.342 C 
HETATM   19  N3  UNL     1      18.347 -29.550   2.894  1.00  0.00    -0.039 NA
HETATM   20  O6  UNL     1      19.077 -27.401   2.519  1.00  0.00    -0.250 OA
ATOM     21  H2  UNL     1      20.885 -30.020   3.163  1.00  0.00     0.183 HD
ENDBRANCH  14  17
ENDBRANCH  11  14
ENDBRANCH   7   8
ENDBRANCH   3   7
BRANCH   1  22
HETATM   22  C2  UNL     1      21.503 -19.612   7.739  1.00  0.00     0.293 C 
HETATM   23  O2  UNL     1      21.532 -19.116   6.604  1.00  0.00    -0.262 OA
BRANCH  22  24
HETATM   24  O1  UNL     1      22.386 -19.106   8.688  1.00  0.00    -0.324 OA
HETATM   25  C1  UNL     1      22.360 -17.693   8.962  1.00  0.00     0.213 C 
ENDBRANCH  22  24
ENDBRANCH   1  22
BRANCH   1  26
HETATM   26  O3  UNL     1      19.319 -20.235   7.503  1.00  0.00    -0.379 OA
ATOM     27  H3  UNL     1      19.215 -20.779   6.732  1.00  0.00     0.211 HD
ENDBRANCH   1  26
BRANCH   5  28
HETATM   28  N4  UNL     1      21.476 -21.575  11.547  1.00  0.00    -0.238 N 
ATOM     29  H4  UNL     1      21.016 -21.973  12.365  1.00  0.00     0.198 HD
BRANCH  28  30
HETATM   30  N5  UNL     1      22.414 -20.780  11.703  1.00  0.00    -0.247 NA
BRANCH  30  31
HETATM   31  N6  UNL     1      23.027 -19.726  11.863  1.00  0.00    -0.261 N 
ATOM     32  H62 UNL     1      22.390 -19.140  11.323  1.00  0.00     0.193 HD
ATOM     33  H61 UNL     1      23.739 -19.064  12.173  1.00  0.00     0.193 HD
ENDBRANCH  30  31
ENDBRANCH  28  30
ENDBRANCH   5  28
TORSDOF 10
ENDMDL
