MODEL 1
REMARK VINA RESULT: -7.184795590      0.000      0.000
REMARK  5 active torsions:
REMARK  status: ('A' for Active; 'I' for Inactive)
REMARK    1  A    between atoms: C1_2  and  C2_3 
REMARK       I    between atoms: C1_2  and  N1_14 
REMARK    2  A    between atoms: C2_3  and  C3_4 
REMARK    3  A    between atoms: N1_14  and  S4_16 
REMARK    4  A    between atoms: S4_16  and  N2_19 
REMARK    5  A    between atoms: N2_19  and  C9_21 
ROOT
HETATM    1  O1  UNL     1      21.775 -24.053   8.208  1.00  0.00    -0.273 OA
HETATM    2  C1  UNL     1      21.040 -24.018   7.168  1.00  0.00     0.233 C 
HETATM    3  N1  UNL     1      20.560 -22.767   6.727  1.00  0.00    -0.237 N 
ATOM      4  H1  UNL     1      19.967 -22.713   5.898  1.00  0.00     0.183 HD
ENDROOT
BRANCH   3   5
HETATM    5  S4  UNL     1      20.971 -21.335   7.581  1.00  0.00     0.327 S 
HETATM    6  O3  UNL     1      19.986 -20.225   7.242  1.00  0.00    -0.182 OA
HETATM    7  O4  UNL     1      22.355 -20.895   7.185  1.00  0.00    -0.182 OA
BRANCH   5   8
HETATM    8  N2  UNL     1      20.844 -21.608   9.266  1.00  0.00    -0.252 N 
ATOM      9  H2  UNL     1      20.287 -22.377   9.636  1.00  0.00     0.182 HD
BRANCH   8  10
HETATM   10  C9  UNL     1      21.559 -20.704  10.149  1.00  0.00     0.125 A 
HETATM   11  C10 UNL     1      22.124 -21.195  11.300  1.00  0.00     0.104 A 
HETATM   12  S5  UNL     1      22.798 -19.784  11.993  1.00  0.00    -0.037 SA
HETATM   13  C11 UNL     1      22.327 -18.664  10.792  1.00  0.00     0.289 A 
HETATM   14  O5  UNL     1      22.542 -17.400  10.734  1.00  0.00    -0.260 OA
HETATM   15  N3  UNL     1      21.675 -19.426   9.915  1.00  0.00    -0.303 N 
ATOM     16  H3  UNL     1      21.273 -19.016   9.072  1.00  0.00     0.171 HD
ENDBRANCH   8  10
ENDBRANCH   5   8
ENDBRANCH   3   5
BRANCH   2  17
HETATM   17  C2  UNL     1      20.675 -25.251   6.411  1.00  0.00     0.126 C 
BRANCH  17  18
HETATM   18  C3  UNL     1      21.645 -25.428   5.284  1.00  0.00     0.128 C 
HETATM   19  S1  UNL     1      22.218 -27.184   5.207  1.00  0.00    -0.153 SA
HETATM   20  C4  UNL     1      21.994 -27.466   3.415  1.00  0.00     0.114 C 
HETATM   21  C5  UNL     1      21.741 -26.059   2.928  1.00  0.00     0.126 C 
HETATM   22  S2  UNL     1      20.831 -26.000   1.366  1.00  0.00    -0.139 SA
HETATM   23  S3  UNL     1      23.251 -25.178   2.543  1.00  0.00    -0.139 SA
HETATM   24  C8  UNL     1      20.926 -25.392   3.968  1.00  0.00     0.170 C 
HETATM   25  C6  UNL     1      21.602 -24.579   0.547  1.00  0.00     0.086 C 
HETATM   26  C7  UNL     1      23.091 -24.669   0.811  1.00  0.00     0.086 C 
HETATM   27  O2  UNL     1      19.833 -24.876   3.832  1.00  0.00    -0.294 OA
ENDBRANCH  17  18
ENDBRANCH   2  17
TORSDOF 5
ENDMDL
MODEL 2
REMARK VINA RESULT: -7.123915431      5.498      8.090
REMARK  5 active torsions:
REMARK  status: ('A' for Active; 'I' for Inactive)
REMARK    1  A    between atoms: C1_2  and  C2_3 
REMARK       I    between atoms: C1_2  and  N1_14 
REMARK    2  A    between atoms: C2_3  and  C3_4 
REMARK    3  A    between atoms: N1_14  and  S4_16 
REMARK    4  A    between atoms: S4_16  and  N2_19 
REMARK    5  A    between atoms: N2_19  and  C9_21 
ROOT
HETATM    1  O1  UNL     1      21.462 -22.984  13.313  1.00  0.00    -0.273 OA
HETATM    2  C1  UNL     1      21.272 -21.726  13.276  1.00  0.00     0.233 C 
HETATM    3  N1  UNL     1      20.338 -21.161  14.169  1.00  0.00    -0.237 N 
ATOM      4  H1  UNL     1      20.167 -20.155  14.157  1.00  0.00     0.183 HD
ENDROOT
BRANCH   3   5
HETATM    5  S4  UNL     1      19.489 -22.161  15.276  1.00  0.00     0.327 S 
HETATM    6  O3  UNL     1      18.224 -21.459  15.750  1.00  0.00    -0.182 OA
HETATM    7  O4  UNL     1      20.364 -22.445  16.468  1.00  0.00    -0.182 OA
BRANCH   5   8
HETATM    8  N2  UNL     1      18.990 -23.600  14.493  1.00  0.00    -0.252 N 
ATOM      9  H2  UNL     1      19.303 -23.823  13.550  1.00  0.00     0.182 HD
BRANCH   8  10
HETATM   10  C9  UNL     1      18.104 -24.489  15.222  1.00  0.00     0.125 A 
HETATM   11  C10 UNL     1      18.306 -25.845  15.153  1.00  0.00     0.104 A 
HETATM   12  S5  UNL     1      17.028 -26.443  16.119  1.00  0.00    -0.037 SA
HETATM   13  C11 UNL     1      16.318 -24.950  16.550  1.00  0.00     0.289 A 
HETATM   14  O5  UNL     1      15.290 -24.724  17.285  1.00  0.00    -0.260 OA
HETATM   15  N3  UNL     1      17.095 -24.063  15.932  1.00  0.00    -0.303 N 
ATOM     16  H3  UNL     1      16.906 -23.064  16.014  1.00  0.00     0.171 HD
ENDBRANCH   8  10
ENDBRANCH   5   8
ENDBRANCH   3   5
BRANCH   2  17
HETATM   17  C2  UNL     1      22.003 -20.840  12.323  1.00  0.00     0.126 C 
BRANCH  17  18
HETATM   18  C3  UNL     1      21.336 -20.920  10.983  1.00  0.00     0.128 C 
HETATM   19  S1  UNL     1      21.452 -19.293  10.116  1.00  0.00    -0.153 SA
HETATM   20  C4  UNL     1      22.020 -19.893   8.485  1.00  0.00     0.114 C 
HETATM   21  C5  UNL     1      21.817 -21.381   8.636  1.00  0.00     0.126 C 
HETATM   22  S2  UNL     1      22.860 -22.357   7.527  1.00  0.00    -0.139 SA
HETATM   23  S3  UNL     1      20.163 -21.903   8.188  1.00  0.00    -0.139 SA
HETATM   24  C8  UNL     1      22.176 -21.718  10.031  1.00  0.00     0.170 C 
HETATM   25  C6  UNL     1      21.757 -23.729   7.098  1.00  0.00     0.086 C 
HETATM   26  C7  UNL     1      20.379 -23.139   6.881  1.00  0.00     0.086 C 
HETATM   27  O2  UNL     1      23.017 -22.513  10.406  1.00  0.00    -0.294 OA
ENDBRANCH  17  18
ENDBRANCH   2  17
TORSDOF 5
ENDMDL
MODEL 3
REMARK VINA RESULT: -6.999556034      1.817      2.260
REMARK  5 active torsions:
REMARK  status: ('A' for Active; 'I' for Inactive)
REMARK    1  A    between atoms: C1_2  and  C2_3 
REMARK       I    between atoms: C1_2  and  N1_14 
REMARK    2  A    between atoms: C2_3  and  C3_4 
REMARK    3  A    between atoms: N1_14  and  S4_16 
REMARK    4  A    between atoms: S4_16  and  N2_19 
REMARK    5  A    between atoms: N2_19  and  C9_21 
ROOT
HETATM    1  O1  UNL     1      20.851 -23.722   6.986  1.00  0.00    -0.273 OA
HETATM    2  C1  UNL     1      21.154 -24.933   7.240  1.00  0.00     0.233 C 
HETATM    3  N1  UNL     1      21.754 -25.229   8.481  1.00  0.00    -0.237 N 
ATOM      4  H1  UNL     1      22.007 -26.191   8.707  1.00  0.00     0.183 HD
ENDROOT
BRANCH   3   5
HETATM    5  S4  UNL     1      22.057 -23.975   9.615  1.00  0.00     0.327 S 
HETATM    6  O3  UNL     1      23.134 -24.410  10.598  1.00  0.00    -0.182 OA
HETATM    7  O4  UNL     1      20.795 -23.672  10.377  1.00  0.00    -0.182 OA
BRANCH   5   8
HETATM    8  N2  UNL     1      22.661 -22.594   8.803  1.00  0.00    -0.252 N 
ATOM      9  H2  UNL     1      23.066 -22.664   7.870  1.00  0.00     0.182 HD
BRANCH   8  10
HETATM   10  C9  UNL     1      22.575 -21.318   9.491  1.00  0.00     0.125 A 
HETATM   11  C10 UNL     1      22.380 -20.172   8.761  1.00  0.00     0.104 A 
HETATM   12  S5  UNL     1      22.384 -18.972   9.981  1.00  0.00    -0.037 SA
HETATM   13  C11 UNL     1      22.631 -19.987  11.332  1.00  0.00     0.289 A 
HETATM   14  O5  UNL     1      22.729 -19.674  12.573  1.00  0.00    -0.260 OA
HETATM   15  N3  UNL     1      22.698 -21.199  10.785  1.00  0.00    -0.303 N 
ATOM     16  H3  UNL     1      22.844 -22.023  11.369  1.00  0.00     0.171 HD
ENDBRANCH   8  10
ENDBRANCH   5   8
ENDBRANCH   3   5
BRANCH   2  17
HETATM   17  C2  UNL     1      20.895 -26.037   6.269  1.00  0.00     0.126 C 
BRANCH  17  18
HETATM   18  C3  UNL     1      21.849 -25.902   5.122  1.00  0.00     0.128 C 
HETATM   19  S1  UNL     1      22.556 -27.552   4.685  1.00  0.00    -0.153 SA
HETATM   20  C4  UNL     1      22.312 -27.483   2.874  1.00  0.00     0.114 C 
HETATM   21  C5  UNL     1      21.937 -26.032   2.687  1.00  0.00     0.126 C 
HETATM   22  S2  UNL     1      20.988 -25.733   1.177  1.00  0.00    -0.139 SA
HETATM   23  S3  UNL     1      23.364 -24.970   2.478  1.00  0.00    -0.139 SA
HETATM   24  C8  UNL     1      21.098 -25.659   3.847  1.00  0.00     0.170 C 
HETATM   25  C6  UNL     1      21.625 -24.117   0.658  1.00  0.00     0.086 C 
HETATM   26  C7  UNL     1      23.122 -24.136   0.887  1.00  0.00     0.086 C 
HETATM   27  O2  UNL     1      19.965 -25.217   3.828  1.00  0.00    -0.294 OA
ENDBRANCH  17  18
ENDBRANCH   2  17
TORSDOF 5
ENDMDL
MODEL 4
REMARK VINA RESULT: -6.933346484      2.676      8.305
REMARK  5 active torsions:
REMARK  status: ('A' for Active; 'I' for Inactive)
REMARK    1  A    between atoms: C1_2  and  C2_3 
REMARK       I    between atoms: C1_2  and  N1_14 
REMARK    2  A    between atoms: C2_3  and  C3_4 
REMARK    3  A    between atoms: N1_14  and  S4_16 
REMARK    4  A    between atoms: S4_16  and  N2_19 
REMARK    5  A    between atoms: N2_19  and  C9_21 
ROOT
HETATM    1  O1  UNL     1      22.498 -23.876   6.470  1.00  0.00    -0.273 OA
HETATM    2  C1  UNL     1      21.825 -24.328   7.452  1.00  0.00     0.233 C 
HETATM    3  N1  UNL     1      20.932 -25.394   7.220  1.00  0.00    -0.237 N 
ATOM      4  H1  UNL     1      20.380 -25.772   7.990  1.00  0.00     0.183 HD
ENDROOT
BRANCH   3   5
HETATM    5  S4  UNL     1      20.773 -26.059   5.645  1.00  0.00     0.327 S 
HETATM    6  O3  UNL     1      20.240 -25.005   4.685  1.00  0.00    -0.182 OA
HETATM    7  O4  UNL     1      19.808 -27.215   5.684  1.00  0.00    -0.182 OA
BRANCH   5   8
HETATM    8  N2  UNL     1      22.310 -26.530   5.056  1.00  0.00    -0.252 N 
ATOM      9  H2  UNL     1      22.888 -27.199   5.564  1.00  0.00     0.182 HD
BRANCH   8  10
HETATM   10  C9  UNL     1      22.760 -25.943   3.807  1.00  0.00     0.125 A 
HETATM   11  C10 UNL     1      22.517 -26.601   2.628  1.00  0.00     0.104 A 
HETATM   12  S5  UNL     1      23.246 -25.559   1.484  1.00  0.00    -0.037 SA
HETATM   13  C11 UNL     1      23.812 -24.360   2.561  1.00  0.00     0.289 A 
HETATM   14  O5  UNL     1      24.461 -23.283   2.305  1.00  0.00    -0.260 OA
HETATM   15  N3  UNL     1      23.414 -24.815   3.748  1.00  0.00    -0.303 N 
ATOM     16  H3  UNL     1      23.618 -24.290   4.598  1.00  0.00     0.171 HD
ENDBRANCH   8  10
ENDBRANCH   5   8
ENDBRANCH   3   5
BRANCH   2  17
HETATM   17  C2  UNL     1      21.952 -23.765   8.829  1.00  0.00     0.126 C 
BRANCH  17  18
HETATM   18  C3  UNL     1      21.886 -22.271   8.746  1.00  0.00     0.128 C 
HETATM   19  S1  UNL     1      20.232 -21.740   8.116  1.00  0.00    -0.153 SA
HETATM   20  C4  UNL     1      19.869 -20.447   9.356  1.00  0.00     0.114 C 
HETATM   21  C5  UNL     1      21.210 -20.314  10.038  1.00  0.00     0.126 C 
HETATM   22  S2  UNL     1      21.091 -19.646  11.714  1.00  0.00    -0.139 SA
HETATM   23  S3  UNL     1      22.292 -19.146   9.219  1.00  0.00    -0.139 SA
HETATM   24  C8  UNL     1      21.780 -21.678  10.120  1.00  0.00     0.170 C 
HETATM   25  C6  UNL     1      22.585 -18.625  11.809  1.00  0.00     0.086 C 
HETATM   26  C7  UNL     1      22.722 -17.915  10.478  1.00  0.00     0.086 C 
HETATM   27  O2  UNL     1      22.127 -22.275  11.120  1.00  0.00    -0.294 OA
ENDBRANCH  17  18
ENDBRANCH   2  17
TORSDOF 5
ENDMDL
MODEL 5
REMARK VINA RESULT: -6.919092928      2.053      2.384
REMARK  5 active torsions:
REMARK  status: ('A' for Active; 'I' for Inactive)
REMARK    1  A    between atoms: C1_2  and  C2_3 
REMARK       I    between atoms: C1_2  and  N1_14 
REMARK    2  A    between atoms: C2_3  and  C3_4 
REMARK    3  A    between atoms: N1_14  and  S4_16 
REMARK    4  A    between atoms: S4_16  and  N2_19 
REMARK    5  A    between atoms: N2_19  and  C9_21 
ROOT
HETATM    1  O1  UNL     1      21.908 -24.124   8.048  1.00  0.00    -0.273 OA
HETATM    2  C1  UNL     1      21.033 -24.177   7.124  1.00  0.00     0.233 C 
HETATM    3  N1  UNL     1      20.292 -23.013   6.834  1.00  0.00    -0.237 N 
ATOM      4  H1  UNL     1      19.584 -23.031   6.100  1.00  0.00     0.183 HD
ENDROOT
BRANCH   3   5
HETATM    5  S4  UNL     1      20.578 -21.566   7.713  1.00  0.00     0.327 S 
HETATM    6  O3  UNL     1      20.125 -21.734   9.156  1.00  0.00    -0.182 OA
HETATM    7  O4  UNL     1      19.802 -20.438   7.087  1.00  0.00    -0.182 OA
BRANCH   5   8
HETATM    8  N2  UNL     1      22.258 -21.238   7.758  1.00  0.00    -0.252 N 
ATOM      9  H2  UNL     1      22.933 -21.969   7.978  1.00  0.00     0.182 HD
BRANCH   8  10
HETATM   10  C9  UNL     1      22.685 -19.880   7.473  1.00  0.00     0.125 A 
HETATM   11  C10 UNL     1      22.819 -18.986   8.506  1.00  0.00     0.104 A 
HETATM   12  S5  UNL     1      23.295 -17.564   7.684  1.00  0.00    -0.037 SA
HETATM   13  C11 UNL     1      23.296 -18.182   6.091  1.00  0.00     0.289 A 
HETATM   14  O5  UNL     1      23.577 -17.585   4.991  1.00  0.00    -0.260 OA
HETATM   15  N3  UNL     1      22.932 -19.452   6.266  1.00  0.00    -0.303 N 
ATOM     16  H3  UNL     1      22.847 -20.080   5.466  1.00  0.00     0.171 HD
ENDBRANCH   8  10
ENDBRANCH   5   8
ENDBRANCH   3   5
BRANCH   2  17
HETATM   17  C2  UNL     1      20.773 -25.425   6.348  1.00  0.00     0.126 C 
BRANCH  17  18
HETATM   18  C3  UNL     1      21.738 -25.490   5.204  1.00  0.00     0.128 C 
HETATM   19  S1  UNL     1      22.366 -27.216   4.998  1.00  0.00    -0.153 SA
HETATM   20  C4  UNL     1      22.135 -27.377   3.191  1.00  0.00     0.114 C 
HETATM   21  C5  UNL     1      21.832 -25.948   2.808  1.00  0.00     0.126 C 
HETATM   22  S2  UNL     1      20.906 -25.808   1.261  1.00  0.00    -0.139 SA
HETATM   23  S3  UNL     1      23.310 -24.992   2.477  1.00  0.00    -0.139 SA
HETATM   24  C8  UNL     1      21.006 -25.384   3.898  1.00  0.00     0.170 C 
HETATM   25  C6  UNL     1      21.624 -24.307   0.540  1.00  0.00     0.086 C 
HETATM   26  C7  UNL     1      23.117 -24.367   0.787  1.00  0.00     0.086 C 
HETATM   27  O2  UNL     1      19.896 -24.895   3.808  1.00  0.00    -0.294 OA
ENDBRANCH  17  18
ENDBRANCH   2  17
TORSDOF 5
ENDMDL
