MODEL 1
REMARK VINA RESULT: -8.451130407      0.000      0.000
REMARK  6 active torsions:
REMARK  status: ('A' for Active; 'I' for Inactive)
REMARK    1  A    between atoms: O1_2  and  C2_3 
REMARK    2  A    between atoms: C2_3  and  C3_5 
REMARK    3  A    between atoms: C7_9  and  N1_10 
REMARK    4  A    between atoms: C12_22  and  N3_23 
REMARK    5  A    between atoms: N3_23  and  N4_25 
REMARK       I    between atoms: N4_25  and  C13_27 
REMARK    6  A    between atoms: C13_27  and  C14_29 
ROOT
HETATM    1  C3  UNL     1      26.768 -24.585  -0.103  1.00  0.00     0.069 A 
HETATM    2  C4  UNL     1      28.000 -24.423   0.534  1.00  0.00     0.020 A 
HETATM    3  C5  UNL     1      28.697 -25.537   0.928  1.00  0.00     0.003 A 
HETATM    4  C6  UNL     1      28.212 -26.815   0.711  1.00  0.00     0.032 A 
HETATM    5  C7  UNL     1      26.993 -26.943   0.079  1.00  0.00     0.063 A 
HETATM    6  C12 UNL     1      26.249 -25.834  -0.340  1.00  0.00     0.091 A 
ENDROOT
BRANCH   6   7
HETATM    7  N3  UNL     1      24.991 -25.993  -0.980  1.00  0.00    -0.295 N 
ATOM      8  H3  UNL     1      24.971 -25.988  -2.000  1.00  0.00     0.187 HD
BRANCH   7   9
HETATM    9  N4  UNL     1      23.781 -26.155  -0.307  1.00  0.00    -0.265 N 
HETATM   10  C13 UNL     1      22.868 -27.199  -0.593  1.00  0.00     0.270 C 
HETATM   11  O6  UNL     1      23.177 -28.026  -1.521  1.00  0.00    -0.266 OA
ATOM     12  H4  UNL     1      23.543 -25.490   0.428  1.00  0.00     0.190 HD
BRANCH  10  13
HETATM   13  C14 UNL     1      21.606 -27.422   0.066  1.00  0.00     0.036 A 
HETATM   14  C15 UNL     1      20.836 -26.426   0.649  1.00  0.00     0.034 A 
HETATM   15  C16 UNL     1      19.635 -26.706   1.258  1.00  0.00     0.088 A 
HETATM   16  N5  UNL     1      19.156 -27.949   1.314  1.00  0.00    -0.375 N 
HETATM   17  C17 UNL     1      19.895 -28.940   0.750  1.00  0.00     0.088 A 
ATOM     18  H5  UNL     1      18.264 -28.150   1.767  1.00  0.00     0.164 HD
HETATM   19  C18 UNL     1      21.102 -28.700   0.131  1.00  0.00     0.034 A 
ENDBRANCH  10  13
ENDBRANCH   7   9
ENDBRANCH   6   7
BRANCH   1  20
HETATM   20  C2  UNL     1      25.995 -23.417  -0.539  1.00  0.00     0.295 C 
HETATM   21  O2  UNL     1      26.392 -22.675  -1.470  1.00  0.00    -0.259 OA
BRANCH  20  22
HETATM   22  O1  UNL     1      24.781 -23.071   0.054  1.00  0.00    -0.322 OA
HETATM   23  C1  UNL     1      24.553 -23.276   1.446  1.00  0.00     0.213 C 
ENDBRANCH  20  22
ENDBRANCH   1  20
BRANCH   5  24
HETATM   24  N1  UNL     1      26.460 -28.232  -0.161  1.00  0.00    -0.337 N 
HETATM   25  C8  UNL     1      25.719 -28.901   0.639  1.00  0.00     0.166 A 
HETATM   26  N2  UNL     1      25.335 -28.408   1.901  1.00  0.00    -0.263 N 
HETATM   27  C11 UNL     1      25.284 -30.208   0.186  1.00  0.00     0.216 A 
HETATM   28  S1  UNL     1      24.335 -29.324   2.955  1.00  0.00     0.254 S 
ATOM     29  H2  UNL     1      25.657 -27.486   2.195  1.00  0.00     0.180 HD
HETATM   30  O3  UNL     1      23.024 -28.574   3.116  1.00  0.00    -0.201 OA
HETATM   31  O4  UNL     1      25.021 -29.512   4.268  1.00  0.00    -0.201 OA
HETATM   32  C9  UNL     1      23.971 -30.826   2.169  1.00  0.00     0.135 A 
HETATM   33  C10 UNL     1      24.438 -31.096   0.969  1.00  0.00     0.072 A 
HETATM   34  O5  UNL     1      25.637 -30.643  -0.957  1.00  0.00    -0.284 OA
ATOM     35  H1  UNL     1      26.687 -28.668  -1.054  1.00  0.00     0.167 HD
ENDBRANCH   5  24
TORSDOF 6
ENDMDL
MODEL 2
REMARK VINA RESULT: -8.385299781     11.660     14.172
REMARK  6 active torsions:
REMARK  status: ('A' for Active; 'I' for Inactive)
REMARK    1  A    between atoms: O1_2  and  C2_3 
REMARK    2  A    between atoms: C2_3  and  C3_5 
REMARK    3  A    between atoms: C7_9  and  N1_10 
REMARK    4  A    between atoms: C12_22  and  N3_23 
REMARK    5  A    between atoms: N3_23  and  N4_25 
REMARK       I    between atoms: N4_25  and  C13_27 
REMARK    6  A    between atoms: C13_27  and  C14_29 
ROOT
HETATM    1  C3  UNL     1      19.651 -23.409  14.298  1.00  0.00     0.069 A 
HETATM    2  C4  UNL     1      18.979 -24.614  14.082  1.00  0.00     0.020 A 
HETATM    3  C5  UNL     1      19.323 -25.384  13.001  1.00  0.00     0.003 A 
HETATM    4  C6  UNL     1      20.317 -24.998  12.118  1.00  0.00     0.032 A 
HETATM    5  C7  UNL     1      20.963 -23.803  12.357  1.00  0.00     0.063 A 
HETATM    6  C12 UNL     1      20.644 -22.987  13.448  1.00  0.00     0.091 A 
ENDROOT
BRANCH   6   7
HETATM    7  N3  UNL     1      21.319 -21.756  13.667  1.00  0.00    -0.295 N 
ATOM      8  H3  UNL     1      21.908 -21.676  14.495  1.00  0.00     0.187 HD
BRANCH   7   9
HETATM    9  N4  UNL     1      21.228 -20.650  12.824  1.00  0.00    -0.265 N 
HETATM   10  C13 UNL     1      22.351 -20.055  12.200  1.00  0.00     0.270 C 
HETATM   11  O6  UNL     1      23.504 -20.564  12.433  1.00  0.00    -0.266 OA
ATOM     12  H4  UNL     1      20.307 -20.250  12.647  1.00  0.00     0.190 HD
BRANCH  10  13
HETATM   13  C14 UNL     1      22.324 -18.915  11.318  1.00  0.00     0.036 A 
HETATM   14  C15 UNL     1      21.982 -18.969   9.975  1.00  0.00     0.034 A 
HETATM   15  C16 UNL     1      21.969 -17.840   9.188  1.00  0.00     0.088 A 
HETATM   16  N5  UNL     1      22.284 -16.644   9.684  1.00  0.00    -0.375 N 
HETATM   17  C17 UNL     1      22.623 -16.569  10.998  1.00  0.00     0.088 A 
ATOM     18  H5  UNL     1      22.272 -15.810   9.096  1.00  0.00     0.164 HD
HETATM   19  C18 UNL     1      22.648 -17.676  11.817  1.00  0.00     0.034 A 
ENDBRANCH  10  13
ENDBRANCH   7   9
ENDBRANCH   6   7
BRANCH   1  20
HETATM   20  C2  UNL     1      19.311 -22.560  15.445  1.00  0.00     0.295 C 
HETATM   21  O2  UNL     1      20.177 -22.206  16.282  1.00  0.00    -0.259 OA
BRANCH  20  22
HETATM   22  O1  UNL     1      18.012 -22.100  15.665  1.00  0.00    -0.322 OA
HETATM   23  C1  UNL     1      17.717 -20.705  15.697  1.00  0.00     0.213 C 
ENDBRANCH  20  22
ENDBRANCH   1  20
BRANCH   5  24
HETATM   24  N1  UNL     1      21.985 -23.371  11.478  1.00  0.00    -0.337 N 
HETATM   25  C8  UNL     1      21.817 -22.922  10.292  1.00  0.00     0.166 A 
HETATM   26  N2  UNL     1      20.543 -22.801   9.705  1.00  0.00    -0.263 N 
HETATM   27  C11 UNL     1      23.011 -22.535   9.566  1.00  0.00     0.216 A 
HETATM   28  S1  UNL     1      20.344 -22.190   8.112  1.00  0.00     0.254 S 
ATOM     29  H2  UNL     1      19.719 -23.083  10.237  1.00  0.00     0.180 HD
HETATM   30  O3  UNL     1      19.577 -20.883   8.212  1.00  0.00    -0.201 OA
HETATM   31  O4  UNL     1      19.615 -23.188   7.273  1.00  0.00    -0.201 OA
HETATM   32  C9  UNL     1      21.917 -21.813   7.488  1.00  0.00     0.135 A 
HETATM   33  C10 UNL     1      22.999 -22.004   8.212  1.00  0.00     0.072 A 
HETATM   34  O5  UNL     1      24.158 -22.648  10.108  1.00  0.00    -0.284 OA
ATOM     35  H1  UNL     1      22.944 -23.423  11.822  1.00  0.00     0.167 HD
ENDBRANCH   5  24
TORSDOF 6
ENDMDL
MODEL 3
REMARK VINA RESULT: -8.102700496     11.124     13.328
REMARK  6 active torsions:
REMARK  status: ('A' for Active; 'I' for Inactive)
REMARK    1  A    between atoms: O1_2  and  C2_3 
REMARK    2  A    between atoms: C2_3  and  C3_5 
REMARK    3  A    between atoms: C7_9  and  N1_10 
REMARK    4  A    between atoms: C12_22  and  N3_23 
REMARK    5  A    between atoms: N3_23  and  N4_25 
REMARK       I    between atoms: N4_25  and  C13_27 
REMARK    6  A    between atoms: C13_27  and  C14_29 
ROOT
HETATM    1  C3  UNL     1      21.424 -23.853   8.833  1.00  0.00     0.069 A 
HETATM    2  C4  UNL     1      22.179 -25.027   8.778  1.00  0.00     0.020 A 
HETATM    3  C5  UNL     1      22.533 -25.647   9.948  1.00  0.00     0.003 A 
HETATM    4  C6  UNL     1      22.161 -25.141  11.182  1.00  0.00     0.032 A 
HETATM    5  C7  UNL     1      21.416 -23.981  11.205  1.00  0.00     0.063 A 
HETATM    6  C12 UNL     1      21.033 -23.316  10.035  1.00  0.00     0.091 A 
ENDROOT
BRANCH   6   7
HETATM    7  N3  UNL     1      20.273 -22.117  10.087  1.00  0.00    -0.295 N 
ATOM      8  H3  UNL     1      19.278 -22.192  10.301  1.00  0.00     0.187 HD
BRANCH   7   9
HETATM    9  N4  UNL     1      20.795 -20.845   9.863  1.00  0.00    -0.265 N 
HETATM   10  C13 UNL     1      21.474 -20.099  10.856  1.00  0.00     0.270 C 
HETATM   11  O6  UNL     1      21.605 -20.628  12.016  1.00  0.00    -0.266 OA
ATOM     12  H4  UNL     1      20.683 -20.431   8.937  1.00  0.00     0.190 HD
BRANCH  10  13
HETATM   13  C14 UNL     1      22.039 -18.783  10.688  1.00  0.00     0.036 A 
HETATM   14  C15 UNL     1      22.287 -18.185   9.461  1.00  0.00     0.034 A 
HETATM   15  C16 UNL     1      22.822 -16.922   9.369  1.00  0.00     0.088 A 
HETATM   16  N5  UNL     1      23.126 -16.214  10.458  1.00  0.00    -0.375 N 
HETATM   17  C17 UNL     1      22.891 -16.782  11.670  1.00  0.00     0.088 A 
ATOM     18  H5  UNL     1      23.522 -15.277  10.383  1.00  0.00     0.164 HD
HETATM   19  C18 UNL     1      22.357 -18.044  11.803  1.00  0.00     0.034 A 
ENDBRANCH  10  13
ENDBRANCH   7   9
ENDBRANCH   6   7
BRANCH   1  20
HETATM   20  C2  UNL     1      21.027 -23.163   7.601  1.00  0.00     0.295 C 
HETATM   21  O2  UNL     1      20.207 -23.670   6.797  1.00  0.00    -0.259 OA
BRANCH  20  22
HETATM   22  O1  UNL     1      21.536 -21.910   7.259  1.00  0.00    -0.322 OA
HETATM   23  C1  UNL     1      22.941 -21.677   7.189  1.00  0.00     0.213 C 
ENDBRANCH  20  22
ENDBRANCH   1  20
BRANCH   5  24
HETATM   24  N1  UNL     1      21.016 -23.429  12.446  1.00  0.00    -0.337 N 
HETATM   25  C8  UNL     1      20.128 -23.908  13.232  1.00  0.00     0.166 A 
HETATM   26  N2  UNL     1      19.418 -25.088  12.937  1.00  0.00    -0.263 N 
HETATM   27  C11 UNL     1      19.877 -23.175  14.457  1.00  0.00     0.216 A 
HETATM   28  S1  UNL     1      18.232 -25.714  14.012  1.00  0.00     0.254 S 
ATOM     29  H2  UNL     1      19.613 -25.583  12.066  1.00  0.00     0.180 HD
HETATM   30  O3  UNL     1      18.733 -27.054  14.521  1.00  0.00    -0.201 OA
HETATM   31  O4  UNL     1      16.927 -25.853  13.300  1.00  0.00    -0.201 OA
HETATM   32  C9  UNL     1      18.140 -24.649  15.377  1.00  0.00     0.135 A 
HETATM   33  C10 UNL     1      18.904 -23.581  15.460  1.00  0.00     0.072 A 
HETATM   34  O5  UNL     1      20.526 -22.109  14.713  1.00  0.00    -0.284 OA
ATOM     35  H1  UNL     1      21.480 -22.570  12.741  1.00  0.00     0.167 HD
ENDBRANCH   5  24
TORSDOF 6
ENDMDL
MODEL 4
REMARK VINA RESULT: -7.540494703      3.535      6.114
REMARK  6 active torsions:
REMARK  status: ('A' for Active; 'I' for Inactive)
REMARK    1  A    between atoms: O1_2  and  C2_3 
REMARK    2  A    between atoms: C2_3  and  C3_5 
REMARK    3  A    between atoms: C7_9  and  N1_10 
REMARK    4  A    between atoms: C12_22  and  N3_23 
REMARK    5  A    between atoms: N3_23  and  N4_25 
REMARK       I    between atoms: N4_25  and  C13_27 
REMARK    6  A    between atoms: C13_27  and  C14_29 
ROOT
HETATM    1  C3  UNL     1      21.863 -26.098   5.511  1.00  0.00     0.069 A 
HETATM    2  C4  UNL     1      21.708 -27.261   6.268  1.00  0.00     0.020 A 
HETATM    3  C5  UNL     1      21.607 -28.467   5.623  1.00  0.00     0.003 A 
HETATM    4  C6  UNL     1      21.655 -28.562   4.243  1.00  0.00     0.032 A 
HETATM    5  C7  UNL     1      21.809 -27.397   3.522  1.00  0.00     0.063 A 
HETATM    6  C12 UNL     1      21.916 -26.145   4.139  1.00  0.00     0.091 A 
ENDROOT
BRANCH   6   7
HETATM    7  N3  UNL     1      22.065 -24.958   3.372  1.00  0.00    -0.295 N 
ATOM      8  H3  UNL     1      21.251 -24.354   3.267  1.00  0.00     0.187 HD
BRANCH   7   9
HETATM    9  N4  UNL     1      23.250 -24.566   2.755  1.00  0.00    -0.265 N 
HETATM   10  C13 UNL     1      23.351 -24.297   1.368  1.00  0.00     0.270 C 
HETATM   11  O6  UNL     1      22.295 -24.428   0.656  1.00  0.00    -0.266 OA
ATOM     12  H4  UNL     1      24.087 -24.468   3.330  1.00  0.00     0.190 HD
BRANCH  10  13
HETATM   13  C14 UNL     1      24.544 -23.886   0.671  1.00  0.00     0.036 A 
HETATM   14  C15 UNL     1      25.595 -23.192   1.252  1.00  0.00     0.034 A 
HETATM   15  C16 UNL     1      26.710 -22.835   0.531  1.00  0.00     0.088 A 
HETATM   16  N5  UNL     1      26.831 -23.141  -0.761  1.00  0.00    -0.375 N 
HETATM   17  C17 UNL     1      25.812 -23.821  -1.350  1.00  0.00     0.088 A 
ATOM     18  H5  UNL     1      27.661 -22.874  -1.290  1.00  0.00     0.164 HD
HETATM   19  C18 UNL     1      24.680 -24.195  -0.662  1.00  0.00     0.034 A 
ENDBRANCH  10  13
ENDBRANCH   7   9
ENDBRANCH   6   7
BRANCH   1  20
HETATM   20  C2  UNL     1      21.976 -24.791   6.166  1.00  0.00     0.295 C 
HETATM   21  O2  UNL     1      22.888 -23.981   5.869  1.00  0.00    -0.259 OA
BRANCH  20  22
HETATM   22  O1  UNL     1      21.077 -24.377   7.150  1.00  0.00    -0.322 OA
HETATM   23  C1  UNL     1      21.531 -23.959   8.435  1.00  0.00     0.213 C 
ENDBRANCH  20  22
ENDBRANCH   1  20
BRANCH   5  24
HETATM   24  N1  UNL     1      21.860 -27.449   2.108  1.00  0.00    -0.337 N 
HETATM   25  C8  UNL     1      22.834 -27.892   1.406  1.00  0.00     0.166 A 
HETATM   26  N2  UNL     1      24.013 -28.399   1.987  1.00  0.00    -0.263 N 
HETATM   27  C11 UNL     1      22.672 -27.851  -0.034  1.00  0.00     0.216 A 
HETATM   28  S1  UNL     1      25.304 -28.993   1.023  1.00  0.00     0.254 S 
ATOM     29  H2  UNL     1      24.101 -28.414   3.004  1.00  0.00     0.180 HD
HETATM   30  O3  UNL     1      25.441 -30.480   1.300  1.00  0.00    -0.201 OA
HETATM   31  O4  UNL     1      26.562 -28.258   1.352  1.00  0.00    -0.201 OA
HETATM   32  C9  UNL     1      24.845 -28.823  -0.641  1.00  0.00     0.135 A 
HETATM   33  C10 UNL     1      23.678 -28.315  -0.976  1.00  0.00     0.072 A 
HETATM   34  O5  UNL     1      21.601 -27.390  -0.547  1.00  0.00    -0.284 OA
ATOM     35  H1  UNL     1      21.046 -27.101   1.602  1.00  0.00     0.167 HD
ENDBRANCH   5  24
TORSDOF 6
ENDMDL
MODEL 5
REMARK VINA RESULT: -7.490855655      4.310      6.650
REMARK  6 active torsions:
REMARK  status: ('A' for Active; 'I' for Inactive)
REMARK    1  A    between atoms: O1_2  and  C2_3 
REMARK    2  A    between atoms: C2_3  and  C3_5 
REMARK    3  A    between atoms: C7_9  and  N1_10 
REMARK    4  A    between atoms: C12_22  and  N3_23 
REMARK    5  A    between atoms: N3_23  and  N4_25 
REMARK       I    between atoms: N4_25  and  C13_27 
REMARK    6  A    between atoms: C13_27  and  C14_29 
ROOT
HETATM    1  C3  UNL     1      21.831 -25.492   6.548  1.00  0.00     0.069 A 
HETATM    2  C4  UNL     1      21.734 -26.449   7.561  1.00  0.00     0.020 A 
HETATM    3  C5  UNL     1      21.989 -27.763   7.262  1.00  0.00     0.003 A 
HETATM    4  C6  UNL     1      22.339 -28.165   5.985  1.00  0.00     0.032 A 
HETATM    5  C7  UNL     1      22.427 -27.197   5.006  1.00  0.00     0.063 A 
HETATM    6  C12 UNL     1      22.176 -25.846   5.266  1.00  0.00     0.091 A 
ENDROOT
BRANCH   6   7
HETATM    7  N3  UNL     1      22.265 -24.870   4.238  1.00  0.00    -0.295 N 
ATOM      8  H3  UNL     1      21.416 -24.364   3.986  1.00  0.00     0.187 HD
BRANCH   7   9
HETATM    9  N4  UNL     1      23.436 -24.558   3.550  1.00  0.00    -0.265 N 
HETATM   10  C13 UNL     1      23.488 -24.384   2.146  1.00  0.00     0.270 C 
HETATM   11  O6  UNL     1      22.400 -24.527   1.485  1.00  0.00    -0.266 OA
ATOM     12  H4  UNL     1      24.297 -24.449   4.085  1.00  0.00     0.190 HD
BRANCH  10  13
HETATM   13  C14 UNL     1      24.663 -24.059   1.377  1.00  0.00     0.036 A 
HETATM   14  C15 UNL     1      25.859 -23.612   1.921  1.00  0.00     0.034 A 
HETATM   15  C16 UNL     1      26.948 -23.325   1.130  1.00  0.00     0.088 A 
HETATM   16  N5  UNL     1      26.902 -23.465  -0.195  1.00  0.00    -0.375 N 
HETATM   17  C17 UNL     1      25.739 -23.901  -0.748  1.00  0.00     0.088 A 
ATOM     18  H5  UNL     1      27.713 -23.251  -0.775  1.00  0.00     0.164 HD
HETATM   19  C18 UNL     1      24.628 -24.198   0.010  1.00  0.00     0.034 A 
ENDBRANCH  10  13
ENDBRANCH   7   9
ENDBRANCH   6   7
BRANCH   1  20
HETATM   20  C2  UNL     1      21.566 -24.077   6.831  1.00  0.00     0.295 C 
HETATM   21  O2  UNL     1      22.491 -23.229   6.867  1.00  0.00    -0.259 OA
BRANCH  20  22
HETATM   22  O1  UNL     1      20.278 -23.600   7.072  1.00  0.00    -0.322 OA
HETATM   23  C1  UNL     1      20.017 -22.680   8.131  1.00  0.00     0.213 C 
ENDBRANCH  20  22
ENDBRANCH   1  20
BRANCH   5  24
HETATM   24  N1  UNL     1      22.781 -27.566   3.686  1.00  0.00    -0.337 N 
HETATM   25  C8  UNL     1      21.968 -27.854   2.741  1.00  0.00     0.166 A 
HETATM   26  N2  UNL     1      20.571 -27.834   2.917  1.00  0.00    -0.263 N 
HETATM   27  C11 UNL     1      22.553 -28.206   1.462  1.00  0.00     0.216 A 
HETATM   28  S1  UNL     1      19.500 -28.219   1.630  1.00  0.00     0.254 S 
ATOM     29  H2  UNL     1      20.186 -27.584   3.828  1.00  0.00     0.180 HD
HETATM   30  O3  UNL     1      18.706 -26.967   1.300  1.00  0.00    -0.201 OA
HETATM   31  O4  UNL     1      18.604 -29.343   2.036  1.00  0.00    -0.201 OA
HETATM   32  C9  UNL     1      20.459 -28.598   0.237  1.00  0.00     0.135 A 
HETATM   33  C10 UNL     1      21.774 -28.557   0.284  1.00  0.00     0.072 A 
HETATM   34  O5  UNL     1      23.818 -28.220   1.315  1.00  0.00    -0.284 OA
ATOM     35  H1  UNL     1      23.777 -27.606   3.467  1.00  0.00     0.167 HD
ENDBRANCH   5  24
TORSDOF 6
ENDMDL
