MODEL 1
REMARK VINA RESULT: -8.202783945      0.000      0.000
REMARK  6 active torsions:
REMARK  status: ('A' for Active; 'I' for Inactive)
REMARK    1  A    between atoms: C1_4  and  N2_5 
REMARK    2  A    between atoms: C1_4  and  C11_27 
REMARK    3  A    between atoms: N2_5  and  S1_7 
REMARK    4  A    between atoms: S1_7  and  C2_10 
REMARK    5  A    between atoms: C5_13  and  N3_14 
REMARK       I    between atoms: N3_14  and  C6_16 
REMARK    6  A    between atoms: C6_16  and  C7_18 
ROOT
HETATM    1  C2  UNL     1      21.559 -22.644   7.288  1.00  0.00     0.095 A 
HETATM    2  C3  UNL     1      20.412 -21.984   7.676  1.00  0.00     0.030 A 
HETATM    3  C4  UNL     1      20.560 -20.693   8.136  1.00  0.00     0.050 A 
HETATM    4  C5  UNL     1      21.789 -20.064   8.215  1.00  0.00     0.107 A 
HETATM    5  N5  UNL     1      22.880 -20.732   7.831  1.00  0.00    -0.351 N 
ATOM      6  H5  UNL     1      23.794 -20.283   7.882  1.00  0.00     0.166 HD
HETATM    7  C10 UNL     1      22.779 -22.007   7.370  1.00  0.00     0.115 A 
ENDROOT
BRANCH   1   8
HETATM    8  S1  UNL     1      21.474 -24.304   6.682  1.00  0.00     0.265 S 
HETATM    9  O1  UNL     1      20.087 -24.611   6.221  1.00  0.00    -0.200 OA
HETATM   10  O2  UNL     1      21.738 -25.266   7.838  1.00  0.00    -0.200 OA
BRANCH   8  11
HETATM   11  N2  UNL     1      22.568 -24.583   5.400  1.00  0.00    -0.269 N 
ATOM     12  H2  UNL     1      23.312 -23.909   5.218  1.00  0.00     0.180 HD
BRANCH  11  13
HETATM   13  C1  UNL     1      22.456 -25.733   4.592  1.00  0.00     0.093 C 
HETATM   14  N1  UNL     1      22.231 -26.877   5.115  1.00  0.00    -0.388 N 
ATOM     15  H12 UNL     1      22.132 -26.907   6.130  1.00  0.00     0.157 HD
ATOM     16  H11 UNL     1      22.150 -27.708   4.530  1.00  0.00     0.157 HD
BRANCH  13  17
HETATM   17  C11 UNL     1      22.600 -25.690   3.109  1.00  0.00     0.091 C 
HETATM   18  C12 UNL     1      23.713 -24.804   2.750  1.00  0.00    -0.002 C 
HETATM   19  C13 UNL     1      23.604 -24.154   1.608  1.00  0.00     0.106 C 
HETATM   20  S3  UNL     1      22.067 -24.627   0.906  1.00  0.00     0.166 S 
HETATM   21  O4  UNL     1      22.199 -25.765  -0.044  1.00  0.00    -0.223 OA
HETATM   22  O5  UNL     1      21.307 -23.473   0.369  1.00  0.00    -0.223 OA
HETATM   23  C14 UNL     1      21.327 -25.223   2.447  1.00  0.00     0.161 C 
ENDBRANCH  13  17
ENDBRANCH  11  13
ENDBRANCH   8  11
ENDBRANCH   1   8
BRANCH   4  24
HETATM   24  N3  UNL     1      21.826 -18.732   8.704  1.00  0.00    -0.308 N 
HETATM   25  C6  UNL     1      22.398 -18.447   9.955  1.00  0.00     0.274 C 
HETATM   26  O3  UNL     1      22.874 -19.375  10.630  1.00  0.00    -0.266 OA
ATOM     27  H3  UNL     1      21.433 -17.977   8.143  1.00  0.00     0.170 HD
BRANCH  25  28
HETATM   28  C7  UNL     1      22.452 -17.066  10.495  1.00  0.00     0.107 A 
HETATM   29  C8  UNL     1      22.669 -16.785  11.790  1.00  0.00     0.044 A 
HETATM   30  C9  UNL     1      22.690 -15.460  12.135  1.00  0.00     0.070 A 
HETATM   31  S2  UNL     1      22.409 -14.684  10.646  1.00  0.00    -0.026 SA
HETATM   32  N4  UNL     1      22.277 -16.036   9.664  1.00  0.00    -0.322 N 
ATOM     33  H4  UNL     1      22.103 -16.065   8.659  1.00  0.00     0.174 HD
ENDBRANCH  25  28
ENDBRANCH   4  24
TORSDOF 6
ENDMDL
MODEL 2
REMARK VINA RESULT: -8.186631483      4.530      6.980
REMARK  6 active torsions:
REMARK  status: ('A' for Active; 'I' for Inactive)
REMARK    1  A    between atoms: C1_4  and  N2_5 
REMARK    2  A    between atoms: C1_4  and  C11_27 
REMARK    3  A    between atoms: N2_5  and  S1_7 
REMARK    4  A    between atoms: S1_7  and  C2_10 
REMARK    5  A    between atoms: C5_13  and  N3_14 
REMARK       I    between atoms: N3_14  and  C6_16 
REMARK    6  A    between atoms: C6_16  and  C7_18 
ROOT
HETATM    1  C2  UNL     1      22.724 -27.050   1.708  1.00  0.00     0.095 A 
HETATM    2  C3  UNL     1      23.231 -27.537   2.893  1.00  0.00     0.030 A 
HETATM    3  C4  UNL     1      23.048 -26.760   4.016  1.00  0.00     0.050 A 
HETATM    4  C5  UNL     1      22.391 -25.543   3.985  1.00  0.00     0.107 A 
HETATM    5  N5  UNL     1      21.912 -25.101   2.820  1.00  0.00    -0.351 N 
ATOM      6  H5  UNL     1      21.424 -24.206   2.779  1.00  0.00     0.166 HD
HETATM    7  C10 UNL     1      22.070 -25.836   1.688  1.00  0.00     0.115 A 
ENDROOT
BRANCH   1   8
HETATM    8  S1  UNL     1      22.907 -27.973   0.209  1.00  0.00     0.265 S 
HETATM    9  O1  UNL     1      21.588 -28.101  -0.478  1.00  0.00    -0.200 OA
HETATM   10  O2  UNL     1      23.323 -29.401   0.556  1.00  0.00    -0.200 OA
BRANCH   8  11
HETATM   11  N2  UNL     1      24.032 -27.259  -0.859  1.00  0.00    -0.269 N 
ATOM     12  H2  UNL     1      23.772 -27.102  -1.833  1.00  0.00     0.180 HD
BRANCH  11  13
HETATM   13  C1  UNL     1      25.315 -26.883  -0.413  1.00  0.00     0.093 C 
HETATM   14  N1  UNL     1      26.016 -27.680   0.297  1.00  0.00    -0.388 N 
ATOM     15  H12 UNL     1      25.604 -28.589   0.512  1.00  0.00     0.157 HD
ATOM     16  H11 UNL     1      26.945 -27.408   0.621  1.00  0.00     0.157 HD
BRANCH  13  17
HETATM   17  C11 UNL     1      25.918 -25.555  -0.725  1.00  0.00     0.091 C 
HETATM   18  C12 UNL     1      27.338 -25.562  -0.357  1.00  0.00    -0.002 C 
HETATM   19  C13 UNL     1      27.849 -24.416   0.043  1.00  0.00     0.106 C 
HETATM   20  S3  UNL     1      26.550 -23.238  -0.020  1.00  0.00     0.166 S 
HETATM   21  O4  UNL     1      26.519 -22.488  -1.305  1.00  0.00    -0.223 OA
HETATM   22  O5  UNL     1      26.502 -22.377   1.186  1.00  0.00    -0.223 OA
HETATM   23  C14 UNL     1      25.198 -24.442  -0.004  1.00  0.00     0.161 C 
ENDBRANCH  13  17
ENDBRANCH  11  13
ENDBRANCH   8  11
ENDBRANCH   1   8
BRANCH   4  24
HETATM   24  N3  UNL     1      22.259 -24.826   5.202  1.00  0.00    -0.308 N 
HETATM   25  C6  UNL     1      21.021 -24.764   5.865  1.00  0.00     0.274 C 
HETATM   26  O3  UNL     1      20.041 -25.348   5.373  1.00  0.00    -0.266 OA
ATOM     27  H3  UNL     1      23.070 -24.350   5.599  1.00  0.00     0.170 HD
BRANCH  25  28
HETATM   28  C7  UNL     1      20.850 -24.022   7.138  1.00  0.00     0.107 A 
HETATM   29  C8  UNL     1      21.549 -24.292   8.253  1.00  0.00     0.044 A 
HETATM   30  C9  UNL     1      21.277 -23.519   9.349  1.00  0.00     0.070 A 
HETATM   31  S2  UNL     1      20.071 -22.467   8.771  1.00  0.00    -0.026 SA
HETATM   32  N4  UNL     1      19.957 -23.031   7.198  1.00  0.00    -0.322 N 
ATOM     33  H4  UNL     1      19.345 -22.695   6.455  1.00  0.00     0.174 HD
ENDBRANCH  25  28
ENDBRANCH   4  24
TORSDOF 6
ENDMDL
MODEL 3
REMARK VINA RESULT: -8.069951372      3.179      4.242
REMARK  6 active torsions:
REMARK  status: ('A' for Active; 'I' for Inactive)
REMARK    1  A    between atoms: C1_4  and  N2_5 
REMARK    2  A    between atoms: C1_4  and  C11_27 
REMARK    3  A    between atoms: N2_5  and  S1_7 
REMARK    4  A    between atoms: S1_7  and  C2_10 
REMARK    5  A    between atoms: C5_13  and  N3_14 
REMARK       I    between atoms: N3_14  and  C6_16 
REMARK    6  A    between atoms: C6_16  and  C7_18 
ROOT
HETATM    1  C2  UNL     1      20.811 -25.597   4.949  1.00  0.00     0.095 A 
HETATM    2  C3  UNL     1      21.639 -25.988   5.979  1.00  0.00     0.030 A 
HETATM    3  C4  UNL     1      21.640 -25.202   7.112  1.00  0.00     0.050 A 
HETATM    4  C5  UNL     1      20.857 -24.069   7.236  1.00  0.00     0.107 A 
HETATM    5  N5  UNL     1      20.065 -23.719   6.218  1.00  0.00    -0.351 N 
ATOM      6  H5  UNL     1      19.481 -22.886   6.294  1.00  0.00     0.166 HD
HETATM    7  C10 UNL     1      20.034 -24.466   5.084  1.00  0.00     0.115 A 
ENDROOT
BRANCH   1   8
HETATM    8  S1  UNL     1      20.739 -26.540   3.453  1.00  0.00     0.265 S 
HETATM    9  O1  UNL     1      19.389 -26.406   2.828  1.00  0.00    -0.200 OA
HETATM   10  O2  UNL     1      20.881 -28.021   3.794  1.00  0.00    -0.200 OA
BRANCH   8  11
HETATM   11  N2  UNL     1      21.931 -26.062   2.327  1.00  0.00    -0.269 N 
ATOM     12  H2  UNL     1      22.690 -26.702   2.095  1.00  0.00     0.180 HD
BRANCH  11  13
HETATM   13  C1  UNL     1      21.878 -24.793   1.713  1.00  0.00     0.093 C 
HETATM   14  N1  UNL     1      20.757 -24.212   1.517  1.00  0.00    -0.388 N 
ATOM     15  H12 UNL     1      19.922 -24.706   1.830  1.00  0.00     0.157 HD
ATOM     16  H11 UNL     1      20.719 -23.295   1.073  1.00  0.00     0.157 HD
BRANCH  13  17
HETATM   17  C11 UNL     1      23.099 -24.070   1.256  1.00  0.00     0.091 C 
HETATM   18  C12 UNL     1      23.365 -24.398  -0.149  1.00  0.00    -0.002 C 
HETATM   19  C13 UNL     1      24.629 -24.409  -0.522  1.00  0.00     0.106 C 
HETATM   20  S3  UNL     1      25.576 -24.003   0.898  1.00  0.00     0.166 S 
HETATM   21  O4  UNL     1      25.877 -22.549   0.988  1.00  0.00    -0.223 OA
HETATM   22  O5  UNL     1      26.760 -24.880   1.064  1.00  0.00    -0.223 OA
HETATM   23  C14 UNL     1      24.295 -24.419   2.109  1.00  0.00     0.161 C 
ENDBRANCH  13  17
ENDBRANCH  11  13
ENDBRANCH   8  11
ENDBRANCH   1   8
BRANCH   4  24
HETATM   24  N3  UNL     1      20.936 -23.334   8.447  1.00  0.00    -0.308 N 
HETATM   25  C6  UNL     1      21.558 -22.074   8.478  1.00  0.00     0.274 C 
HETATM   26  O3  UNL     1      22.040 -21.610   7.431  1.00  0.00    -0.266 OA
ATOM     27  H3  UNL     1      20.537 -23.723   9.302  1.00  0.00     0.170 HD
BRANCH  25  28
HETATM   28  C7  UNL     1      21.658 -21.280   9.728  1.00  0.00     0.107 A 
HETATM   29  C8  UNL     1      22.776 -21.201  10.468  1.00  0.00     0.044 A 
HETATM   30  C9  UNL     1      22.710 -20.427  11.595  1.00  0.00     0.070 A 
HETATM   31  S2  UNL     1      21.107 -19.858  11.563  1.00  0.00    -0.026 SA
HETATM   32  N4  UNL     1      20.589 -20.603  10.154  1.00  0.00    -0.322 N 
ATOM     33  H4  UNL     1      19.667 -20.551   9.721  1.00  0.00     0.174 HD
ENDBRANCH  25  28
ENDBRANCH   4  24
TORSDOF 6
ENDMDL
MODEL 4
REMARK VINA RESULT: -7.951251665      2.775      9.587
REMARK  6 active torsions:
REMARK  status: ('A' for Active; 'I' for Inactive)
REMARK    1  A    between atoms: C1_4  and  N2_5 
REMARK    2  A    between atoms: C1_4  and  C11_27 
REMARK    3  A    between atoms: N2_5  and  S1_7 
REMARK    4  A    between atoms: S1_7  and  C2_10 
REMARK    5  A    between atoms: C5_13  and  N3_14 
REMARK       I    between atoms: N3_14  and  C6_16 
REMARK    6  A    between atoms: C6_16  and  C7_18 
ROOT
HETATM    1  C2  UNL     1      21.925 -23.548   8.734  1.00  0.00     0.095 A 
HETATM    2  C3  UNL     1      21.692 -24.906   8.749  1.00  0.00     0.030 A 
HETATM    3  C4  UNL     1      21.657 -25.548   7.530  1.00  0.00     0.050 A 
HETATM    4  C5  UNL     1      21.844 -24.885   6.331  1.00  0.00     0.107 A 
HETATM    5  N5  UNL     1      22.068 -23.569   6.351  1.00  0.00    -0.351 N 
ATOM      6  H5  UNL     1      22.208 -23.064   5.476  1.00  0.00     0.166 HD
HETATM    7  C10 UNL     1      22.111 -22.897   7.532  1.00  0.00     0.115 A 
ENDROOT
BRANCH   1   8
HETATM    8  S1  UNL     1      21.989 -22.634  10.247  1.00  0.00     0.265 S 
HETATM    9  O1  UNL     1      23.393 -22.213  10.533  1.00  0.00    -0.200 OA
HETATM   10  O2  UNL     1      21.601 -23.556  11.400  1.00  0.00    -0.200 OA
BRANCH   8  11
HETATM   11  N2  UNL     1      20.984 -21.253  10.213  1.00  0.00    -0.269 N 
ATOM     12  H2  UNL     1      20.137 -21.261   9.645  1.00  0.00     0.180 HD
BRANCH  11  13
HETATM   13  C1  UNL     1      21.311 -20.103  10.960  1.00  0.00     0.093 C 
HETATM   14  N1  UNL     1      20.777 -19.896  12.103  1.00  0.00    -0.388 N 
ATOM     15  H12 UNL     1      20.121 -20.601  12.438  1.00  0.00     0.157 HD
ATOM     16  H11 UNL     1      21.014 -19.064  12.643  1.00  0.00     0.157 HD
BRANCH  13  17
HETATM   17  C11 UNL     1      22.270 -19.072  10.471  1.00  0.00     0.091 C 
HETATM   18  C12 UNL     1      22.466 -18.052  11.507  1.00  0.00    -0.002 C 
HETATM   19  C13 UNL     1      22.714 -16.828  11.089  1.00  0.00     0.106 C 
HETATM   20  S3  UNL     1      22.715 -16.886   9.335  1.00  0.00     0.166 S 
HETATM   21  O4  UNL     1      24.078 -17.085   8.771  1.00  0.00    -0.223 OA
HETATM   22  O5  UNL     1      21.965 -15.761   8.728  1.00  0.00    -0.223 OA
HETATM   23  C14 UNL     1      21.783 -18.431   9.194  1.00  0.00     0.161 C 
ENDBRANCH  13  17
ENDBRANCH  11  13
ENDBRANCH   8  11
ENDBRANCH   1   8
BRANCH   4  24
HETATM   24  N3  UNL     1      21.788 -25.645   5.133  1.00  0.00    -0.308 N 
HETATM   25  C6  UNL     1      20.706 -25.504   4.249  1.00  0.00     0.274 C 
HETATM   26  O3  UNL     1      19.796 -24.704   4.526  1.00  0.00    -0.266 OA
ATOM     27  H3  UNL     1      22.539 -26.299   4.914  1.00  0.00     0.170 HD
BRANCH  25  28
HETATM   28  C7  UNL     1      20.617 -26.283   2.989  1.00  0.00     0.107 A 
HETATM   29  C8  UNL     1      21.594 -27.090   2.547  1.00  0.00     0.044 A 
HETATM   30  C9  UNL     1      21.363 -27.743   1.366  1.00  0.00     0.070 A 
HETATM   31  S2  UNL     1      19.807 -27.199   0.940  1.00  0.00    -0.026 SA
HETATM   32  N4  UNL     1      19.513 -26.188   2.243  1.00  0.00    -0.322 N 
ATOM     33  H4  UNL     1      18.681 -25.628   2.425  1.00  0.00     0.174 HD
ENDBRANCH  25  28
ENDBRANCH   4  24
TORSDOF 6
ENDMDL
MODEL 5
REMARK VINA RESULT: -7.941142897      4.484      7.081
REMARK  6 active torsions:
REMARK  status: ('A' for Active; 'I' for Inactive)
REMARK    1  A    between atoms: C1_4  and  N2_5 
REMARK    2  A    between atoms: C1_4  and  C11_27 
REMARK    3  A    between atoms: N2_5  and  S1_7 
REMARK    4  A    between atoms: S1_7  and  C2_10 
REMARK    5  A    between atoms: C5_13  and  N3_14 
REMARK       I    between atoms: N3_14  and  C6_16 
REMARK    6  A    between atoms: C6_16  and  C7_18 
ROOT
HETATM    1  C2  UNL     1      22.415 -26.915   1.653  1.00  0.00     0.095 A 
HETATM    2  C3  UNL     1      23.189 -27.316   2.720  1.00  0.00     0.030 A 
HETATM    3  C4  UNL     1      23.070 -26.589   3.885  1.00  0.00     0.050 A 
HETATM    4  C5  UNL     1      22.222 -25.503   4.006  1.00  0.00     0.107 A 
HETATM    5  N5  UNL     1      21.486 -25.142   2.952  1.00  0.00    -0.351 N 
ATOM      6  H5  UNL     1      20.855 -24.344   3.024  1.00  0.00     0.166 HD
HETATM    7  C10 UNL     1      21.572 -25.832   1.784  1.00  0.00     0.115 A 
ENDROOT
BRANCH   1   8
HETATM    8  S1  UNL     1      22.496 -27.784   0.113  1.00  0.00     0.265 S 
HETATM    9  O1  UNL     1      21.298 -27.464  -0.719  1.00  0.00    -0.200 OA
HETATM   10  O2  UNL     1      22.410 -29.283   0.386  1.00  0.00    -0.200 OA
BRANCH   8  11
HETATM   11  N2  UNL     1      23.910 -27.409  -0.769  1.00  0.00    -0.269 N 
ATOM     12  H2  UNL     1      24.363 -28.135  -1.326  1.00  0.00     0.180 HD
BRANCH  11  13
HETATM   13  C1  UNL     1      24.459 -26.111  -0.738  1.00  0.00     0.093 C 
HETATM   14  N1  UNL     1      23.982 -25.186  -1.479  1.00  0.00    -0.388 N 
ATOM     15  H12 UNL     1      23.193 -25.435  -2.076  1.00  0.00     0.157 HD
ATOM     16  H11 UNL     1      24.379 -24.247  -1.456  1.00  0.00     0.157 HD
BRANCH  13  17
HETATM   17  C11 UNL     1      25.612 -25.746   0.134  1.00  0.00     0.091 C 
HETATM   18  C12 UNL     1      25.277 -24.551   0.915  1.00  0.00    -0.002 C 
HETATM   19  C13 UNL     1      26.274 -23.744   1.214  1.00  0.00     0.106 C 
HETATM   20  S3  UNL     1      27.720 -24.452   0.517  1.00  0.00     0.166 S 
HETATM   21  O4  UNL     1      28.457 -25.313   1.482  1.00  0.00    -0.223 OA
HETATM   22  O5  UNL     1      28.568 -23.453  -0.176  1.00  0.00    -0.223 OA
HETATM   23  C14 UNL     1      26.861 -25.506  -0.679  1.00  0.00     0.161 C 
ENDBRANCH  13  17
ENDBRANCH  11  13
ENDBRANCH   8  11
ENDBRANCH   1   8
BRANCH   4  24
HETATM   24  N3  UNL     1      22.178 -24.827   5.253  1.00  0.00    -0.308 N 
HETATM   25  C6  UNL     1      21.017 -24.859   6.042  1.00  0.00     0.274 C 
HETATM   26  O3  UNL     1      20.025 -25.488   5.636  1.00  0.00    -0.266 OA
ATOM     27  H3  UNL     1      22.998 -24.313   5.578  1.00  0.00     0.170 HD
BRANCH  25  28
HETATM   28  C7  UNL     1      20.938 -24.162   7.350  1.00  0.00     0.107 A 
HETATM   29  C8  UNL     1      20.287 -23.002   7.533  1.00  0.00     0.044 A 
HETATM   30  C9  UNL     1      20.305 -22.483   8.800  1.00  0.00     0.070 A 
HETATM   31  S2  UNL     1      21.222 -23.632   9.659  1.00  0.00    -0.026 SA
HETATM   32  N4  UNL     1      21.542 -24.703   8.411  1.00  0.00    -0.322 N 
ATOM     33  H4  UNL     1      22.076 -25.571   8.453  1.00  0.00     0.174 HD
ENDBRANCH  25  28
ENDBRANCH   4  24
TORSDOF 6
ENDMDL
