MODEL 1
REMARK VINA RESULT: -8.430848760      0.000      0.000
REMARK  7 active torsions:
REMARK  status: ('A' for Active; 'I' for Inactive)
REMARK    1  A    between atoms: O1_2  and  C2_3 
REMARK    2  A    between atoms: C2_3  and  C3_5 
REMARK    3  A    between atoms: C8_10  and  N1_11 
REMARK       I    between atoms: N1_11  and  C9_13 
REMARK    4  A    between atoms: C9_13  and  C10_15 
REMARK       I    between atoms: C10_15  and  N2_17 
REMARK    5  A    between atoms: N2_17  and  C11_19 
REMARK    6  A    between atoms: C13_21  and  N3_22 
REMARK    7  A    between atoms: C15_26  and  S1_27 
ROOT
HETATM    1  C10 UNL     1      21.807 -23.419   7.504  1.00  0.00     0.314 C 
HETATM    2  O4  UNL     1      22.748 -23.218   6.723  1.00  0.00    -0.262 OA
HETATM    3  N2  UNL     1      20.980 -24.539   7.401  1.00  0.00    -0.319 N 
ATOM      4  H2  UNL     1      20.220 -24.637   8.074  1.00  0.00     0.169 HD
ENDROOT
BRANCH   1   5
HETATM    5  C9  UNL     1      21.535 -22.432   8.604  1.00  0.00     0.314 C 
HETATM    6  N1  UNL     1      22.579 -21.553   8.922  1.00  0.00    -0.318 N 
ATOM      7  H1  UNL     1      23.441 -21.644   8.384  1.00  0.00     0.169 HD
HETATM    8  O3  UNL     1      20.400 -22.523   9.099  1.00  0.00    -0.262 OA
BRANCH   6   9
HETATM    9  C8  UNL     1      22.549 -20.553   9.919  1.00  0.00     0.051 A 
HETATM   10  C3  UNL     1      22.350 -19.218   9.553  1.00  0.00     0.066 A 
HETATM   11  C4  UNL     1      22.380 -18.275  10.581  1.00  0.00     0.020 A 
HETATM   12  C5  UNL     1      22.587 -18.587  11.897  1.00  0.00     0.001 A 
HETATM   13  C6  UNL     1      22.782 -19.893  12.258  1.00  0.00     0.002 A 
HETATM   14  C7  UNL     1      22.758 -20.844  11.264  1.00  0.00     0.030 A 
BRANCH  10  15
HETATM   15  C2  UNL     1      22.086 -18.745   8.211  1.00  0.00     0.295 C 
HETATM   16  O2  UNL     1      21.234 -19.137   7.397  1.00  0.00    -0.259 OA
BRANCH  15  17
HETATM   17  O1  UNL     1      22.886 -17.694   7.717  1.00  0.00    -0.322 OA
HETATM   18  C1  UNL     1      24.140 -17.923   7.113  1.00  0.00     0.213 C 
ENDBRANCH  15  17
ENDBRANCH  10  15
ENDBRANCH   6   9
ENDBRANCH   1   5
BRANCH   3  19
HETATM   19  C11 UNL     1      21.132 -25.541   6.423  1.00  0.00     0.039 A 
HETATM   20  C12 UNL     1      20.648 -25.511   5.143  1.00  0.00     0.065 A 
HETATM   21  C13 UNL     1      20.819 -26.560   4.247  1.00  0.00     0.106 A 
HETATM   22  C14 UNL     1      21.507 -27.668   4.685  1.00  0.00     0.062 A 
HETATM   23  C15 UNL     1      21.992 -27.708   5.956  1.00  0.00     0.085 A 
HETATM   24  C16 UNL     1      21.836 -26.689   6.856  1.00  0.00     0.056 A 
BRANCH  21  25
HETATM   25  N3  UNL     1      20.306 -26.500   2.926  1.00  0.00    -0.116 N 
HETATM   26  O5  UNL     1      20.964 -25.969   2.027  1.00  0.00    -0.532 OA
HETATM   27  O6  UNL     1      19.084 -27.030   2.640  1.00  0.00    -0.532 OA
ENDBRANCH  21  25
BRANCH  23  28
HETATM   28  S1  UNL     1      22.866 -29.144   6.478  1.00  0.00     0.137 S 
HETATM   29  O7  UNL     1      22.168 -30.368   5.925  1.00  0.00    -0.591 OA
HETATM   30  O8  UNL     1      22.924 -29.231   7.978  1.00  0.00    -0.591 OA
HETATM   31  O9  UNL     1      24.405 -29.051   5.805  1.00  0.00    -0.591 OA
ENDBRANCH  23  28
ENDBRANCH   3  19
TORSDOF 7
ENDMDL
MODEL 2
REMARK VINA RESULT: -8.269929932      5.418      9.089
REMARK  7 active torsions:
REMARK  status: ('A' for Active; 'I' for Inactive)
REMARK    1  A    between atoms: O1_2  and  C2_3 
REMARK    2  A    between atoms: C2_3  and  C3_5 
REMARK    3  A    between atoms: C8_10  and  N1_11 
REMARK       I    between atoms: N1_11  and  C9_13 
REMARK    4  A    between atoms: C9_13  and  C10_15 
REMARK       I    between atoms: C10_15  and  N2_17 
REMARK    5  A    between atoms: N2_17  and  C11_19 
REMARK    6  A    between atoms: C13_21  and  N3_22 
REMARK    7  A    between atoms: C15_26  and  S1_27 
ROOT
HETATM    1  C10 UNL     1      22.005 -22.810  11.272  1.00  0.00     0.314 C 
HETATM    2  O4  UNL     1      23.065 -22.903  10.635  1.00  0.00    -0.262 OA
HETATM    3  N2  UNL     1      21.291 -21.614  11.360  1.00  0.00    -0.319 N 
ATOM      4  H2  UNL     1      20.430 -21.609  11.907  1.00  0.00     0.169 HD
ENDROOT
BRANCH   1   5
HETATM    5  C9  UNL     1      21.460 -24.020  11.979  1.00  0.00     0.314 C 
HETATM    6  N1  UNL     1      20.175 -23.894  12.524  1.00  0.00    -0.318 N 
ATOM      7  H1  UNL     1      19.704 -22.998  12.399  1.00  0.00     0.169 HD
HETATM    8  O3  UNL     1      22.231 -24.992  11.989  1.00  0.00    -0.262 OA
BRANCH   6   9
HETATM    9  C8  UNL     1      19.471 -24.894  13.231  1.00  0.00     0.051 A 
HETATM   10  C3  UNL     1      18.982 -24.622  14.511  1.00  0.00     0.066 A 
HETATM   11  C4  UNL     1      18.339 -25.667  15.173  1.00  0.00     0.020 A 
HETATM   12  C5  UNL     1      18.167 -26.916  14.641  1.00  0.00     0.001 A 
HETATM   13  C6  UNL     1      18.644 -27.186  13.387  1.00  0.00     0.002 A 
HETATM   14  C7  UNL     1      19.284 -26.173  12.711  1.00  0.00     0.030 A 
BRANCH  10  15
HETATM   15  C2  UNL     1      19.061 -23.344  15.186  1.00  0.00     0.295 C 
HETATM   16  O2  UNL     1      20.037 -22.586  15.316  1.00  0.00    -0.259 OA
BRANCH  15  17
HETATM   17  O1  UNL     1      17.889 -22.851  15.795  1.00  0.00    -0.322 OA
HETATM   18  C1  UNL     1      17.582 -21.474  15.833  1.00  0.00     0.213 C 
ENDBRANCH  15  17
ENDBRANCH  10  15
ENDBRANCH   6   9
ENDBRANCH   1   5
BRANCH   3  19
HETATM   19  C11 UNL     1      21.688 -20.414  10.739  1.00  0.00     0.039 A 
HETATM   20  C12 UNL     1      22.017 -19.242  11.366  1.00  0.00     0.065 A 
HETATM   21  C13 UNL     1      22.372 -18.090  10.674  1.00  0.00     0.106 A 
HETATM   22  C14 UNL     1      22.387 -18.150   9.300  1.00  0.00     0.062 A 
HETATM   23  C15 UNL     1      22.062 -19.311   8.667  1.00  0.00     0.085 A 
HETATM   24  C16 UNL     1      21.710 -20.457   9.326  1.00  0.00     0.056 A 
BRANCH  21  25
HETATM   25  N3  UNL     1      22.707 -16.890  11.350  1.00  0.00    -0.116 N 
HETATM   26  O5  UNL     1      23.003 -16.913  12.549  1.00  0.00    -0.532 OA
HETATM   27  O6  UNL     1      22.706 -15.702  10.682  1.00  0.00    -0.532 OA
ENDBRANCH  21  25
BRANCH  23  28
HETATM   28  S1  UNL     1      22.094 -19.346   6.907  1.00  0.00     0.137 S 
HETATM   29  O7  UNL     1      23.135 -20.349   6.457  1.00  0.00    -0.591 OA
HETATM   30  O8  UNL     1      22.421 -17.992   6.341  1.00  0.00    -0.591 OA
HETATM   31  O9  UNL     1      20.579 -19.876   6.401  1.00  0.00    -0.591 OA
ENDBRANCH  23  28
ENDBRANCH   3  19
TORSDOF 7
ENDMDL
MODEL 3
REMARK VINA RESULT: -8.267773782      2.066      3.250
REMARK  7 active torsions:
REMARK  status: ('A' for Active; 'I' for Inactive)
REMARK    1  A    between atoms: O1_2  and  C2_3 
REMARK    2  A    between atoms: C2_3  and  C3_5 
REMARK    3  A    between atoms: C8_10  and  N1_11 
REMARK       I    between atoms: N1_11  and  C9_13 
REMARK    4  A    between atoms: C9_13  and  C10_15 
REMARK       I    between atoms: C10_15  and  N2_17 
REMARK    5  A    between atoms: N2_17  and  C11_19 
REMARK    6  A    between atoms: C13_21  and  N3_22 
REMARK    7  A    between atoms: C15_26  and  S1_27 
ROOT
HETATM    1  C10 UNL     1      21.606 -24.586   7.293  1.00  0.00     0.314 C 
HETATM    2  O4  UNL     1      22.181 -24.447   6.203  1.00  0.00    -0.262 OA
HETATM    3  N2  UNL     1      21.181 -25.832   7.757  1.00  0.00    -0.319 N 
ATOM      4  H2  UNL     1      20.709 -25.871   8.660  1.00  0.00     0.169 HD
ENDROOT
BRANCH   1   5
HETATM    5  C9  UNL     1      21.353 -23.380   8.155  1.00  0.00     0.314 C 
HETATM    6  N1  UNL     1      22.485 -22.676   8.587  1.00  0.00    -0.318 N 
ATOM      7  H1  UNL     1      23.393 -23.029   8.283  1.00  0.00     0.169 HD
HETATM    8  O3  UNL     1      20.152 -23.159   8.377  1.00  0.00    -0.262 OA
BRANCH   6   9
HETATM    9  C8  UNL     1      22.485 -21.524   9.403  1.00  0.00     0.051 A 
HETATM   10  C3  UNL     1      22.171 -20.282   8.846  1.00  0.00     0.066 A 
HETATM   11  C4  UNL     1      22.237 -19.178   9.695  1.00  0.00     0.020 A 
HETATM   12  C5  UNL     1      22.585 -19.252  11.017  1.00  0.00     0.001 A 
HETATM   13  C6  UNL     1      22.893 -20.467  11.566  1.00  0.00     0.002 A 
HETATM   14  C7  UNL     1      22.837 -21.574  10.750  1.00  0.00     0.030 A 
BRANCH  10  15
HETATM   15  C2  UNL     1      21.754 -20.056   7.478  1.00  0.00     0.295 C 
HETATM   16  O2  UNL     1      20.610 -19.883   7.027  1.00  0.00    -0.259 OA
BRANCH  15  17
HETATM   17  O1  UNL     1      22.755 -20.020   6.486  1.00  0.00    -0.322 OA
HETATM   18  C1  UNL     1      23.271 -18.808   5.980  1.00  0.00     0.213 C 
ENDBRANCH  15  17
ENDBRANCH  10  15
ENDBRANCH   6   9
ENDBRANCH   1   5
BRANCH   3  19
HETATM   19  C11 UNL     1      21.364 -27.038   7.053  1.00  0.00     0.039 A 
HETATM   20  C12 UNL     1      22.530 -27.745   6.937  1.00  0.00     0.065 A 
HETATM   21  C13 UNL     1      22.632 -28.917   6.197  1.00  0.00     0.106 A 
HETATM   22  C14 UNL     1      21.500 -29.369   5.559  1.00  0.00     0.062 A 
HETATM   23  C15 UNL     1      20.335 -28.673   5.668  1.00  0.00     0.085 A 
HETATM   24  C16 UNL     1      20.211 -27.518   6.390  1.00  0.00     0.056 A 
BRANCH  21  25
HETATM   25  N3  UNL     1      23.855 -29.629   6.095  1.00  0.00    -0.116 N 
HETATM   26  O5  UNL     1      24.722 -29.264   5.295  1.00  0.00    -0.532 OA
HETATM   27  O6  UNL     1      24.082 -30.719   6.880  1.00  0.00    -0.532 OA
ENDBRANCH  21  25
BRANCH  23  28
HETATM   28  S1  UNL     1      18.910 -29.286   4.836  1.00  0.00     0.137 S 
HETATM   29  O7  UNL     1      19.097 -30.764   4.571  1.00  0.00    -0.591 OA
HETATM   30  O8  UNL     1      18.687 -28.564   3.535  1.00  0.00    -0.591 OA
HETATM   31  O9  UNL     1      17.609 -29.085   5.884  1.00  0.00    -0.591 OA
ENDBRANCH  23  28
ENDBRANCH   3  19
TORSDOF 7
ENDMDL
MODEL 4
REMARK VINA RESULT: -8.253203305      2.466      3.911
REMARK  7 active torsions:
REMARK  status: ('A' for Active; 'I' for Inactive)
REMARK    1  A    between atoms: O1_2  and  C2_3 
REMARK    2  A    between atoms: C2_3  and  C3_5 
REMARK    3  A    between atoms: C8_10  and  N1_11 
REMARK       I    between atoms: N1_11  and  C9_13 
REMARK    4  A    between atoms: C9_13  and  C10_15 
REMARK       I    between atoms: C10_15  and  N2_17 
REMARK    5  A    between atoms: N2_17  and  C11_19 
REMARK    6  A    between atoms: C13_21  and  N3_22 
REMARK    7  A    between atoms: C15_26  and  S1_27 
ROOT
HETATM    1  C10 UNL     1      20.630 -21.815   8.962  1.00  0.00     0.314 C 
HETATM    2  O4  UNL     1      19.502 -22.331   8.972  1.00  0.00    -0.262 OA
HETATM    3  N2  UNL     1      21.781 -22.549   8.671  1.00  0.00    -0.319 N 
ATOM      4  H2  UNL     1      22.676 -22.061   8.687  1.00  0.00     0.169 HD
ENDROOT
BRANCH   1   5
HETATM    5  C9  UNL     1      20.776 -20.351   9.271  1.00  0.00     0.314 C 
HETATM    6  N1  UNL     1      21.979 -19.960   9.872  1.00  0.00    -0.318 N 
ATOM      7  H1  UNL     1      22.666 -20.692  10.052  1.00  0.00     0.169 HD
HETATM    8  O3  UNL     1      19.794 -19.664   8.947  1.00  0.00    -0.262 OA
BRANCH   6   9
HETATM    9  C8  UNL     1      22.329 -18.646  10.253  1.00  0.00     0.051 A 
HETATM   10  C3  UNL     1      22.723 -17.725   9.277  1.00  0.00     0.066 A 
HETATM   11  C4  UNL     1      23.102 -16.460   9.725  1.00  0.00     0.020 A 
HETATM   12  C5  UNL     1      23.105 -16.086  11.042  1.00  0.00     0.001 A 
HETATM   13  C6  UNL     1      22.719 -16.985  11.999  1.00  0.00     0.002 A 
HETATM   14  C7  UNL     1      22.341 -18.242  11.585  1.00  0.00     0.030 A 
BRANCH  10  15
HETATM   15  C2  UNL     1      22.738 -17.968   7.851  1.00  0.00     0.295 C 
HETATM   16  O2  UNL     1      22.107 -17.388   6.952  1.00  0.00    -0.259 OA
BRANCH  15  17
HETATM   17  O1  UNL     1      23.571 -18.998   7.369  1.00  0.00    -0.322 OA
HETATM   18  C1  UNL     1      23.140 -19.919   6.390  1.00  0.00     0.213 C 
ENDBRANCH  15  17
ENDBRANCH  10  15
ENDBRANCH   6   9
ENDBRANCH   1   5
BRANCH   3  19
HETATM   19  C11 UNL     1      21.780 -23.922   8.357  1.00  0.00     0.039 A 
HETATM   20  C12 UNL     1      21.909 -24.960   9.240  1.00  0.00     0.065 A 
HETATM   21  C13 UNL     1      21.927 -26.291   8.842  1.00  0.00     0.106 A 
HETATM   22  C14 UNL     1      21.809 -26.557   7.497  1.00  0.00     0.062 A 
HETATM   23  C15 UNL     1      21.679 -25.532   6.611  1.00  0.00     0.085 A 
HETATM   24  C16 UNL     1      21.659 -24.214   6.979  1.00  0.00     0.056 A 
BRANCH  21  25
HETATM   25  N3  UNL     1      22.063 -27.346   9.780  1.00  0.00    -0.116 N 
HETATM   26  O5  UNL     1      22.522 -28.437   9.427  1.00  0.00    -0.532 OA
HETATM   27  O6  UNL     1      21.688 -27.164  11.077  1.00  0.00    -0.532 OA
ENDBRANCH  21  25
BRANCH  23  28
HETATM   28  S1  UNL     1      21.531 -25.915   4.899  1.00  0.00     0.137 S 
HETATM   29  O7  UNL     1      21.342 -27.408   4.747  1.00  0.00    -0.591 OA
HETATM   30  O8  UNL     1      22.752 -25.480   4.136  1.00  0.00    -0.591 OA
HETATM   31  O9  UNL     1      20.147 -25.136   4.343  1.00  0.00    -0.591 OA
ENDBRANCH  23  28
ENDBRANCH   3  19
TORSDOF 7
ENDMDL
MODEL 5
REMARK VINA RESULT: -8.172068903      3.363      8.603
REMARK  7 active torsions:
REMARK  status: ('A' for Active; 'I' for Inactive)
REMARK    1  A    between atoms: O1_2  and  C2_3 
REMARK    2  A    between atoms: C2_3  and  C3_5 
REMARK    3  A    between atoms: C8_10  and  N1_11 
REMARK       I    between atoms: N1_11  and  C9_13 
REMARK    4  A    between atoms: C9_13  and  C10_15 
REMARK       I    between atoms: C10_15  and  N2_17 
REMARK    5  A    between atoms: N2_17  and  C11_19 
REMARK    6  A    between atoms: C13_21  and  N3_22 
REMARK    7  A    between atoms: C15_26  and  S1_27 
ROOT
HETATM    1  C10 UNL     1      21.286 -23.567   6.835  1.00  0.00     0.314 C 
HETATM    2  O4  UNL     1      20.171 -23.293   7.302  1.00  0.00    -0.262 OA
HETATM    3  N2  UNL     1      22.389 -22.727   7.000  1.00  0.00    -0.319 N 
ATOM      4  H2  UNL     1      23.275 -23.013   6.583  1.00  0.00     0.169 HD
ENDROOT
BRANCH   1   5
HETATM    5  C9  UNL     1      21.471 -24.844   6.064  1.00  0.00     0.314 C 
HETATM    6  N1  UNL     1      22.500 -24.852   5.113  1.00  0.00    -0.318 N 
ATOM      7  H1  UNL     1      23.048 -23.998   5.016  1.00  0.00     0.169 HD
HETATM    8  O3  UNL     1      20.674 -25.744   6.375  1.00  0.00    -0.262 OA
BRANCH   6   9
HETATM    9  C8  UNL     1      22.848 -25.935   4.275  1.00  0.00     0.051 A 
HETATM   10  C3  UNL     1      23.462 -25.687   3.044  1.00  0.00     0.066 A 
HETATM   11  C4  UNL     1      23.735 -26.796   2.245  1.00  0.00     0.020 A 
HETATM   12  C5  UNL     1      23.440 -28.085   2.600  1.00  0.00     0.001 A 
HETATM   13  C6  UNL     1      22.839 -28.331   3.805  1.00  0.00     0.002 A 
HETATM   14  C7  UNL     1      22.557 -27.254   4.614  1.00  0.00     0.030 A 
BRANCH  10  15
HETATM   15  C2  UNL     1      23.862 -24.386   2.552  1.00  0.00     0.295 C 
HETATM   16  O2  UNL     1      24.527 -23.505   3.121  1.00  0.00    -0.259 OA
BRANCH  15  17
HETATM   17  O1  UNL     1      23.461 -24.026   1.249  1.00  0.00    -0.322 OA
HETATM   18  C1  UNL     1      24.375 -23.550   0.286  1.00  0.00     0.213 C 
ENDBRANCH  15  17
ENDBRANCH  10  15
ENDBRANCH   6   9
ENDBRANCH   1   5
BRANCH   3  19
HETATM   19  C11 UNL     1      22.352 -21.509   7.706  1.00  0.00     0.039 A 
HETATM   20  C12 UNL     1      22.433 -20.253   7.170  1.00  0.00     0.065 A 
HETATM   21  C13 UNL     1      22.416 -19.099   7.944  1.00  0.00     0.106 A 
HETATM   22  C14 UNL     1      22.315 -19.247   9.308  1.00  0.00     0.062 A 
HETATM   23  C15 UNL     1      22.233 -20.493   9.852  1.00  0.00     0.085 A 
HETATM   24  C16 UNL     1      22.247 -21.642   9.110  1.00  0.00     0.056 A 
BRANCH  21  25
HETATM   25  N3  UNL     1      22.503 -17.810   7.360  1.00  0.00    -0.116 N 
HETATM   26  O5  UNL     1      22.452 -16.801   8.069  1.00  0.00    -0.532 OA
HETATM   27  O6  UNL     1      22.644 -17.676   6.011  1.00  0.00    -0.532 OA
ENDBRANCH  21  25
BRANCH  23  28
HETATM   28  S1  UNL     1      22.104 -20.639  11.601  1.00  0.00     0.137 S 
HETATM   29  O7  UNL     1      23.389 -20.143  12.229  1.00  0.00    -0.591 OA
HETATM   30  O8  UNL     1      21.860 -22.065  12.012  1.00  0.00    -0.591 OA
HETATM   31  O9  UNL     1      20.844 -19.634  12.084  1.00  0.00    -0.591 OA
ENDBRANCH  23  28
ENDBRANCH   3  19
TORSDOF 7
ENDMDL
