MODEL 1
REMARK VINA RESULT: -6.316078639      0.000      0.000
REMARK  15 active torsions:
REMARK  status: ('A' for Active; 'I' for Inactive)
REMARK    1  A    between atoms: C2_2  and  C3_3 
REMARK    2  A    between atoms: C3_3  and  C4_4 
REMARK    3  A    between atoms: C7_7  and  C8_8 
REMARK    4  A    between atoms: C8_8  and  C9_9 
REMARK    5  A    between atoms: C10_12  and  O1_13 
REMARK    6  A    between atoms: C11_15  and  C12_16 
REMARK    7  A    between atoms: C12_16  and  C14_18 
REMARK    8  A    between atoms: C17_24  and  C18_25 
REMARK    9  A    between atoms: C18_25  and  C19_26 
REMARK   10  A    between atoms: C21_30  and  O3_31 
REMARK   11  A    between atoms: C22_33  and  C23_34 
REMARK   12  A    between atoms: C23_34  and  C24_35 
REMARK   13  A    between atoms: C27_40  and  O4_41 
REMARK   14  A    between atoms: C28_43  and  C29_44 
REMARK   15  A    between atoms: C32_49  and  O5_50 
ROOT
HETATM    1  C9  UNL     1      22.418  25.632  19.354  1.00  0.00     0.181 C 
HETATM    2  N1  UNL     1      23.033  24.368  19.170  1.00  0.00    -0.359 N 
ATOM      3  H1  UNL     1      23.103  24.161  18.173  1.00  0.00     0.162 HD
HETATM    4  C10 UNL     1      23.569  23.322  19.900  1.00  0.00     0.135 C 
HETATM    5  C11 UNL     1      24.949  23.018  20.418  1.00  0.00     0.162 C 
HETATM    6  N2  UNL     1      25.837  24.172  20.382  1.00  0.00    -0.347 N 
ATOM      7  H2  UNL     1      25.931  24.580  19.452  1.00  0.00     0.163 HD
HETATM    8  C16 UNL     1      26.576  24.824  21.344  1.00  0.00     0.241 C 
HETATM    9  O2  UNL     1      26.097  25.975  21.701  1.00  0.00    -0.271 OA
HETATM   10  C17 UNL     1      27.822  24.504  22.080  1.00  0.00     0.175 C 
HETATM   11  N3  UNL     1      29.039  24.497  21.333  1.00  0.00    -0.359 N 
ATOM     12  H3  UNL     1      29.212  23.561  20.967  1.00  0.00     0.162 HD
HETATM   13  C21 UNL     1      30.039  25.327  20.952  1.00  0.00     0.135 C 
HETATM   14  C22 UNL     1      30.163  26.623  20.176  1.00  0.00     0.158 C 
HETATM   15  N4  UNL     1      28.878  27.192  19.910  1.00  0.00    -0.361 N 
ATOM     16  H4  UNL     1      28.390  27.366  20.789  1.00  0.00     0.162 HD
HETATM   17  C27 UNL     1      28.093  27.577  18.862  1.00  0.00     0.135 C 
HETATM   18  C28 UNL     1      27.785  28.830  18.132  1.00  0.00     0.161 C 
HETATM   19  N5  UNL     1      26.382  29.184  18.131  1.00  0.00    -0.357 N 
ATOM     20  H5  UNL     1      26.111  29.800  18.898  1.00  0.00     0.162 HD
HETATM   21  C32 UNL     1      25.321  28.841  17.277  1.00  0.00     0.159 C 
HETATM   22  C33 UNL     1      24.605  27.573  17.119  1.00  0.00     0.059 C 
HETATM   23  C34 UNL     1      24.681  26.972  15.722  1.00  0.00     0.072 C 
HETATM   24  N6  UNL     1      23.937  26.927  17.946  1.00  0.00    -0.325 N 
ATOM     25  H6  UNL     1      23.613  26.108  17.430  1.00  0.00     0.168 HD
HETATM   26  C35 UNL     1      23.430  26.772  19.179  1.00  0.00     0.245 C 
HETATM   27  O6  UNL     1      23.602  27.381  20.285  1.00  0.00    -0.271 OA
ENDROOT
BRANCH   1  28
HETATM   28  C8  UNL     1      21.629  25.837  20.590  1.00  0.00     0.091 C 
BRANCH  28  29
HETATM   29  C7  UNL     1      20.407  25.014  20.688  1.00  0.00     0.011 A 
HETATM   30  C6  UNL     1      19.943  24.320  21.776  1.00  0.00     0.027 A 
HETATM   31  C5  UNL     1      18.774  23.694  21.417  1.00  0.00     0.027 A 
HETATM   32  C4  UNL     1      18.530  24.015  20.100  1.00  0.00     0.012 A 
HETATM   33  N7  UNL     1      19.521  24.804  19.689  1.00  0.00    -0.363 N 
ATOM     34  H7  UNL     1      19.600  25.195  18.750  1.00  0.00     0.165 HD
BRANCH  32  35
HETATM   35  C3  UNL     1      17.339  23.524  19.347  1.00  0.00     0.083 C 
BRANCH  35  36
HETATM   36  C2  UNL     1      17.250  22.040  19.557  1.00  0.00    -0.031 C 
HETATM   37  C1  UNL     1      16.119  21.451  19.914  1.00  0.00     0.007 C 
ENDBRANCH  35  36
ENDBRANCH  32  35
ENDBRANCH  28  29
ENDBRANCH   1  28
BRANCH   4  38
HETATM   38  O1  UNL     1      22.784  22.325  20.263  1.00  0.00    -0.348 OA
ATOM     39  H1  UNL     1      23.174  21.489  20.491  1.00  0.00     0.219 HD
ENDBRANCH   4  38
BRANCH   5  40
HETATM   40  C12 UNL     1      25.603  21.970  19.534  1.00  0.00     0.012 C 
HETATM   41  C13 UNL     1      26.567  22.575  18.561  1.00  0.00     0.012 C 
BRANCH  40  42
HETATM   42  C14 UNL     1      26.249  20.825  20.218  1.00  0.00     0.002 C 
HETATM   43  C15 UNL     1      26.223  19.657  19.246  1.00  0.00     0.005 C 
ENDBRANCH  40  42
ENDBRANCH   5  40
BRANCH  21  44
HETATM   44  O5  UNL     1      24.868  29.768  16.484  1.00  0.00    -0.345 OA
ATOM     45  H5  UNL     1      23.980  29.671  16.163  1.00  0.00     0.219 HD
ENDBRANCH  21  44
BRANCH  10  46
HETATM   46  C18 UNL     1      27.845  25.318  23.360  1.00  0.00     0.034 C 
BRANCH  46  47
HETATM   47  C19 UNL     1      27.999  24.503  24.605  1.00  0.00    -0.002 C 
HETATM   48  C20 UNL     1      26.636  23.967  25.032  1.00  0.00     0.005 C 
ENDBRANCH  46  47
ENDBRANCH  10  46
BRANCH  18  49
HETATM   49  C29 UNL     1      28.576  30.043  18.556  1.00  0.00     0.008 C 
HETATM   50  C30 UNL     1      27.992  31.355  18.144  1.00  0.00     0.012 C 
HETATM   51  C31 UNL     1      29.917  29.941  17.796  1.00  0.00     0.012 C 
ENDBRANCH  18  49
BRANCH  17  52
HETATM   52  O4  UNL     1      27.378  26.638  18.290  1.00  0.00    -0.348 OA
ATOM     53  H4  UNL     1      27.212  26.738  17.359  1.00  0.00     0.219 HD
ENDBRANCH  17  52
BRANCH  13  54
HETATM   54  O3  UNL     1      31.251  24.991  21.301  1.00  0.00    -0.348 OA
ATOM     55  H3  UNL     1      31.853  24.764  20.602  1.00  0.00     0.219 HD
ENDBRANCH  13  54
BRANCH  14  56
HETATM   56  C23 UNL     1      31.092  26.388  19.037  1.00  0.00     0.037 C 
BRANCH  56  57
HETATM   57  C24 UNL     1      30.732  25.453  17.969  1.00  0.00    -0.020 C 
HETATM   58  C25 UNL     1      31.943  24.488  17.821  1.00  0.00     0.009 C 
HETATM   59  C26 UNL     1      30.610  26.115  16.603  1.00  0.00     0.009 C 
ENDBRANCH  56  57
ENDBRANCH  14  56
TORSDOF 15
ENDMDL
MODEL 2
REMARK VINA RESULT: -6.087074506      2.620      8.761
REMARK  15 active torsions:
REMARK  status: ('A' for Active; 'I' for Inactive)
REMARK    1  A    between atoms: C2_2  and  C3_3 
REMARK    2  A    between atoms: C3_3  and  C4_4 
REMARK    3  A    between atoms: C7_7  and  C8_8 
REMARK    4  A    between atoms: C8_8  and  C9_9 
REMARK    5  A    between atoms: C10_12  and  O1_13 
REMARK    6  A    between atoms: C11_15  and  C12_16 
REMARK    7  A    between atoms: C12_16  and  C14_18 
REMARK    8  A    between atoms: C17_24  and  C18_25 
REMARK    9  A    between atoms: C18_25  and  C19_26 
REMARK   10  A    between atoms: C21_30  and  O3_31 
REMARK   11  A    between atoms: C22_33  and  C23_34 
REMARK   12  A    between atoms: C23_34  and  C24_35 
REMARK   13  A    between atoms: C27_40  and  O4_41 
REMARK   14  A    between atoms: C28_43  and  C29_44 
REMARK   15  A    between atoms: C32_49  and  O5_50 
ROOT
HETATM    1  C9  UNL     1      29.698  26.505  16.737  1.00  0.00     0.181 C 
HETATM    2  N1  UNL     1      29.972  26.303  18.114  1.00  0.00    -0.359 N 
ATOM      3  H1  UNL     1      30.010  27.203  18.592  1.00  0.00     0.162 HD
HETATM    4  C10 UNL     1      30.205  25.284  19.021  1.00  0.00     0.135 C 
HETATM    5  C11 UNL     1      29.310  24.456  19.903  1.00  0.00     0.162 C 
HETATM    6  N2  UNL     1      27.903  24.553  19.539  1.00  0.00    -0.347 N 
ATOM      7  H2  UNL     1      27.551  25.510  19.540  1.00  0.00     0.163 HD
HETATM    8  C16 UNL     1      26.951  23.620  19.193  1.00  0.00     0.241 C 
HETATM    9  O2  UNL     1      26.645  23.606  17.933  1.00  0.00    -0.271 OA
HETATM   10  C17 UNL     1      26.180  22.606  19.950  1.00  0.00     0.175 C 
HETATM   11  N3  UNL     1      25.194  23.083  20.866  1.00  0.00    -0.359 N 
ATOM     12  H3  UNL     1      25.613  23.209  21.787  1.00  0.00     0.162 HD
HETATM   13  C21 UNL     1      23.884  23.424  20.911  1.00  0.00     0.135 C 
HETATM   14  C22 UNL     1      22.973  24.408  20.205  1.00  0.00     0.158 C 
HETATM   15  N4  UNL     1      23.640  25.030  19.102  1.00  0.00    -0.361 N 
ATOM     16  H4  UNL     1      23.950  24.318  18.441  1.00  0.00     0.162 HD
HETATM   17  C27 UNL     1      23.996  26.267  18.649  1.00  0.00     0.135 C 
HETATM   18  C28 UNL     1      23.456  27.284  17.714  1.00  0.00     0.161 C 
HETATM   19  N5  UNL     1      24.356  27.630  16.635  1.00  0.00    -0.357 N 
ATOM     20  H5  UNL     1      24.221  27.073  15.790  1.00  0.00     0.162 HD
HETATM   21  C32 UNL     1      25.378  28.586  16.527  1.00  0.00     0.159 C 
HETATM   22  C33 UNL     1      26.712  28.619  17.133  1.00  0.00     0.059 C 
HETATM   23  C34 UNL     1      26.971  29.821  18.030  1.00  0.00     0.072 C 
HETATM   24  N6  UNL     1      27.661  27.824  17.012  1.00  0.00    -0.325 N 
ATOM     25  H6  UNL     1      28.399  28.214  17.599  1.00  0.00     0.168 HD
HETATM   26  C35 UNL     1      28.197  26.708  16.493  1.00  0.00     0.245 C 
HETATM   27  O6  UNL     1      27.726  25.738  15.815  1.00  0.00    -0.271 OA
ENDROOT
BRANCH   1  28
HETATM   28  C8  UNL     1      30.240  25.515  15.779  1.00  0.00     0.091 C 
BRANCH  28  29
HETATM   29  C7  UNL     1      30.741  26.087  14.514  1.00  0.00     0.011 A 
HETATM   30  C6  UNL     1      31.575  25.503  13.596  1.00  0.00     0.027 A 
HETATM   31  C5  UNL     1      31.780  26.398  12.573  1.00  0.00     0.027 A 
HETATM   32  C4  UNL     1      31.061  27.531  12.877  1.00  0.00     0.012 A 
HETATM   33  N7  UNL     1      30.451  27.320  14.041  1.00  0.00    -0.363 N 
ATOM     34  H7  UNL     1      29.847  27.995  14.512  1.00  0.00     0.165 HD
BRANCH  32  35
HETATM   35  C3  UNL     1      31.027  28.737  11.998  1.00  0.00     0.083 C 
BRANCH  35  36
HETATM   36  C2  UNL     1      31.642  28.357  10.682  1.00  0.00    -0.031 C 
HETATM   37  C1  UNL     1      31.868  29.250   9.732  1.00  0.00     0.007 C 
ENDBRANCH  35  36
ENDBRANCH  32  35
ENDBRANCH  28  29
ENDBRANCH   1  28
BRANCH   4  38
HETATM   38  O1  UNL     1      31.445  24.885  19.232  1.00  0.00    -0.348 OA
ATOM     39  H1  UNL     1      32.160  25.379  18.849  1.00  0.00     0.219 HD
ENDBRANCH   4  38
BRANCH   5  40
HETATM   40  C12 UNL     1      29.399  24.962  21.333  1.00  0.00     0.012 C 
HETATM   41  C13 UNL     1      28.295  25.920  21.661  1.00  0.00     0.012 C 
BRANCH  40  42
HETATM   42  C14 UNL     1      29.496  23.940  22.400  1.00  0.00     0.002 C 
HETATM   43  C15 UNL     1      29.907  22.639  21.730  1.00  0.00     0.005 C 
ENDBRANCH  40  42
ENDBRANCH   5  40
BRANCH  21  44
HETATM   44  O5  UNL     1      25.150  29.624  15.777  1.00  0.00    -0.345 OA
ATOM     45  H5  UNL     1      25.237  30.481  16.178  1.00  0.00     0.219 HD
ENDBRANCH  21  44
BRANCH  10  46
HETATM   46  C18 UNL     1      25.709  21.539  18.979  1.00  0.00     0.034 C 
BRANCH  46  47
HETATM   47  C19 UNL     1      26.234  20.169  19.268  1.00  0.00    -0.002 C 
HETATM   48  C20 UNL     1      27.308  20.254  20.347  1.00  0.00     0.005 C 
ENDBRANCH  46  47
ENDBRANCH  10  46
BRANCH  18  49
HETATM   49  C29 UNL     1      22.105  26.971  17.120  1.00  0.00     0.008 C 
HETATM   50  C30 UNL     1      21.714  27.821  15.956  1.00  0.00     0.012 C 
HETATM   51  C31 UNL     1      21.085  27.307  18.228  1.00  0.00     0.012 C 
ENDBRANCH  18  49
BRANCH  17  52
HETATM   52  O4  UNL     1      25.116  26.764  19.119  1.00  0.00    -0.348 OA
ATOM     53  H4  UNL     1      25.573  26.241  19.767  1.00  0.00     0.219 HD
ENDBRANCH  17  52
BRANCH  13  54
HETATM   54  O3  UNL     1      23.137  22.783  21.769  1.00  0.00    -0.348 OA
ATOM     55  H3  UNL     1      23.429  21.918  22.032  1.00  0.00     0.219 HD
ENDBRANCH  13  54
BRANCH  14  56
HETATM   56  C23 UNL     1      22.342  25.271  21.239  1.00  0.00     0.037 C 
BRANCH  56  57
HETATM   57  C24 UNL     1      20.918  25.606  21.157  1.00  0.00    -0.020 C 
HETATM   58  C25 UNL     1      20.744  26.927  21.960  1.00  0.00     0.009 C 
HETATM   59  C26 UNL     1      20.022  24.608  21.876  1.00  0.00     0.009 C 
ENDBRANCH  56  57
ENDBRANCH  14  56
TORSDOF 15
ENDMDL
MODEL 3
REMARK VINA RESULT: -6.073196807      2.742      6.840
REMARK  15 active torsions:
REMARK  status: ('A' for Active; 'I' for Inactive)
REMARK    1  A    between atoms: C2_2  and  C3_3 
REMARK    2  A    between atoms: C3_3  and  C4_4 
REMARK    3  A    between atoms: C7_7  and  C8_8 
REMARK    4  A    between atoms: C8_8  and  C9_9 
REMARK    5  A    between atoms: C10_12  and  O1_13 
REMARK    6  A    between atoms: C11_15  and  C12_16 
REMARK    7  A    between atoms: C12_16  and  C14_18 
REMARK    8  A    between atoms: C17_24  and  C18_25 
REMARK    9  A    between atoms: C18_25  and  C19_26 
REMARK   10  A    between atoms: C21_30  and  O3_31 
REMARK   11  A    between atoms: C22_33  and  C23_34 
REMARK   12  A    between atoms: C23_34  and  C24_35 
REMARK   13  A    between atoms: C27_40  and  O4_41 
REMARK   14  A    between atoms: C28_43  and  C29_44 
REMARK   15  A    between atoms: C32_49  and  O5_50 
ROOT
HETATM    1  C9  UNL     1      25.750  22.862  20.289  1.00  0.00     0.181 C 
HETATM    2  N1  UNL     1      24.832  23.802  20.822  1.00  0.00    -0.359 N 
ATOM      3  H1  UNL     1      25.184  24.160  21.710  1.00  0.00     0.162 HD
HETATM    4  C10 UNL     1      23.615  24.393  20.531  1.00  0.00     0.135 C 
HETATM    5  C11 UNL     1      23.219  25.638  19.784  1.00  0.00     0.162 C 
HETATM    6  N2  UNL     1      24.300  26.187  18.977  1.00  0.00    -0.347 N 
ATOM      7  H2  UNL     1      25.140  26.396  19.516  1.00  0.00     0.163 HD
HETATM    8  C16 UNL     1      24.422  26.482  17.638  1.00  0.00     0.241 C 
HETATM    9  O2  UNL     1      25.165  25.655  16.970  1.00  0.00    -0.271 OA
HETATM   10  C17 UNL     1      23.884  27.552  16.766  1.00  0.00     0.175 C 
HETATM   11  N3  UNL     1      24.383  28.875  16.970  1.00  0.00    -0.359 N 
ATOM     12  H3  UNL     1      23.797  29.362  17.648  1.00  0.00     0.162 HD
HETATM   13  C21 UNL     1      25.381  29.693  16.559  1.00  0.00     0.135 C 
HETATM   14  C22 UNL     1      26.896  29.669  16.548  1.00  0.00     0.158 C 
HETATM   15  N4  UNL     1      27.395  28.384  16.932  1.00  0.00    -0.361 N 
ATOM     16  H4  UNL     1      27.038  27.671  16.297  1.00  0.00     0.162 HD
HETATM   17  C27 UNL     1      28.194  27.805  17.875  1.00  0.00     0.135 C 
HETATM   18  C28 UNL     1      29.608  27.375  17.992  1.00  0.00     0.161 C 
HETATM   19  N5  UNL     1      29.775  25.971  18.301  1.00  0.00    -0.357 N 
ATOM     20  H5  UNL     1      29.872  25.376  17.477  1.00  0.00     0.162 HD
HETATM   21  C32 UNL     1      29.830  25.270  19.516  1.00  0.00     0.159 C 
HETATM   22  C33 UNL     1      28.769  24.958  20.477  1.00  0.00     0.059 C 
HETATM   23  C34 UNL     1      28.996  25.519  21.875  1.00  0.00     0.072 C 
HETATM   24  N6  UNL     1      27.727  24.296  20.327  1.00  0.00    -0.325 N 
ATOM     25  H6  UNL     1      27.271  24.325  21.239  1.00  0.00     0.168 HD
HETATM   26  C35 UNL     1      26.904  23.564  19.560  1.00  0.00     0.245 C 
HETATM   27  O6  UNL     1      26.859  23.304  18.314  1.00  0.00    -0.271 OA
ENDROOT
BRANCH   1  28
HETATM   28  C8  UNL     1      25.204  21.773  19.448  1.00  0.00     0.091 C 
BRANCH  28  29
HETATM   29  C7  UNL     1      25.800  20.444  19.691  1.00  0.00     0.011 A 
HETATM   30  C6  UNL     1      27.037  20.157  20.208  1.00  0.00     0.027 A 
HETATM   31  C5  UNL     1      27.174  18.790  20.256  1.00  0.00     0.027 A 
HETATM   32  C4  UNL     1      26.007  18.249  19.765  1.00  0.00     0.012 A 
HETATM   33  N7  UNL     1      25.204  19.258  19.435  1.00  0.00    -0.363 N 
ATOM     34  H7  UNL     1      24.268  19.151  19.043  1.00  0.00     0.165 HD
BRANCH  32  35
HETATM   35  C3  UNL     1      25.769  16.779  19.661  1.00  0.00     0.083 C 
BRANCH  35  36
HETATM   36  C2  UNL     1      24.289  16.551  19.765  1.00  0.00    -0.031 C 
HETATM   37  C1  UNL     1      23.785  15.372  20.094  1.00  0.00     0.007 C 
ENDBRANCH  35  36
ENDBRANCH  32  35
ENDBRANCH  28  29
ENDBRANCH   1  28
BRANCH   4  38
HETATM   38  O1  UNL     1      22.507  23.823  20.963  1.00  0.00    -0.348 OA
ATOM     39  H1  UNL     1      21.890  24.337  21.470  1.00  0.00     0.219 HD
ENDBRANCH   4  38
BRANCH   5  40
HETATM   40  C12 UNL     1      22.853  26.729  20.776  1.00  0.00     0.012 C 
HETATM   41  C13 UNL     1      21.485  27.286  20.522  1.00  0.00     0.012 C 
BRANCH  40  42
HETATM   42  C14 UNL     1      22.990  26.400  22.214  1.00  0.00     0.002 C 
HETATM   43  C15 UNL     1      21.692  26.816  22.888  1.00  0.00     0.005 C 
ENDBRANCH  40  42
ENDBRANCH   5  40
BRANCH  21  44
HETATM   44  O5  UNL     1      30.986  24.802  19.885  1.00  0.00    -0.345 OA
ATOM     45  H5  UNL     1      31.444  25.266  20.577  1.00  0.00     0.219 HD
ENDBRANCH  21  44
BRANCH  10  46
HETATM   46  C18 UNL     1      23.908  27.060  15.331  1.00  0.00     0.034 C 
BRANCH  46  47
HETATM   47  C19 UNL     1      22.573  26.642  14.801  1.00  0.00    -0.002 C 
HETATM   48  C20 UNL     1      21.472  27.316  15.611  1.00  0.00     0.005 C 
ENDBRANCH  46  47
ENDBRANCH  10  46
BRANCH  18  49
HETATM   49  C29 UNL     1      30.490  27.707  16.814  1.00  0.00     0.008 C 
HETATM   50  C30 UNL     1      30.399  26.754  15.668  1.00  0.00     0.012 C 
HETATM   51  C31 UNL     1      31.936  27.574  17.338  1.00  0.00     0.012 C 
ENDBRANCH  18  49
BRANCH  17  52
HETATM   52  O4  UNL     1      27.628  27.510  19.022  1.00  0.00    -0.348 OA
ATOM     53  H4  UNL     1      27.848  26.667  19.400  1.00  0.00     0.219 HD
ENDBRANCH  17  52
BRANCH  13  54
HETATM   54  O3  UNL     1      25.028  30.830  16.021  1.00  0.00    -0.348 OA
ATOM     55  H3  UNL     1      25.720  31.359  15.642  1.00  0.00     0.219 HD
ENDBRANCH  13  54
BRANCH  14  56
HETATM   56  C23 UNL     1      27.379  30.873  17.276  1.00  0.00     0.037 C 
BRANCH  56  57
HETATM   57  C24 UNL     1      27.103  31.034  18.706  1.00  0.00    -0.020 C 
HETATM   58  C25 UNL     1      26.411  32.419  18.854  1.00  0.00     0.009 C 
HETATM   59  C26 UNL     1      28.362  31.151  19.554  1.00  0.00     0.009 C 
ENDBRANCH  56  57
ENDBRANCH  14  56
TORSDOF 15
ENDMDL
MODEL 4
REMARK VINA RESULT: -5.887848986      2.754      6.987
REMARK  15 active torsions:
REMARK  status: ('A' for Active; 'I' for Inactive)
REMARK    1  A    between atoms: C2_2  and  C3_3 
REMARK    2  A    between atoms: C3_3  and  C4_4 
REMARK    3  A    between atoms: C7_7  and  C8_8 
REMARK    4  A    between atoms: C8_8  and  C9_9 
REMARK    5  A    between atoms: C10_12  and  O1_13 
REMARK    6  A    between atoms: C11_15  and  C12_16 
REMARK    7  A    between atoms: C12_16  and  C14_18 
REMARK    8  A    between atoms: C17_24  and  C18_25 
REMARK    9  A    between atoms: C18_25  and  C19_26 
REMARK   10  A    between atoms: C21_30  and  O3_31 
REMARK   11  A    between atoms: C22_33  and  C23_34 
REMARK   12  A    between atoms: C23_34  and  C24_35 
REMARK   13  A    between atoms: C27_40  and  O4_41 
REMARK   14  A    between atoms: C28_43  and  C29_44 
REMARK   15  A    between atoms: C32_49  and  O5_50 
ROOT
HETATM    1  C9  UNL     1      25.685  22.840  20.322  1.00  0.00     0.181 C 
HETATM    2  N1  UNL     1      24.795  23.808  20.853  1.00  0.00    -0.359 N 
ATOM      3  H1  UNL     1      25.161  24.164  21.736  1.00  0.00     0.162 HD
HETATM    4  C10 UNL     1      23.591  24.427  20.565  1.00  0.00     0.135 C 
HETATM    5  C11 UNL     1      23.221  25.675  19.810  1.00  0.00     0.162 C 
HETATM    6  N2  UNL     1      24.310  26.190  18.992  1.00  0.00    -0.347 N 
ATOM      7  H2  UNL     1      25.159  26.382  19.524  1.00  0.00     0.163 HD
HETATM    8  C16 UNL     1      24.430  26.471  17.649  1.00  0.00     0.241 C 
HETATM    9  O2  UNL     1      25.148  25.620  16.984  1.00  0.00    -0.271 OA
HETATM   10  C17 UNL     1      23.914  27.547  16.772  1.00  0.00     0.175 C 
HETATM   11  N3  UNL     1      24.448  28.858  16.962  1.00  0.00    -0.359 N 
ATOM     12  H3  UNL     1      23.878  29.366  17.639  1.00  0.00     0.162 HD
HETATM   13  C21 UNL     1      25.463  29.648  16.538  1.00  0.00     0.135 C 
HETATM   14  C22 UNL     1      26.977  29.585  16.517  1.00  0.00     0.158 C 
HETATM   15  N4  UNL     1      27.446  28.292  16.909  1.00  0.00    -0.361 N 
ATOM     16  H4  UNL     1      27.067  27.583  16.282  1.00  0.00     0.162 HD
HETATM   17  C27 UNL     1      28.236  27.700  17.851  1.00  0.00     0.135 C 
HETATM   18  C28 UNL     1      29.640  27.236  17.964  1.00  0.00     0.161 C 
HETATM   19  N5  UNL     1      29.774  25.831  18.282  1.00  0.00    -0.357 N 
ATOM     20  H5  UNL     1      29.850  25.227  17.463  1.00  0.00     0.162 HD
HETATM   21  C32 UNL     1      29.819  25.139  19.503  1.00  0.00     0.159 C 
HETATM   22  C33 UNL     1      28.757  24.861  20.474  1.00  0.00     0.059 C 
HETATM   23  C34 UNL     1      29.007  25.427  21.865  1.00  0.00     0.072 C 
HETATM   24  N6  UNL     1      27.697  24.225  20.335  1.00  0.00    -0.325 N 
ATOM     25  H6  UNL     1      27.248  24.272  21.250  1.00  0.00     0.168 HD
HETATM   26  C35 UNL     1      26.852  23.507  19.580  1.00  0.00     0.245 C 
HETATM   27  O6  UNL     1      26.792  23.238  18.336  1.00  0.00    -0.271 OA
ENDROOT
BRANCH   1  28
HETATM   28  C8  UNL     1      25.106  21.758  19.494  1.00  0.00     0.091 C 
BRANCH  28  29
HETATM   29  C7  UNL     1      25.862  20.491  19.514  1.00  0.00     0.011 A 
HETATM   30  C6  UNL     1      25.929  19.533  18.535  1.00  0.00     0.027 A 
HETATM   31  C5  UNL     1      26.746  18.522  18.980  1.00  0.00     0.027 A 
HETATM   32  C4  UNL     1      27.177  18.875  20.239  1.00  0.00     0.012 A 
HETATM   33  N7  UNL     1      26.635  20.054  20.534  1.00  0.00    -0.363 N 
ATOM     34  H7  UNL     1      26.781  20.559  21.409  1.00  0.00     0.165 HD
BRANCH  32  35
HETATM   35  C3  UNL     1      28.094  18.026  21.056  1.00  0.00     0.083 C 
BRANCH  35  36
HETATM   36  C2  UNL     1      27.440  17.805  22.389  1.00  0.00    -0.031 C 
HETATM   37  C1  UNL     1      26.393  17.008  22.531  1.00  0.00     0.007 C 
ENDBRANCH  35  36
ENDBRANCH  32  35
ENDBRANCH  28  29
ENDBRANCH   1  28
BRANCH   4  38
HETATM   38  O1  UNL     1      22.471  23.888  21.008  1.00  0.00    -0.348 OA
ATOM     39  H1  UNL     1      22.517  23.195  21.657  1.00  0.00     0.219 HD
ENDBRANCH   4  38
BRANCH   5  40
HETATM   40  C12 UNL     1      22.889  26.783  20.795  1.00  0.00     0.012 C 
HETATM   41  C13 UNL     1      21.535  27.374  20.543  1.00  0.00     0.012 C 
BRANCH  40  42
HETATM   42  C14 UNL     1      23.024  26.462  22.235  1.00  0.00     0.002 C 
HETATM   43  C15 UNL     1      21.708  26.836  22.897  1.00  0.00     0.005 C 
ENDBRANCH  40  42
ENDBRANCH   5  40
BRANCH  21  44
HETATM   44  O5  UNL     1      30.965  24.645  19.869  1.00  0.00    -0.345 OA
ATOM     45  H5  UNL     1      31.049  24.357  20.770  1.00  0.00     0.219 HD
ENDBRANCH  21  44
BRANCH  10  46
HETATM   46  C18 UNL     1      23.917  27.043  15.341  1.00  0.00     0.034 C 
BRANCH  46  47
HETATM   47  C19 UNL     1      22.567  26.667  14.818  1.00  0.00    -0.002 C 
HETATM   48  C20 UNL     1      21.491  27.364  15.644  1.00  0.00     0.005 C 
ENDBRANCH  46  47
ENDBRANCH  10  46
BRANCH  18  49
HETATM   49  C29 UNL     1      30.522  27.536  16.777  1.00  0.00     0.008 C 
HETATM   50  C30 UNL     1      30.517  26.495  15.706  1.00  0.00     0.012 C 
HETATM   51  C31 UNL     1      31.963  27.539  17.331  1.00  0.00     0.012 C 
ENDBRANCH  18  49
BRANCH  17  52
HETATM   52  O4  UNL     1      27.671  27.429  19.005  1.00  0.00    -0.348 OA
ATOM     53  H4  UNL     1      28.173  26.894  19.608  1.00  0.00     0.219 HD
ENDBRANCH  17  52
BRANCH  13  54
HETATM   54  O3  UNL     1      25.135  30.789  15.993  1.00  0.00    -0.348 OA
ATOM     55  H3  UNL     1      24.734  30.755  15.132  1.00  0.00     0.219 HD
ENDBRANCH  13  54
BRANCH  14  56
HETATM   56  C23 UNL     1      27.495  30.782  17.233  1.00  0.00     0.037 C 
BRANCH  56  57
HETATM   57  C24 UNL     1      28.603  31.560  16.671  1.00  0.00    -0.020 C 
HETATM   58  C25 UNL     1      28.663  31.189  15.162  1.00  0.00     0.009 C 
HETATM   59  C26 UNL     1      29.964  31.148  17.214  1.00  0.00     0.009 C 
ENDBRANCH  56  57
ENDBRANCH  14  56
TORSDOF 15
ENDMDL
MODEL 5
REMARK VINA RESULT: -5.864786856      1.256      1.515
REMARK  15 active torsions:
REMARK  status: ('A' for Active; 'I' for Inactive)
REMARK    1  A    between atoms: C2_2  and  C3_3 
REMARK    2  A    between atoms: C3_3  and  C4_4 
REMARK    3  A    between atoms: C7_7  and  C8_8 
REMARK    4  A    between atoms: C8_8  and  C9_9 
REMARK    5  A    between atoms: C10_12  and  O1_13 
REMARK    6  A    between atoms: C11_15  and  C12_16 
REMARK    7  A    between atoms: C12_16  and  C14_18 
REMARK    8  A    between atoms: C17_24  and  C18_25 
REMARK    9  A    between atoms: C18_25  and  C19_26 
REMARK   10  A    between atoms: C21_30  and  O3_31 
REMARK   11  A    between atoms: C22_33  and  C23_34 
REMARK   12  A    between atoms: C23_34  and  C24_35 
REMARK   13  A    between atoms: C27_40  and  O4_41 
REMARK   14  A    between atoms: C28_43  and  C29_44 
REMARK   15  A    between atoms: C32_49  and  O5_50 
ROOT
HETATM    1  C9  UNL     1      22.587  25.494  19.008  1.00  0.00     0.181 C 
HETATM    2  N1  UNL     1      23.397  24.333  19.097  1.00  0.00    -0.359 N 
ATOM      3  H1  UNL     1      23.748  24.087  18.172  1.00  0.00     0.162 HD
HETATM    4  C10 UNL     1      23.866  23.425  20.030  1.00  0.00     0.135 C 
HETATM    5  C11 UNL     1      25.094  23.370  20.897  1.00  0.00     0.162 C 
HETATM    6  N2  UNL     1      25.794  24.645  20.975  1.00  0.00    -0.347 N 
ATOM      7  H2  UNL     1      26.067  25.012  20.064  1.00  0.00     0.163 HD
HETATM    8  C16 UNL     1      26.164  25.456  22.025  1.00  0.00     0.241 C 
HETATM    9  O2  UNL     1      25.455  26.535  22.146  1.00  0.00    -0.271 OA
HETATM   10  C17 UNL     1      27.210  25.375  23.071  1.00  0.00     0.175 C 
HETATM   11  N3  UNL     1      28.568  25.519  22.650  1.00  0.00    -0.359 N 
ATOM     12  H3  UNL     1      28.956  24.603  22.426  1.00  0.00     0.162 HD
HETATM   13  C21 UNL     1      29.508  26.473  22.452  1.00  0.00     0.135 C 
HETATM   14  C22 UNL     1      29.647  27.729  21.615  1.00  0.00     0.158 C 
HETATM   15  N4  UNL     1      28.407  28.075  20.991  1.00  0.00    -0.361 N 
ATOM     16  H4  UNL     1      27.691  28.217  21.702  1.00  0.00     0.162 HD
HETATM   17  C27 UNL     1      27.873  28.275  19.751  1.00  0.00     0.135 C 
HETATM   18  C28 UNL     1      27.594  29.423  18.855  1.00  0.00     0.161 C 
HETATM   19  N5  UNL     1      26.203  29.552  18.476  1.00  0.00    -0.357 N 
ATOM     20  H5  UNL     1      25.662  30.158  19.093  1.00  0.00     0.162 HD
HETATM   21  C32 UNL     1      25.456  29.001  17.423  1.00  0.00     0.159 C 
HETATM   22  C33 UNL     1      24.986  27.630  17.211  1.00  0.00     0.059 C 
HETATM   23  C34 UNL     1      25.501  26.974  15.937  1.00  0.00     0.072 C 
HETATM   24  N6  UNL     1      24.223  26.933  17.903  1.00  0.00    -0.325 N 
ATOM     25  H6  UNL     1      24.159  26.047  17.402  1.00  0.00     0.168 HD
HETATM   26  C35 UNL     1      23.443  26.768  18.983  1.00  0.00     0.245 C 
HETATM   27  O6  UNL     1      23.239  27.455  20.036  1.00  0.00    -0.271 OA
ENDROOT
BRANCH   1  28
HETATM   28  C8  UNL     1      21.486  25.639  19.987  1.00  0.00     0.091 C 
BRANCH  28  29
HETATM   29  C7  UNL     1      20.256  24.897  19.650  1.00  0.00     0.011 A 
HETATM   30  C6  UNL     1      19.843  24.465  18.416  1.00  0.00     0.027 A 
HETATM   31  C5  UNL     1      18.639  23.820  18.569  1.00  0.00     0.027 A 
HETATM   32  C4  UNL     1      18.325  23.862  19.908  1.00  0.00     0.012 A 
HETATM   33  N7  UNL     1      19.306  24.511  20.532  1.00  0.00    -0.363 N 
ATOM     34  H7  UNL     1      19.337  24.692  21.535  1.00  0.00     0.165 HD
BRANCH  32  35
HETATM   35  C3  UNL     1      17.083  23.258  20.475  1.00  0.00     0.083 C 
BRANCH  35  36
HETATM   36  C2  UNL     1      16.814  21.985  19.726  1.00  0.00    -0.031 C 
HETATM   37  C1  UNL     1      15.700  21.293  19.901  1.00  0.00     0.007 C 
ENDBRANCH  35  36
ENDBRANCH  32  35
ENDBRANCH  28  29
ENDBRANCH   1  28
BRANCH   4  38
HETATM   38  O1  UNL     1      23.159  22.339  20.279  1.00  0.00    -0.348 OA
ATOM     39  H1  UNL     1      23.409  21.782  21.007  1.00  0.00     0.219 HD
ENDBRANCH   4  38
BRANCH   5  40
HETATM   40  C12 UNL     1      26.091  22.391  20.302  1.00  0.00     0.012 C 
HETATM   41  C13 UNL     1      26.637  22.870  18.991  1.00  0.00     0.012 C 
BRANCH  40  42
HETATM   42  C14 UNL     1      27.211  21.961  21.173  1.00  0.00     0.002 C 
HETATM   43  C15 UNL     1      28.497  22.285  20.430  1.00  0.00     0.005 C 
ENDBRANCH  40  42
ENDBRANCH   5  40
BRANCH  21  44
HETATM   44  O5  UNL     1      25.098  29.801  16.461  1.00  0.00    -0.345 OA
ATOM     45  H5  UNL     1      24.177  29.823  16.231  1.00  0.00     0.219 HD
ENDBRANCH  21  44
BRANCH  10  46
HETATM   46  C18 UNL     1      26.792  26.251  24.237  1.00  0.00     0.034 C 
BRANCH  46  47
HETATM   47  C19 UNL     1      26.235  25.498  25.403  1.00  0.00    -0.002 C 
HETATM   48  C20 UNL     1      25.090  26.294  26.021  1.00  0.00     0.005 C 
ENDBRANCH  46  47
ENDBRANCH  10  46
BRANCH  18  49
HETATM   49  C29 UNL     1      28.075  30.765  19.347  1.00  0.00     0.008 C 
HETATM   50  C30 UNL     1      27.441  31.945  18.686  1.00  0.00     0.012 C 
HETATM   51  C31 UNL     1      29.566  30.834  18.953  1.00  0.00     0.012 C 
ENDBRANCH  18  49
BRANCH  17  52
HETATM   52  O4  UNL     1      27.466  27.205  19.109  1.00  0.00    -0.348 OA
ATOM     53  H4  UNL     1      26.691  27.304  18.568  1.00  0.00     0.219 HD
ENDBRANCH  17  52
BRANCH  13  54
HETATM   54  O3  UNL     1      30.623  26.350  23.119  1.00  0.00    -0.348 OA
ATOM     55  H3  UNL     1      31.271  27.035  23.003  1.00  0.00     0.219 HD
ENDBRANCH  13  54
BRANCH  14  56
HETATM   56  C23 UNL     1      30.860  27.581  20.767  1.00  0.00     0.037 C 
BRANCH  56  57
HETATM   57  C24 UNL     1      30.886  26.607  19.673  1.00  0.00    -0.020 C 
HETATM   58  C25 UNL     1      32.145  25.727  19.915  1.00  0.00     0.009 C 
HETATM   59  C26 UNL     1      31.124  27.237  18.308  1.00  0.00     0.009 C 
ENDBRANCH  56  57
ENDBRANCH  14  56
TORSDOF 15
ENDMDL
