MODEL 1
REMARK VINA RESULT: -6.639346960      0.000      0.000
REMARK  12 active torsions:
REMARK  status: ('A' for Active; 'I' for Inactive)
REMARK    1  A    between atoms: C2_2  and  C4_4 
REMARK    2  A    between atoms: C4_4  and  C5_5 
REMARK    3  A    between atoms: C7_10  and  C8_11 
REMARK    4  A    between atoms: C12_18  and  C13_19 
REMARK    5  A    between atoms: C13_19  and  C14_20 
REMARK    6  A    between atoms: C23_34  and  C24_35 
REMARK    7  A    between atoms: C24_35  and  C25_36 
REMARK    8  A    between atoms: C30_43  and  C31_44 
REMARK    9  A    between atoms: C31_44  and  C32_45 
REMARK   10  A    between atoms: C32_45  and  C33_46 
REMARK   11  A    between atoms: C33_46  and  C34_47 
REMARK   12  A    between atoms: C34_47  and  N6_48 
ROOT
HETATM    1  C5  UNL     1      29.586  26.606  18.554  1.00  0.00     0.177 C 
HETATM    2  N1  UNL     1      29.543  28.045  18.405  1.00  0.00    -0.346 N 
ATOM      3  H1  UNL     1      30.452  28.506  18.360  1.00  0.00     0.163 HD
HETATM    4  C6  UNL     1      28.446  28.888  18.314  1.00  0.00     0.241 C 
HETATM    5  O1  UNL     1      28.462  29.923  19.081  1.00  0.00    -0.271 OA
HETATM    6  C7  UNL     1      27.250  28.767  17.454  1.00  0.00     0.180 C 
HETATM    7  N2  UNL     1      27.031  27.488  16.871  1.00  0.00    -0.346 N 
ATOM      8  H2  UNL     1      27.808  27.112  16.326  1.00  0.00     0.163 HD
HETATM    9  C11 UNL     1      25.895  26.677  16.945  1.00  0.00     0.241 C 
HETATM   10  O2  UNL     1      25.773  25.690  16.170  1.00  0.00    -0.271 OA
HETATM   11  C12 UNL     1      24.747  26.864  17.895  1.00  0.00     0.181 C 
HETATM   12  N4  UNL     1      24.056  25.628  18.173  1.00  0.00    -0.346 N 
ATOM     13  H4  UNL     1      23.395  25.312  17.462  1.00  0.00     0.163 HD
HETATM   14  C22 UNL     1      24.185  24.804  19.309  1.00  0.00     0.241 C 
HETATM   15  O3  UNL     1      23.129  24.488  19.966  1.00  0.00    -0.271 OA
HETATM   16  C23 UNL     1      25.438  24.239  19.853  1.00  0.00     0.179 C 
HETATM   17  N5  UNL     1      25.635  24.619  21.237  1.00  0.00    -0.341 N 
HETATM   18  C28 UNL     1      24.522  24.533  22.188  1.00  0.00     0.153 C 
HETATM   19  C29 UNL     1      26.908  25.067  21.729  1.00  0.00     0.243 C 
HETATM   20  O4  UNL     1      27.333  24.501  22.794  1.00  0.00    -0.271 OA
HETATM   21  C30 UNL     1      27.746  26.114  21.110  1.00  0.00     0.176 C 
HETATM   22  N7  UNL     1      29.109  25.637  20.892  1.00  0.00    -0.346 N 
ATOM     23  H7  UNL     1      29.443  24.859  21.460  1.00  0.00     0.163 HD
HETATM   24  C35 UNL     1      29.996  26.191  19.938  1.00  0.00     0.241 C 
HETATM   25  O5  UNL     1      31.224  26.370  20.217  1.00  0.00    -0.271 OA
ENDROOT
BRANCH  11  26
HETATM   26  C13 UNL     1      23.783  27.762  17.105  1.00  0.00     0.075 C 
BRANCH  26  27
HETATM   27  C14 UNL     1      22.388  27.368  17.223  1.00  0.00    -0.028 A 
HETATM   28  C15 UNL     1      21.634  27.325  18.373  1.00  0.00     0.096 A 
HETATM   29  N3  UNL     1      20.377  26.907  18.077  1.00  0.00    -0.365 N 
HETATM   30  C16 UNL     1      20.294  26.675  16.750  1.00  0.00     0.042 A 
ATOM     31  H3  UNL     1      19.619  26.789  18.748  1.00  0.00     0.165 HD
HETATM   32  C17 UNL     1      19.235  26.242  15.988  1.00  0.00     0.030 A 
HETATM   33  C21 UNL     1      21.554  26.964  16.210  1.00  0.00    -0.002 A 
HETATM   34  C18 UNL     1      19.422  26.086  14.633  1.00  0.00     0.002 A 
HETATM   35  C19 UNL     1      20.636  26.353  14.041  1.00  0.00     0.001 A 
HETATM   36  C20 UNL     1      21.673  26.784  14.845  1.00  0.00     0.014 A 
ENDBRANCH  26  27
ENDBRANCH  11  26
BRANCH   6  37
HETATM   37  C8  UNL     1      27.237  29.880  16.390  1.00  0.00     0.009 C 
HETATM   38  C9  UNL     1      27.606  29.286  15.068  1.00  0.00     0.012 C 
HETATM   39  C10 UNL     1      25.884  30.536  16.311  1.00  0.00     0.012 C 
ENDBRANCH   6  37
BRANCH  16  40
HETATM   40  C24 UNL     1      25.219  22.720  19.892  1.00  0.00     0.039 C 
BRANCH  40  41
HETATM   41  C25 UNL     1      26.301  21.955  19.197  1.00  0.00    -0.020 C 
HETATM   42  C26 UNL     1      27.546  21.784  19.994  1.00  0.00     0.009 C 
HETATM   43  C27 UNL     1      25.812  20.577  18.793  1.00  0.00     0.009 C 
ENDBRANCH  40  41
ENDBRANCH  16  40
BRANCH   1  44
HETATM   44  C4  UNL     1      30.720  26.138  17.630  1.00  0.00     0.038 C 
BRANCH  44  45
HETATM   45  C2  UNL     1      30.247  25.301  16.493  1.00  0.00    -0.020 C 
HETATM   46  C1  UNL     1      30.011  26.165  15.280  1.00  0.00     0.009 C 
HETATM   47  C3  UNL     1      31.413  24.378  16.120  1.00  0.00     0.009 C 
ENDBRANCH  44  45
ENDBRANCH   1  44
BRANCH  21  48
HETATM   48  C31 UNL     1      27.808  27.383  21.912  1.00  0.00     0.035 C 
BRANCH  48  49
HETATM   49  C32 UNL     1      28.826  27.349  23.032  1.00  0.00     0.004 C 
BRANCH  49  50
HETATM   50  C33 UNL     1      28.176  27.919  24.301  1.00  0.00     0.027 C 
BRANCH  50  51
HETATM   51  C34 UNL     1      27.961  26.810  25.316  1.00  0.00     0.229 C 
BRANCH  51  52
HETATM   52  N6  UNL     1      26.604  26.326  25.159  1.00  0.00    -0.079 N 
ATOM     53  H63 UNL     1      26.019  26.957  24.611  1.00  0.00     0.274 HD
ATOM     54  H62 UNL     1      26.541  25.515  24.544  1.00  0.00     0.274 HD
ATOM     55  H61 UNL     1      26.229  26.147  26.091  1.00  0.00     0.274 HD
ENDBRANCH  51  52
ENDBRANCH  50  51
ENDBRANCH  49  50
ENDBRANCH  48  49
ENDBRANCH  21  48
TORSDOF 12
ENDMDL
MODEL 2
REMARK VINA RESULT: -6.625384481      0.777      1.188
REMARK  12 active torsions:
REMARK  status: ('A' for Active; 'I' for Inactive)
REMARK    1  A    between atoms: C2_2  and  C4_4 
REMARK    2  A    between atoms: C4_4  and  C5_5 
REMARK    3  A    between atoms: C7_10  and  C8_11 
REMARK    4  A    between atoms: C12_18  and  C13_19 
REMARK    5  A    between atoms: C13_19  and  C14_20 
REMARK    6  A    between atoms: C23_34  and  C24_35 
REMARK    7  A    between atoms: C24_35  and  C25_36 
REMARK    8  A    between atoms: C30_43  and  C31_44 
REMARK    9  A    between atoms: C31_44  and  C32_45 
REMARK   10  A    between atoms: C32_45  and  C33_46 
REMARK   11  A    between atoms: C33_46  and  C34_47 
REMARK   12  A    between atoms: C34_47  and  N6_48 
ROOT
HETATM    1  C5  UNL     1      29.591  26.613  18.555  1.00  0.00     0.177 C 
HETATM    2  N1  UNL     1      29.543  28.051  18.399  1.00  0.00    -0.346 N 
ATOM      3  H1  UNL     1      30.450  28.516  18.352  1.00  0.00     0.163 HD
HETATM    4  C6  UNL     1      28.442  28.890  18.305  1.00  0.00     0.241 C 
HETATM    5  O1  UNL     1      28.455  29.928  19.068  1.00  0.00    -0.271 OA
HETATM    6  C7  UNL     1      27.247  28.761  17.446  1.00  0.00     0.180 C 
HETATM    7  N2  UNL     1      27.033  27.477  16.868  1.00  0.00    -0.346 N 
ATOM      8  H2  UNL     1      27.811  27.103  16.325  1.00  0.00     0.163 HD
HETATM    9  C11 UNL     1      25.900  26.662  16.946  1.00  0.00     0.241 C 
HETATM   10  O2  UNL     1      25.781  25.672  16.176  1.00  0.00    -0.271 OA
HETATM   11  C12 UNL     1      24.751  26.849  17.895  1.00  0.00     0.181 C 
HETATM   12  N4  UNL     1      24.065  25.612  18.178  1.00  0.00    -0.346 N 
ATOM     13  H4  UNL     1      23.406  25.291  17.469  1.00  0.00     0.163 HD
HETATM   14  C22 UNL     1      24.198  24.794  19.318  1.00  0.00     0.241 C 
HETATM   15  O3  UNL     1      23.143  24.477  19.976  1.00  0.00    -0.271 OA
HETATM   16  C23 UNL     1      25.452  24.235  19.865  1.00  0.00     0.179 C 
HETATM   17  N5  UNL     1      25.648  24.623  21.247  1.00  0.00    -0.341 N 
HETATM   18  C28 UNL     1      24.536  24.537  22.198  1.00  0.00     0.153 C 
HETATM   19  C29 UNL     1      26.919  25.078  21.737  1.00  0.00     0.243 C 
HETATM   20  O4  UNL     1      27.347  24.518  22.804  1.00  0.00    -0.271 OA
HETATM   21  C30 UNL     1      27.753  26.125  21.113  1.00  0.00     0.176 C 
HETATM   22  N7  UNL     1      29.118  25.652  20.897  1.00  0.00    -0.346 N 
ATOM     23  H7  UNL     1      29.455  24.878  21.469  1.00  0.00     0.163 HD
HETATM   24  C35 UNL     1      30.003  26.206  19.940  1.00  0.00     0.241 C 
HETATM   25  O5  UNL     1      31.230  26.390  20.219  1.00  0.00    -0.271 OA
ENDROOT
BRANCH  11  26
HETATM   26  C13 UNL     1      23.783  27.741  17.102  1.00  0.00     0.075 C 
BRANCH  26  27
HETATM   27  C14 UNL     1      22.389  27.350  17.232  1.00  0.00    -0.028 A 
HETATM   28  C15 UNL     1      21.642  27.320  18.387  1.00  0.00     0.096 A 
HETATM   29  N3  UNL     1      20.383  26.901  18.103  1.00  0.00    -0.365 N 
HETATM   30  C16 UNL     1      20.291  26.655  16.779  1.00  0.00     0.042 A 
ATOM     31  H3  UNL     1      19.629  26.791  18.780  1.00  0.00     0.165 HD
HETATM   32  C17 UNL     1      19.227  26.216  16.029  1.00  0.00     0.030 A 
HETATM   33  C21 UNL     1      21.548  26.936  16.228  1.00  0.00    -0.002 A 
HETATM   34  C18 UNL     1      19.405  26.045  14.674  1.00  0.00     0.002 A 
HETATM   35  C19 UNL     1      20.617  26.304  14.071  1.00  0.00     0.001 A 
HETATM   36  C20 UNL     1      21.659  26.742  14.865  1.00  0.00     0.014 A 
ENDBRANCH  26  27
ENDBRANCH  11  26
BRANCH   6  37
HETATM   37  C8  UNL     1      27.229  29.869  16.377  1.00  0.00     0.009 C 
HETATM   38  C9  UNL     1      27.628  29.275  15.062  1.00  0.00     0.012 C 
HETATM   39  C10 UNL     1      25.867  30.501  16.276  1.00  0.00     0.012 C 
ENDBRANCH   6  37
BRANCH  16  40
HETATM   40  C24 UNL     1      25.239  22.717  19.910  1.00  0.00     0.039 C 
BRANCH  40  41
HETATM   41  C25 UNL     1      26.326  21.952  19.221  1.00  0.00    -0.020 C 
HETATM   42  C26 UNL     1      27.569  21.789  20.023  1.00  0.00     0.009 C 
HETATM   43  C27 UNL     1      25.843  20.571  18.821  1.00  0.00     0.009 C 
ENDBRANCH  40  41
ENDBRANCH  16  40
BRANCH   1  44
HETATM   44  C4  UNL     1      30.727  26.145  17.633  1.00  0.00     0.038 C 
BRANCH  44  45
HETATM   45  C2  UNL     1      30.258  25.294  16.505  1.00  0.00    -0.020 C 
HETATM   46  C1  UNL     1      30.026  26.144  15.280  1.00  0.00     0.009 C 
HETATM   47  C3  UNL     1      31.426  24.368  16.147  1.00  0.00     0.009 C 
ENDBRANCH  44  45
ENDBRANCH   1  44
BRANCH  21  48
HETATM   48  C31 UNL     1      27.811  27.398  21.910  1.00  0.00     0.035 C 
BRANCH  48  49
HETATM   49  C32 UNL     1      28.886  27.404  22.976  1.00  0.00     0.004 C 
BRANCH  49  50
HETATM   50  C33 UNL     1      29.414  28.837  23.128  1.00  0.00     0.027 C 
BRANCH  50  51
HETATM   51  C34 UNL     1      30.834  28.925  22.598  1.00  0.00     0.229 C 
BRANCH  51  52
HETATM   52  N6  UNL     1      30.768  29.452  21.249  1.00  0.00    -0.079 N 
ATOM     53  H63 UNL     1      31.684  29.528  20.809  1.00  0.00     0.274 HD
ATOM     54  H62 UNL     1      30.353  28.797  20.587  1.00  0.00     0.274 HD
ATOM     55  H61 UNL     1      30.272  30.343  21.288  1.00  0.00     0.274 HD
ENDBRANCH  51  52
ENDBRANCH  50  51
ENDBRANCH  49  50
ENDBRANCH  48  49
ENDBRANCH  21  48
TORSDOF 12
ENDMDL
MODEL 3
REMARK VINA RESULT: -6.046798017      2.303      7.292
REMARK  12 active torsions:
REMARK  status: ('A' for Active; 'I' for Inactive)
REMARK    1  A    between atoms: C2_2  and  C4_4 
REMARK    2  A    between atoms: C4_4  and  C5_5 
REMARK    3  A    between atoms: C7_10  and  C8_11 
REMARK    4  A    between atoms: C12_18  and  C13_19 
REMARK    5  A    between atoms: C13_19  and  C14_20 
REMARK    6  A    between atoms: C23_34  and  C24_35 
REMARK    7  A    between atoms: C24_35  and  C25_36 
REMARK    8  A    between atoms: C30_43  and  C31_44 
REMARK    9  A    between atoms: C31_44  and  C32_45 
REMARK   10  A    between atoms: C32_45  and  C33_46 
REMARK   11  A    between atoms: C33_46  and  C34_47 
REMARK   12  A    between atoms: C34_47  and  N6_48 
ROOT
HETATM    1  C5  UNL     1      26.759  28.543  17.559  1.00  0.00     0.177 C 
HETATM    2  N1  UNL     1      27.582  27.842  16.597  1.00  0.00    -0.346 N 
ATOM      3  H1  UNL     1      28.032  28.432  15.896  1.00  0.00     0.163 HD
HETATM    4  C6  UNL     1      27.847  26.485  16.489  1.00  0.00     0.241 C 
HETATM    5  O1  UNL     1      27.708  25.974  15.314  1.00  0.00    -0.271 OA
HETATM    6  C7  UNL     1      28.271  25.535  17.538  1.00  0.00     0.180 C 
HETATM    7  N2  UNL     1      28.093  25.972  18.880  1.00  0.00    -0.346 N 
ATOM      8  H2  UNL     1      28.530  26.864  19.116  1.00  0.00     0.163 HD
HETATM    9  C11 UNL     1      27.400  25.344  19.919  1.00  0.00     0.241 C 
HETATM   10  O2  UNL     1      27.547  25.740  21.107  1.00  0.00    -0.271 OA
HETATM   11  C12 UNL     1      26.451  24.189  19.765  1.00  0.00     0.181 C 
HETATM   12  N4  UNL     1      25.469  24.141  20.821  1.00  0.00    -0.346 N 
ATOM     13  H4  UNL     1      25.781  23.746  21.708  1.00  0.00     0.163 HD
HETATM   14  C22 UNL     1      24.129  24.575  20.772  1.00  0.00     0.241 C 
HETATM   15  O3  UNL     1      23.201  23.753  21.104  1.00  0.00    -0.271 OA
HETATM   16  C23 UNL     1      23.647  25.914  20.371  1.00  0.00     0.179 C 
HETATM   17  N5  UNL     1      22.702  25.832  19.276  1.00  0.00    -0.341 N 
HETATM   18  C28 UNL     1      21.626  24.836  19.308  1.00  0.00     0.153 C 
HETATM   19  C29 UNL     1      22.766  26.718  18.147  1.00  0.00     0.243 C 
HETATM   20  O4  UNL     1      21.674  27.298  17.822  1.00  0.00    -0.271 OA
HETATM   21  C30 UNL     1      23.975  27.004  17.350  1.00  0.00     0.176 C 
HETATM   22  N7  UNL     1      24.206  28.443  17.239  1.00  0.00    -0.346 N 
ATOM     23  H7  UNL     1      23.411  29.068  17.370  1.00  0.00     0.163 HD
HETATM   24  C35 UNL     1      25.467  29.020  16.960  1.00  0.00     0.241 C 
HETATM   25  O5  UNL     1      25.570  30.005  16.161  1.00  0.00    -0.271 OA
ENDROOT
BRANCH  11  26
HETATM   26  C13 UNL     1      27.364  22.964  19.929  1.00  0.00     0.075 C 
BRANCH  26  27
HETATM   27  C14 UNL     1      26.708  21.703  19.621  1.00  0.00    -0.028 A 
HETATM   28  C15 UNL     1      25.688  21.498  18.720  1.00  0.00     0.096 A 
HETATM   29  N3  UNL     1      25.345  20.185  18.714  1.00  0.00    -0.365 N 
HETATM   30  C16 UNL     1      26.122  19.524  19.598  1.00  0.00     0.042 A 
ATOM     31  H3  UNL     1      24.617  19.766  18.135  1.00  0.00     0.165 HD
HETATM   32  C17 UNL     1      26.145  18.194  19.939  1.00  0.00     0.030 A 
HETATM   33  C21 UNL     1      26.980  20.473  20.169  1.00  0.00    -0.002 A 
HETATM   34  C18 UNL     1      27.053  17.775  20.886  1.00  0.00     0.002 A 
HETATM   35  C19 UNL     1      27.924  18.658  21.485  1.00  0.00     0.001 A 
HETATM   36  C20 UNL     1      27.865  19.986  21.112  1.00  0.00     0.014 A 
ENDBRANCH  26  27
ENDBRANCH  11  26
BRANCH   6  37
HETATM   37  C8  UNL     1      29.716  25.064  17.287  1.00  0.00     0.009 C 
HETATM   38  C9  UNL     1      30.606  26.264  17.207  1.00  0.00     0.012 C 
HETATM   39  C10 UNL     1      30.179  24.138  18.379  1.00  0.00     0.012 C 
ENDBRANCH   6  37
BRANCH  16  40
HETATM   40  C24 UNL     1      22.825  26.427  21.560  1.00  0.00     0.039 C 
BRANCH  40  41
HETATM   41  C25 UNL     1      21.357  26.477  21.279  1.00  0.00    -0.020 C 
HETATM   42  C26 UNL     1      20.527  25.629  22.178  1.00  0.00     0.009 C 
HETATM   43  C27 UNL     1      20.838  27.900  21.370  1.00  0.00     0.009 C 
ENDBRANCH  40  41
ENDBRANCH  16  40
BRANCH   1  44
HETATM   44  C4  UNL     1      27.544  29.815  17.912  1.00  0.00     0.038 C 
BRANCH  44  45
HETATM   45  C2  UNL     1      29.021  29.632  17.853  1.00  0.00    -0.020 C 
HETATM   46  C1  UNL     1      29.686  30.925  17.451  1.00  0.00     0.009 C 
HETATM   47  C3  UNL     1      29.481  29.363  19.291  1.00  0.00     0.009 C 
ENDBRANCH  44  45
ENDBRANCH   1  44
BRANCH  21  48
HETATM   48  C31 UNL     1      23.930  26.422  15.965  1.00  0.00     0.035 C 
BRANCH  48  49
HETATM   49  C32 UNL     1      22.967  27.129  15.035  1.00  0.00     0.004 C 
BRANCH  49  50
HETATM   50  C33 UNL     1      21.921  26.114  14.553  1.00  0.00     0.027 C 
BRANCH  50  51
HETATM   51  C34 UNL     1      20.596  26.814  14.307  1.00  0.00     0.229 C 
BRANCH  51  52
HETATM   52  N6  UNL     1      20.571  28.010  15.125  1.00  0.00    -0.079 N 
ATOM     53  H63 UNL     1      21.041  27.887  16.022  1.00  0.00     0.274 HD
ATOM     54  H62 UNL     1      21.169  28.752  14.761  1.00  0.00     0.274 HD
ATOM     55  H61 UNL     1      19.598  28.298  15.225  1.00  0.00     0.274 HD
ENDBRANCH  51  52
ENDBRANCH  50  51
ENDBRANCH  49  50
ENDBRANCH  48  49
ENDBRANCH  21  48
TORSDOF 12
ENDMDL
MODEL 4
REMARK VINA RESULT: -5.917361501      2.224      7.635
REMARK  12 active torsions:
REMARK  status: ('A' for Active; 'I' for Inactive)
REMARK    1  A    between atoms: C2_2  and  C4_4 
REMARK    2  A    between atoms: C4_4  and  C5_5 
REMARK    3  A    between atoms: C7_10  and  C8_11 
REMARK    4  A    between atoms: C12_18  and  C13_19 
REMARK    5  A    between atoms: C13_19  and  C14_20 
REMARK    6  A    between atoms: C23_34  and  C24_35 
REMARK    7  A    between atoms: C24_35  and  C25_36 
REMARK    8  A    between atoms: C30_43  and  C31_44 
REMARK    9  A    between atoms: C31_44  and  C32_45 
REMARK   10  A    between atoms: C32_45  and  C33_46 
REMARK   11  A    between atoms: C33_46  and  C34_47 
REMARK   12  A    between atoms: C34_47  and  N6_48 
ROOT
HETATM    1  C5  UNL     1      26.154  24.069  20.304  1.00  0.00     0.177 C 
HETATM    2  N1  UNL     1      25.630  24.591  21.548  1.00  0.00    -0.346 N 
ATOM      3  H1  UNL     1      25.060  23.940  22.089  1.00  0.00     0.163 HD
HETATM    4  C6  UNL     1      25.789  25.848  22.111  1.00  0.00     0.241 C 
HETATM    5  O1  UNL     1      24.713  26.425  22.521  1.00  0.00    -0.271 OA
HETATM    6  C7  UNL     1      27.030  26.625  22.312  1.00  0.00     0.180 C 
HETATM    7  N2  UNL     1      28.163  26.189  21.570  1.00  0.00    -0.346 N 
ATOM      8  H2  UNL     1      28.422  25.210  21.694  1.00  0.00     0.163 HD
HETATM    9  C11 UNL     1      28.969  26.923  20.694  1.00  0.00     0.241 C 
HETATM   10  O2  UNL     1      30.075  26.454  20.311  1.00  0.00    -0.271 OA
HETATM   11  C12 UNL     1      28.642  28.276  20.131  1.00  0.00     0.181 C 
HETATM   12  N4  UNL     1      29.290  28.516  18.864  1.00  0.00    -0.346 N 
ATOM     13  H4  UNL     1      30.273  28.788  18.907  1.00  0.00     0.163 HD
HETATM   14  C22 UNL     1      28.728  28.418  17.576  1.00  0.00     0.241 C 
HETATM   15  O3  UNL     1      28.820  29.424  16.785  1.00  0.00    -0.271 OA
HETATM   16  C23 UNL     1      28.022  27.252  17.005  1.00  0.00     0.179 C 
HETATM   17  N5  UNL     1      26.688  27.602  16.563  1.00  0.00    -0.341 N 
HETATM   18  C28 UNL     1      26.470  28.825  15.784  1.00  0.00     0.153 C 
HETATM   19  C29 UNL     1      25.550  26.774  16.847  1.00  0.00     0.243 C 
HETATM   20  O4  UNL     1      24.798  26.486  15.854  1.00  0.00    -0.271 OA
HETATM   21  C30 UNL     1      25.189  26.238  18.175  1.00  0.00     0.176 C 
HETATM   22  N7  UNL     1      24.987  24.792  18.125  1.00  0.00    -0.346 N 
ATOM     23  H7  UNL     1      24.757  24.371  17.225  1.00  0.00     0.163 HD
HETATM   24  C35 UNL     1      25.091  23.941  19.250  1.00  0.00     0.241 C 
HETATM   25  O5  UNL     1      24.261  22.993  19.429  1.00  0.00    -0.271 OA
ENDROOT
BRANCH  11  26
HETATM   26  C13 UNL     1      29.261  29.240  21.155  1.00  0.00     0.075 C 
BRANCH  26  27
HETATM   27  C14 UNL     1      28.434  30.401  21.438  1.00  0.00    -0.028 A 
HETATM   28  C15 UNL     1      27.880  31.267  20.523  1.00  0.00     0.096 A 
HETATM   29  N3  UNL     1      27.174  32.225  21.174  1.00  0.00    -0.365 N 
HETATM   30  C16 UNL     1      27.255  32.004  22.503  1.00  0.00     0.042 A 
ATOM     31  H3  UNL     1      26.664  32.989  20.731  1.00  0.00     0.165 HD
HETATM   32  C17 UNL     1      26.710  32.700  23.555  1.00  0.00     0.030 A 
HETATM   33  C21 UNL     1      28.045  30.859  22.673  1.00  0.00    -0.002 A 
HETATM   34  C18 UNL     1      26.953  32.252  24.834  1.00  0.00     0.002 A 
HETATM   35  C19 UNL     1      27.721  31.132  25.069  1.00  0.00     0.001 A 
HETATM   36  C20 UNL     1      28.249  30.464  23.982  1.00  0.00     0.014 A 
ENDBRANCH  26  27
ENDBRANCH  11  26
BRANCH   6  37
HETATM   37  C8  UNL     1      27.354  26.745  23.813  1.00  0.00     0.009 C 
HETATM   38  C9  UNL     1      26.975  25.467  24.491  1.00  0.00     0.012 C 
HETATM   39  C10 UNL     1      28.814  27.041  24.028  1.00  0.00     0.012 C 
ENDBRANCH   6  37
BRANCH  16  40
HETATM   40  C24 UNL     1      28.781  26.903  15.718  1.00  0.00     0.039 C 
BRANCH  40  41
HETATM   41  C25 UNL     1      30.037  26.129  15.971  1.00  0.00    -0.020 C 
HETATM   42  C26 UNL     1      29.929  25.114  17.054  1.00  0.00     0.009 C 
HETATM   43  C27 UNL     1      30.497  25.420  14.711  1.00  0.00     0.009 C 
ENDBRANCH  40  41
ENDBRANCH  16  40
BRANCH   1  44
HETATM   44  C4  UNL     1      26.595  22.633  20.621  1.00  0.00     0.038 C 
BRANCH  44  45
HETATM   45  C2  UNL     1      27.711  22.155  19.759  1.00  0.00    -0.020 C 
HETATM   46  C1  UNL     1      28.945  22.986  20.006  1.00  0.00     0.009 C 
HETATM   47  C3  UNL     1      28.062  20.745  20.249  1.00  0.00     0.009 C 
ENDBRANCH  44  45
ENDBRANCH   1  44
BRANCH  21  48
HETATM   48  C31 UNL     1      23.958  26.870  18.762  1.00  0.00     0.035 C 
BRANCH  48  49
HETATM   49  C32 UNL     1      22.672  26.446  18.086  1.00  0.00     0.004 C 
BRANCH  49  50
HETATM   50  C33 UNL     1      21.495  27.106  18.818  1.00  0.00     0.027 C 
BRANCH  50  51
HETATM   51  C34 UNL     1      21.816  27.245  20.295  1.00  0.00     0.229 C 
BRANCH  51  52
HETATM   52  N6  UNL     1      20.741  27.999  20.910  1.00  0.00    -0.079 N 
ATOM     53  H63 UNL     1      20.998  28.965  21.107  1.00  0.00     0.274 HD
ATOM     54  H62 UNL     1      19.973  28.191  20.267  1.00  0.00     0.274 HD
ATOM     55  H61 UNL     1      20.443  27.491  21.743  1.00  0.00     0.274 HD
ENDBRANCH  51  52
ENDBRANCH  50  51
ENDBRANCH  49  50
ENDBRANCH  48  49
ENDBRANCH  21  48
TORSDOF 12
ENDMDL
MODEL 5
REMARK VINA RESULT: -5.878577963      2.296      7.780
REMARK  12 active torsions:
REMARK  status: ('A' for Active; 'I' for Inactive)
REMARK    1  A    between atoms: C2_2  and  C4_4 
REMARK    2  A    between atoms: C4_4  and  C5_5 
REMARK    3  A    between atoms: C7_10  and  C8_11 
REMARK    4  A    between atoms: C12_18  and  C13_19 
REMARK    5  A    between atoms: C13_19  and  C14_20 
REMARK    6  A    between atoms: C23_34  and  C24_35 
REMARK    7  A    between atoms: C24_35  and  C25_36 
REMARK    8  A    between atoms: C30_43  and  C31_44 
REMARK    9  A    between atoms: C31_44  and  C32_45 
REMARK   10  A    between atoms: C32_45  and  C33_46 
REMARK   11  A    between atoms: C33_46  and  C34_47 
REMARK   12  A    between atoms: C34_47  and  N6_48 
ROOT
HETATM    1  C5  UNL     1      26.220  24.117  20.194  1.00  0.00     0.177 C 
HETATM    2  N1  UNL     1      25.746  24.584  21.480  1.00  0.00    -0.346 N 
ATOM      3  H1  UNL     1      25.241  23.893  22.035  1.00  0.00     0.163 HD
HETATM    4  C6  UNL     1      25.878  25.834  22.065  1.00  0.00     0.241 C 
HETATM    5  O1  UNL     1      24.801  26.348  22.551  1.00  0.00    -0.271 OA
HETATM    6  C7  UNL     1      27.090  26.666  22.215  1.00  0.00     0.180 C 
HETATM    7  N2  UNL     1      28.197  26.303  21.397  1.00  0.00    -0.346 N 
ATOM      8  H2  UNL     1      28.509  25.336  21.481  1.00  0.00     0.163 HD
HETATM    9  C11 UNL     1      28.914  27.096  20.496  1.00  0.00     0.241 C 
HETATM   10  O2  UNL     1      30.017  26.691  20.039  1.00  0.00    -0.271 OA
HETATM   11  C12 UNL     1      28.490  28.444  19.987  1.00  0.00     0.181 C 
HETATM   12  N4  UNL     1      29.051  28.745  18.693  1.00  0.00    -0.346 N 
ATOM     13  H4  UNL     1      30.021  29.064  18.686  1.00  0.00     0.163 HD
HETATM   14  C22 UNL     1      28.420  28.649  17.436  1.00  0.00     0.241 C 
HETATM   15  O3  UNL     1      28.417  29.677  16.667  1.00  0.00    -0.271 OA
HETATM   16  C23 UNL     1      27.738  27.463  16.877  1.00  0.00     0.179 C 
HETATM   17  N5  UNL     1      26.365  27.758  16.522  1.00  0.00    -0.341 N 
HETATM   18  C28 UNL     1      26.044  28.986  15.788  1.00  0.00     0.153 C 
HETATM   19  C29 UNL     1      25.286  26.868  16.849  1.00  0.00     0.243 C 
HETATM   20  O4  UNL     1      24.492  26.567  15.894  1.00  0.00    -0.271 OA
HETATM   21  C30 UNL     1      25.031  26.285  18.182  1.00  0.00     0.176 C 
HETATM   22  N7  UNL     1      24.895  24.832  18.105  1.00  0.00    -0.346 N 
ATOM     23  H7  UNL     1      24.632  24.421  17.210  1.00  0.00     0.163 HD
HETATM   24  C35 UNL     1      25.105  23.961  19.200  1.00  0.00     0.241 C 
HETATM   25  O5  UNL     1      24.333  22.971  19.402  1.00  0.00    -0.271 OA
ENDROOT
BRANCH  11  26
HETATM   26  C13 UNL     1      29.122  29.413  20.999  1.00  0.00     0.075 C 
BRANCH  26  27
HETATM   27  C14 UNL     1      28.299  30.576  21.286  1.00  0.00    -0.028 A 
HETATM   28  C15 UNL     1      27.724  31.430  20.372  1.00  0.00     0.096 A 
HETATM   29  N3  UNL     1      27.029  32.394  21.027  1.00  0.00    -0.365 N 
HETATM   30  C16 UNL     1      27.139  32.189  22.357  1.00  0.00     0.042 A 
ATOM     31  H3  UNL     1      26.508  33.152  20.585  1.00  0.00     0.165 HD
HETATM   32  C17 UNL     1      26.616  32.897  23.411  1.00  0.00     0.030 A 
HETATM   33  C21 UNL     1      27.935  31.048  22.523  1.00  0.00    -0.002 A 
HETATM   34  C18 UNL     1      26.887  32.465  24.690  1.00  0.00     0.002 A 
HETATM   35  C19 UNL     1      27.663  31.350  24.922  1.00  0.00     0.001 A 
HETATM   36  C20 UNL     1      28.168  30.670  23.832  1.00  0.00     0.014 A 
ENDBRANCH  26  27
ENDBRANCH  11  26
BRANCH   6  37
HETATM   37  C8  UNL     1      27.495  26.768  23.697  1.00  0.00     0.009 C 
HETATM   38  C9  UNL     1      27.413  25.407  24.313  1.00  0.00     0.012 C 
HETATM   39  C10 UNL     1      28.886  27.326  23.840  1.00  0.00     0.012 C 
ENDBRANCH   6  37
BRANCH  16  40
HETATM   40  C24 UNL     1      28.436  27.181  15.540  1.00  0.00     0.039 C 
BRANCH  40  41
HETATM   41  C25 UNL     1      29.449  26.083  15.628  1.00  0.00    -0.020 C 
HETATM   42  C26 UNL     1      30.860  26.532  15.476  1.00  0.00     0.009 C 
HETATM   43  C27 UNL     1      29.334  25.348  16.950  1.00  0.00     0.009 C 
ENDBRANCH  40  41
ENDBRANCH  16  40
BRANCH   1  44
HETATM   44  C4  UNL     1      26.747  22.697  20.449  1.00  0.00     0.038 C 
BRANCH  44  45
HETATM   45  C2  UNL     1      28.103  22.673  21.064  1.00  0.00    -0.020 C 
HETATM   46  C1  UNL     1      28.472  21.261  21.445  1.00  0.00     0.009 C 
HETATM   47  C3  UNL     1      29.087  23.070  19.956  1.00  0.00     0.009 C 
ENDBRANCH  44  45
ENDBRANCH   1  44
BRANCH  21  48
HETATM   48  C31 UNL     1      23.807  26.842  18.854  1.00  0.00     0.035 C 
BRANCH  48  49
HETATM   49  C32 UNL     1      22.525  26.131  18.477  1.00  0.00     0.004 C 
BRANCH  49  50
HETATM   50  C33 UNL     1      21.451  27.187  18.181  1.00  0.00     0.027 C 
BRANCH  50  51
HETATM   51  C34 UNL     1      21.019  27.093  16.728  1.00  0.00     0.229 C 
BRANCH  51  52
HETATM   52  N6  UNL     1      21.825  28.029  15.969  1.00  0.00    -0.079 N 
ATOM     53  H63 UNL     1      22.823  27.931  16.150  1.00  0.00     0.274 HD
ATOM     54  H62 UNL     1      21.847  27.815  14.971  1.00  0.00     0.274 HD
ATOM     55  H61 UNL     1      21.477  28.968  16.165  1.00  0.00     0.274 HD
ENDBRANCH  51  52
ENDBRANCH  50  51
ENDBRANCH  49  50
ENDBRANCH  48  49
ENDBRANCH  21  48
TORSDOF 12
ENDMDL
