MODEL 1
REMARK VINA RESULT: -8.718087364      0.000      0.000
REMARK  13 active torsions:
REMARK  status: ('A' for Active; 'I' for Inactive)
REMARK    1  A    between atoms: C2_2  and  C4_4 
REMARK    2  A    between atoms: C4_4  and  C5_5 
REMARK    3  A    between atoms: C6_8  and  O1_9 
REMARK    4  A    between atoms: C7_11  and  C8_12 
REMARK    5  A    between atoms: C8_12  and  C9_13 
REMARK    6  A    between atoms: C15_22  and  C16_23 
REMARK    7  A    between atoms: C16_23  and  C17_24 
REMARK    8  A    between atoms: C22_29  and  N3_30 
REMARK       I    between atoms: N3_30  and  C24_32 
REMARK    9  A    between atoms: C24_32  and  C25_34 
REMARK   10  A    between atoms: C25_34  and  C26_35 
REMARK   11  A    between atoms: C26_35  and  C27_36 
REMARK   12  A    between atoms: C31_48  and  C32_49 
REMARK   13  A    between atoms: C32_49  and  C33_50 
ROOT
HETATM    1  C5  UNL     1      10.301  15.725  15.885  1.00  0.00     0.175 C 
HETATM    2  N1  UNL     1      11.207  16.416  15.002  1.00  0.00    -0.359 N 
ATOM      3  H1  UNL     1      12.097  15.921  14.931  1.00  0.00     0.162 HD
HETATM    4  C6  UNL     1      11.213  17.541  14.236  1.00  0.00     0.135 C 
HETATM    5  C7  UNL     1      10.167  18.342  13.584  1.00  0.00     0.159 C 
HETATM    6  N2  UNL     1      10.544  19.705  13.312  1.00  0.00    -0.345 N 
ATOM      7  H2  UNL     1      10.285  20.090  12.404  1.00  0.00     0.163 HD
HETATM    8  C12 UNL     1      11.248  20.560  14.207  1.00  0.00     0.246 C 
HETATM    9  O2  UNL     1      12.105  21.280  13.615  1.00  0.00    -0.268 OA
HETATM   10  C13 UNL     1      11.037  20.635  15.667  1.00  0.00     0.010 C 
HETATM   11  C14 UNL     1       9.881  21.527  15.978  1.00  0.00     0.052 C 
HETATM   12  C15 UNL     1      12.165  20.609  16.574  1.00  0.00     0.143 C 
HETATM   13  N6  UNL     1      11.623  20.183  17.931  1.00  0.00    -0.347 N 
ATOM     14  H6  UNL     1      11.478  20.903  18.638  1.00  0.00     0.163 HD
HETATM   15  C30 UNL     1      11.315  18.871  18.261  1.00  0.00     0.241 C 
HETATM   16  O5  UNL     1      10.167  18.669  18.811  1.00  0.00    -0.271 OA
HETATM   17  C31 UNL     1      12.147  17.658  18.063  1.00  0.00     0.177 C 
HETATM   18  N7  UNL     1      11.332  16.457  18.163  1.00  0.00    -0.346 N 
ATOM     19  H7  UNL     1      10.967  16.279  19.098  1.00  0.00     0.163 HD
HETATM   20  C36 UNL     1      10.964  15.517  17.227  1.00  0.00     0.241 C 
HETATM   21  O6  UNL     1      11.212  14.288  17.516  1.00  0.00    -0.271 OA
ENDROOT
BRANCH  12  22
HETATM   22  C16 UNL     1      13.107  21.647  16.931  1.00  0.00     0.016 C 
BRANCH  22  23
HETATM   23  C17 UNL     1      14.472  21.494  17.331  1.00  0.00    -0.011 A 
HETATM   24  C18 UNL     1      14.714  21.258  18.677  1.00  0.00     0.013 A 
HETATM   25  C19 UNL     1      15.976  21.007  19.130  1.00  0.00     0.001 A 
HETATM   26  C20 UNL     1      17.042  20.986  18.237  1.00  0.00     0.002 A 
HETATM   27  C21 UNL     1      16.833  21.216  16.910  1.00  0.00     0.030 A 
HETATM   28  C22 UNL     1      15.515  21.474  16.469  1.00  0.00     0.046 A 
BRANCH  28  29
HETATM   29  N3  UNL     1      15.443  21.802  15.057  1.00  0.00    -0.322 N 
HETATM   30  C23 UNL     1      15.053  20.866  14.036  1.00  0.00     0.159 C 
HETATM   31  C24 UNL     1      15.834  23.117  14.590  1.00  0.00     0.224 C 
HETATM   32  O3  UNL     1      15.744  23.424  13.384  1.00  0.00    -0.273 OA
BRANCH  31  33
HETATM   33  C25 UNL     1      16.340  24.082  15.578  1.00  0.00     0.109 C 
BRANCH  33  34
HETATM   34  C26 UNL     1      17.814  24.298  15.589  1.00  0.00     0.068 C 
BRANCH  34  35
HETATM   35  C27 UNL     1      18.404  24.447  16.922  1.00  0.00     0.029 A 
HETATM   36  C28 UNL     1      17.830  24.655  18.132  1.00  0.00     0.117 A 
HETATM   37  N4  UNL     1      18.850  24.737  19.040  1.00  0.00    -0.317 N 
HETATM   38  C29 UNL     1      20.019  24.586  18.425  1.00  0.00     0.324 A 
ATOM     39  H4  UNL     1      18.731  24.892  20.041  1.00  0.00     0.170 HD
HETATM   40  O4  UNL     1      21.159  24.611  18.989  1.00  0.00    -0.247 OA
HETATM   41  N5  UNL     1      19.755  24.408  17.135  1.00  0.00    -0.311 N 
ATOM     42  H5  UNL     1      20.457  24.264  16.410  1.00  0.00     0.170 HD
ENDBRANCH  34  35
ENDBRANCH  33  34
ENDBRANCH  31  33
ENDBRANCH  28  29
ENDBRANCH  22  23
ENDBRANCH  12  22
BRANCH  17  43
HETATM   43  C32 UNL     1      13.362  17.601  18.921  1.00  0.00     0.038 C 
BRANCH  43  44
HETATM   44  C33 UNL     1      13.337  18.190  20.267  1.00  0.00    -0.020 C 
HETATM   45  C34 UNL     1      12.671  17.104  21.160  1.00  0.00     0.009 C 
HETATM   46  C35 UNL     1      14.675  18.405  20.941  1.00  0.00     0.009 C 
ENDBRANCH  43  44
ENDBRANCH  17  43
BRANCH   5  47
HETATM   47  C8  UNL     1       9.484  17.689  12.445  1.00  0.00     0.037 C 
BRANCH  47  48
HETATM   48  C9  UNL     1      10.245  17.131  11.326  1.00  0.00    -0.020 C 
HETATM   49  C10 UNL     1      10.335  15.627  11.257  1.00  0.00     0.009 C 
HETATM   50  C11 UNL     1       9.948  17.727   9.971  1.00  0.00     0.009 C 
ENDBRANCH  47  48
ENDBRANCH   5  47
BRANCH   4  51
HETATM   51  O1  UNL     1      12.402  18.059  14.001  1.00  0.00    -0.348 OA
ATOM     52  H1  UNL     1      12.920  17.609  13.344  1.00  0.00     0.219 HD
ENDBRANCH   4  51
BRANCH   1  53
HETATM   53  C4  UNL     1       8.904  16.188  15.946  1.00  0.00     0.038 C 
BRANCH  53  54
HETATM   54  C2  UNL     1       7.841  15.196  15.535  1.00  0.00    -0.020 C 
HETATM   55  C1  UNL     1       8.001  14.704  14.108  1.00  0.00     0.009 C 
HETATM   56  C3  UNL     1       7.498  14.134  16.505  1.00  0.00     0.009 C 
ENDBRANCH  53  54
ENDBRANCH   1  53
TORSDOF 13
ENDMDL
MODEL 2
REMARK VINA RESULT: -8.324044006      1.351      2.183
REMARK  13 active torsions:
REMARK  status: ('A' for Active; 'I' for Inactive)
REMARK    1  A    between atoms: C2_2  and  C4_4 
REMARK    2  A    between atoms: C4_4  and  C5_5 
REMARK    3  A    between atoms: C6_8  and  O1_9 
REMARK    4  A    between atoms: C7_11  and  C8_12 
REMARK    5  A    between atoms: C8_12  and  C9_13 
REMARK    6  A    between atoms: C15_22  and  C16_23 
REMARK    7  A    between atoms: C16_23  and  C17_24 
REMARK    8  A    between atoms: C22_29  and  N3_30 
REMARK       I    between atoms: N3_30  and  C24_32 
REMARK    9  A    between atoms: C24_32  and  C25_34 
REMARK   10  A    between atoms: C25_34  and  C26_35 
REMARK   11  A    between atoms: C26_35  and  C27_36 
REMARK   12  A    between atoms: C31_48  and  C32_49 
REMARK   13  A    between atoms: C32_49  and  C33_50 
ROOT
HETATM    1  C5  UNL     1      10.383  15.789  15.953  1.00  0.00     0.175 C 
HETATM    2  N1  UNL     1      11.322  16.438  15.071  1.00  0.00    -0.359 N 
ATOM      3  H1  UNL     1      12.211  15.938  15.052  1.00  0.00     0.162 HD
HETATM    4  C6  UNL     1      11.358  17.527  14.256  1.00  0.00     0.135 C 
HETATM    5  C7  UNL     1      10.337  18.301  13.533  1.00  0.00     0.159 C 
HETATM    6  N2  UNL     1      10.729  19.649  13.213  1.00  0.00    -0.345 N 
ATOM      7  H2  UNL     1      10.503  19.993  12.280  1.00  0.00     0.163 HD
HETATM    8  C12 UNL     1      11.406  20.542  14.092  1.00  0.00     0.246 C 
HETATM    9  O2  UNL     1      12.285  21.232  13.499  1.00  0.00    -0.268 OA
HETATM   10  C13 UNL     1      11.146  20.683  15.539  1.00  0.00     0.010 C 
HETATM   11  C14 UNL     1       9.984  21.590  15.770  1.00  0.00     0.052 C 
HETATM   12  C15 UNL     1      12.242  20.695  16.485  1.00  0.00     0.143 C 
HETATM   13  N6  UNL     1      11.652  20.332  17.840  1.00  0.00    -0.347 N 
ATOM     14  H6  UNL     1      11.486  21.084  18.509  1.00  0.00     0.163 HD
HETATM   15  C30 UNL     1      11.328  19.036  18.218  1.00  0.00     0.241 C 
HETATM   16  O5  UNL     1      10.161  18.862  18.737  1.00  0.00    -0.271 OA
HETATM   17  C31 UNL     1      12.162  17.814  18.103  1.00  0.00     0.177 C 
HETATM   18  N7  UNL     1      11.340  16.621  18.229  1.00  0.00    -0.346 N 
ATOM     19  H7  UNL     1      10.942  16.486  19.159  1.00  0.00     0.163 HD
HETATM   20  C36 UNL     1      11.000  15.640  17.324  1.00  0.00     0.241 C 
HETATM   21  O6  UNL     1      11.233  14.425  17.677  1.00  0.00    -0.271 OA
ENDROOT
BRANCH  12  22
HETATM   22  C16 UNL     1      13.175  21.745  16.826  1.00  0.00     0.016 C 
BRANCH  22  23
HETATM   23  C17 UNL     1      14.348  22.144  16.111  1.00  0.00    -0.011 A 
HETATM   24  C18 UNL     1      14.159  22.832  14.920  1.00  0.00     0.013 A 
HETATM   25  C19 UNL     1      15.220  23.331  14.222  1.00  0.00     0.001 A 
HETATM   26  C20 UNL     1      16.513  23.151  14.702  1.00  0.00     0.002 A 
HETATM   27  C21 UNL     1      16.727  22.477  15.867  1.00  0.00     0.030 A 
HETATM   28  C22 UNL     1      15.609  21.971  16.569  1.00  0.00     0.046 A 
BRANCH  28  29
HETATM   29  N3  UNL     1      15.978  21.189  17.735  1.00  0.00    -0.322 N 
HETATM   30  C23 UNL     1      16.003  19.750  17.758  1.00  0.00     0.159 C 
HETATM   31  C24 UNL     1      16.290  21.845  18.988  1.00  0.00     0.224 C 
HETATM   32  O3  UNL     1      16.643  21.187  19.988  1.00  0.00    -0.273 OA
BRANCH  31  33
HETATM   33  C25 UNL     1      16.180  23.310  19.051  1.00  0.00     0.109 C 
BRANCH  33  34
HETATM   34  C26 UNL     1      17.352  24.032  19.621  1.00  0.00     0.068 C 
BRANCH  34  35
HETATM   35  C27 UNL     1      18.360  24.442  18.640  1.00  0.00     0.029 A 
HETATM   36  C28 UNL     1      19.673  24.127  18.528  1.00  0.00     0.117 A 
HETATM   37  N4  UNL     1      20.146  24.805  17.437  1.00  0.00    -0.317 N 
HETATM   38  C29 UNL     1      19.169  25.517  16.885  1.00  0.00     0.324 A 
ATOM     39  H4  UNL     1      21.107  24.769  17.098  1.00  0.00     0.170 HD
HETATM   40  O4  UNL     1      19.283  26.256  15.857  1.00  0.00    -0.247 OA
HETATM   41  N5  UNL     1      18.078  25.300  17.612  1.00  0.00    -0.311 N 
ATOM     42  H5  UNL     1      17.163  25.714  17.431  1.00  0.00     0.170 HD
ENDBRANCH  34  35
ENDBRANCH  33  34
ENDBRANCH  31  33
ENDBRANCH  28  29
ENDBRANCH  22  23
ENDBRANCH  12  22
BRANCH  17  43
HETATM   43  C32 UNL     1      13.347  17.793  19.004  1.00  0.00     0.038 C 
BRANCH  43  44
HETATM   44  C33 UNL     1      13.249  18.356  20.358  1.00  0.00    -0.020 C 
HETATM   45  C34 UNL     1      12.720  17.184  21.234  1.00  0.00     0.009 C 
HETATM   46  C35 UNL     1      14.549  18.723  21.039  1.00  0.00     0.009 C 
ENDBRANCH  43  44
ENDBRANCH  17  43
BRANCH   5  47
HETATM   47  C8  UNL     1       9.691  17.598  12.403  1.00  0.00     0.037 C 
BRANCH  47  48
HETATM   48  C9  UNL     1      10.411  16.584  11.631  1.00  0.00    -0.020 C 
HETATM   49  C10 UNL     1       9.963  15.155  11.814  1.00  0.00     0.009 C 
HETATM   50  C11 UNL     1      10.637  16.906  10.174  1.00  0.00     0.009 C 
ENDBRANCH  47  48
ENDBRANCH   5  47
BRANCH   4  51
HETATM   51  O1  UNL     1      12.556  18.031  14.038  1.00  0.00    -0.348 OA
ATOM     52  H1  UNL     1      13.044  17.632  13.327  1.00  0.00     0.219 HD
ENDBRANCH   4  51
BRANCH   1  53
HETATM   53  C4  UNL     1       8.987  16.258  15.945  1.00  0.00     0.038 C 
BRANCH  53  54
HETATM   54  C2  UNL     1       7.914  15.195  15.920  1.00  0.00    -0.020 C 
HETATM   55  C1  UNL     1       8.253  14.022  15.019  1.00  0.00     0.009 C 
HETATM   56  C3  UNL     1       7.317  14.807  17.216  1.00  0.00     0.009 C 
ENDBRANCH  53  54
ENDBRANCH   1  53
TORSDOF 13
ENDMDL
MODEL 3
REMARK VINA RESULT: -8.087316502      4.993      9.960
REMARK  13 active torsions:
REMARK  status: ('A' for Active; 'I' for Inactive)
REMARK    1  A    between atoms: C2_2  and  C4_4 
REMARK    2  A    between atoms: C4_4  and  C5_5 
REMARK    3  A    between atoms: C6_8  and  O1_9 
REMARK    4  A    between atoms: C7_11  and  C8_12 
REMARK    5  A    between atoms: C8_12  and  C9_13 
REMARK    6  A    between atoms: C15_22  and  C16_23 
REMARK    7  A    between atoms: C16_23  and  C17_24 
REMARK    8  A    between atoms: C22_29  and  N3_30 
REMARK       I    between atoms: N3_30  and  C24_32 
REMARK    9  A    between atoms: C24_32  and  C25_34 
REMARK   10  A    between atoms: C25_34  and  C26_35 
REMARK   11  A    between atoms: C26_35  and  C27_36 
REMARK   12  A    between atoms: C31_48  and  C32_49 
REMARK   13  A    between atoms: C32_49  and  C33_50 
ROOT
HETATM    1  C5  UNL     1      15.546  23.141  16.131  1.00  0.00     0.175 C 
HETATM    2  N1  UNL     1      15.450  23.951  17.321  1.00  0.00    -0.359 N 
ATOM      3  H1  UNL     1      15.031  24.857  17.112  1.00  0.00     0.162 HD
HETATM    4  C6  UNL     1      15.759  23.850  18.642  1.00  0.00     0.135 C 
HETATM    5  C7  UNL     1      15.916  22.724  19.575  1.00  0.00     0.159 C 
HETATM    6  N2  UNL     1      16.733  23.014  20.725  1.00  0.00    -0.345 N 
ATOM      7  H2  UNL     1      16.404  22.677  21.630  1.00  0.00     0.163 HD
HETATM    8  C12 UNL     1      17.962  23.733  20.704  1.00  0.00     0.246 C 
HETATM    9  O2  UNL     1      18.085  24.511  21.694  1.00  0.00    -0.268 OA
HETATM   10  C13 UNL     1      19.007  23.614  19.667  1.00  0.00     0.010 C 
HETATM   11  C14 UNL     1      19.883  22.439  19.945  1.00  0.00     0.052 C 
HETATM   12  C15 UNL     1      19.593  24.800  19.076  1.00  0.00     0.143 C 
HETATM   13  N6  UNL     1      20.202  24.370  17.749  1.00  0.00    -0.347 N 
ATOM     14  H6  UNL     1      21.212  24.236  17.705  1.00  0.00     0.163 HD
HETATM   15  C30 UNL     1      19.462  24.150  16.596  1.00  0.00     0.241 C 
HETATM   16  O5  UNL     1      19.694  23.052  15.962  1.00  0.00    -0.271 OA
HETATM   17  C31 UNL     1      18.428  25.027  15.992  1.00  0.00     0.177 C 
HETATM   18  N7  UNL     1      17.618  24.282  15.041  1.00  0.00    -0.346 N 
ATOM     19  H7  UNL     1      18.123  23.989  14.205  1.00  0.00     0.163 HD
HETATM   20  C36 UNL     1      16.296  23.900  15.062  1.00  0.00     0.241 C 
HETATM   21  O6  UNL     1      15.584  24.228  14.041  1.00  0.00    -0.271 OA
ENDROOT
BRANCH  12  22
HETATM   22  C16 UNL     1      20.591  25.710  19.593  1.00  0.00     0.016 C 
BRANCH  22  23
HETATM   23  C17 UNL     1      21.734  26.238  18.913  1.00  0.00    -0.011 A 
HETATM   24  C18 UNL     1      21.520  26.808  17.665  1.00  0.00     0.013 A 
HETATM   25  C19 UNL     1      22.535  27.418  16.989  1.00  0.00     0.001 A 
HETATM   26  C20 UNL     1      23.807  27.474  17.550  1.00  0.00     0.002 A 
HETATM   27  C21 UNL     1      24.045  26.921  18.773  1.00  0.00     0.030 A 
HETATM   28  C22 UNL     1      22.974  26.294  19.449  1.00  0.00     0.046 A 
BRANCH  28  29
HETATM   29  N3  UNL     1      23.381  25.658  20.689  1.00  0.00    -0.322 N 
HETATM   30  C23 UNL     1      23.376  26.319  21.967  1.00  0.00     0.159 C 
HETATM   31  C24 UNL     1      23.888  24.301  20.684  1.00  0.00     0.224 C 
HETATM   32  O3  UNL     1      24.208  23.730  21.746  1.00  0.00    -0.273 OA
BRANCH  31  33
HETATM   33  C25 UNL     1      24.013  23.612  19.390  1.00  0.00     0.109 C 
BRANCH  33  34
HETATM   34  C26 UNL     1      25.398  23.284  18.952  1.00  0.00     0.068 C 
BRANCH  34  35
HETATM   35  C27 UNL     1      25.850  21.934  19.299  1.00  0.00     0.029 A 
HETATM   36  C28 UNL     1      26.922  21.510  20.014  1.00  0.00     0.117 A 
HETATM   37  N4  UNL     1      26.876  20.143  20.013  1.00  0.00    -0.317 N 
HETATM   38  C29 UNL     1      25.818  19.724  19.325  1.00  0.00     0.324 A 
ATOM     39  H4  UNL     1      27.554  19.535  20.471  1.00  0.00     0.170 HD
HETATM   40  O4  UNL     1      25.494  18.509  19.136  1.00  0.00    -0.247 OA
HETATM   41  N5  UNL     1      25.189  20.809  18.889  1.00  0.00    -0.311 N 
ATOM     42  H5  UNL     1      24.337  20.805  18.328  1.00  0.00     0.170 HD
ENDBRANCH  34  35
ENDBRANCH  33  34
ENDBRANCH  31  33
ENDBRANCH  28  29
ENDBRANCH  22  23
ENDBRANCH  12  22
BRANCH  17  43
HETATM   43  C32 UNL     1      18.958  26.297  15.424  1.00  0.00     0.038 C 
BRANCH  43  44
HETATM   44  C33 UNL     1      19.769  26.271  14.199  1.00  0.00    -0.020 C 
HETATM   45  C34 UNL     1      20.188  27.752  13.973  1.00  0.00     0.009 C 
HETATM   46  C35 UNL     1      21.099  25.555  14.278  1.00  0.00     0.009 C 
ENDBRANCH  43  44
ENDBRANCH  17  43
BRANCH   5  47
HETATM   47  C8  UNL     1      14.670  22.001  19.912  1.00  0.00     0.037 C 
BRANCH  47  48
HETATM   48  C9  UNL     1      14.667  20.550  20.107  1.00  0.00    -0.020 C 
HETATM   49  C10 UNL     1      15.776  19.779  19.435  1.00  0.00     0.009 C 
HETATM   50  C11 UNL     1      14.450  20.080  21.524  1.00  0.00     0.009 C 
ENDBRANCH  47  48
ENDBRANCH   5  47
BRANCH   4  51
HETATM   51  O1  UNL     1      15.973  24.994  19.262  1.00  0.00    -0.348 OA
ATOM     52  H1  UNL     1      15.890  24.966  20.208  1.00  0.00     0.219 HD
ENDBRANCH   4  51
BRANCH   1  53
HETATM   53  C4  UNL     1      15.939  21.729  16.285  1.00  0.00     0.038 C 
BRANCH  53  54
HETATM   54  C2  UNL     1      14.974  20.694  15.755  1.00  0.00    -0.020 C 
HETATM   55  C1  UNL     1      13.774  20.476  16.657  1.00  0.00     0.009 C 
HETATM   56  C3  UNL     1      14.645  20.754  14.315  1.00  0.00     0.009 C 
ENDBRANCH  53  54
ENDBRANCH   1  53
TORSDOF 13
ENDMDL
MODEL 4
REMARK VINA RESULT: -8.087149972      1.630      2.089
REMARK  13 active torsions:
REMARK  status: ('A' for Active; 'I' for Inactive)
REMARK    1  A    between atoms: C2_2  and  C4_4 
REMARK    2  A    between atoms: C4_4  and  C5_5 
REMARK    3  A    between atoms: C6_8  and  O1_9 
REMARK    4  A    between atoms: C7_11  and  C8_12 
REMARK    5  A    between atoms: C8_12  and  C9_13 
REMARK    6  A    between atoms: C15_22  and  C16_23 
REMARK    7  A    between atoms: C16_23  and  C17_24 
REMARK    8  A    between atoms: C22_29  and  N3_30 
REMARK       I    between atoms: N3_30  and  C24_32 
REMARK    9  A    between atoms: C24_32  and  C25_34 
REMARK   10  A    between atoms: C25_34  and  C26_35 
REMARK   11  A    between atoms: C26_35  and  C27_36 
REMARK   12  A    between atoms: C31_48  and  C32_49 
REMARK   13  A    between atoms: C32_49  and  C33_50 
ROOT
HETATM    1  C5  UNL     1       9.484  14.872  16.525  1.00  0.00     0.175 C 
HETATM    2  N1  UNL     1      10.445  15.122  15.480  1.00  0.00    -0.359 N 
ATOM      3  H1  UNL     1      11.201  14.437  15.508  1.00  0.00     0.162 HD
HETATM    4  C6  UNL     1      10.631  16.011  14.467  1.00  0.00     0.135 C 
HETATM    5  C7  UNL     1       9.732  16.857  13.667  1.00  0.00     0.159 C 
HETATM    6  N2  UNL     1      10.368  18.001  13.068  1.00  0.00    -0.345 N 
ATOM      7  H2  UNL     1      10.128  18.217  12.101  1.00  0.00     0.163 HD
HETATM    8  C12 UNL     1      11.305  18.857  13.714  1.00  0.00     0.246 C 
HETATM    9  O2  UNL     1      12.246  19.212  12.947  1.00  0.00    -0.268 OA
HETATM   10  C13 UNL     1      11.226  19.309  15.119  1.00  0.00     0.010 C 
HETATM   11  C14 UNL     1      10.314  20.484  15.235  1.00  0.00     0.052 C 
HETATM   12  C15 UNL     1      12.389  19.238  15.979  1.00  0.00     0.143 C 
HETATM   13  N6  UNL     1      11.875  19.266  17.410  1.00  0.00    -0.347 N 
ATOM     14  H6  UNL     1      11.941  20.142  17.928  1.00  0.00     0.163 HD
HETATM   15  C30 UNL     1      11.321  18.167  18.053  1.00  0.00     0.241 C 
HETATM   16  O5  UNL     1      10.202  18.359  18.663  1.00  0.00    -0.271 OA
HETATM   17  C31 UNL     1      11.859  16.786  18.130  1.00  0.00     0.177 C 
HETATM   18  N7  UNL     1      10.818  15.854  18.535  1.00  0.00    -0.346 N 
ATOM     19  H7  UNL     1      10.497  15.981  19.494  1.00  0.00     0.163 HD
HETATM   20  C36 UNL     1      10.188  14.833  17.861  1.00  0.00     0.241 C 
HETATM   21  O6  UNL     1      10.191  13.678  18.430  1.00  0.00    -0.271 OA
ENDROOT
BRANCH  12  22
HETATM   22  C16 UNL     1      13.555  20.091  16.053  1.00  0.00     0.016 C 
BRANCH  22  23
HETATM   23  C17 UNL     1      13.664  21.375  16.674  1.00  0.00    -0.011 A 
HETATM   24  C18 UNL     1      13.852  21.399  18.049  1.00  0.00     0.013 A 
HETATM   25  C19 UNL     1      14.060  22.575  18.708  1.00  0.00     0.001 A 
HETATM   26  C20 UNL     1      14.085  23.772  18.001  1.00  0.00     0.002 A 
HETATM   27  C21 UNL     1      13.900  23.778  16.651  1.00  0.00     0.030 A 
HETATM   28  C22 UNL     1      13.686  22.545  15.994  1.00  0.00     0.046 A 
BRANCH  28  29
HETATM   29  N3  UNL     1      13.403  22.697  14.579  1.00  0.00    -0.322 N 
HETATM   30  C23 UNL     1      12.077  22.841  14.039  1.00  0.00     0.159 C 
HETATM   31  C24 UNL     1      14.477  22.648  13.607  1.00  0.00     0.224 C 
HETATM   32  O3  UNL     1      14.252  22.814  12.391  1.00  0.00    -0.273 OA
BRANCH  31  33
HETATM   33  C25 UNL     1      15.842  22.400  14.094  1.00  0.00     0.109 C 
BRANCH  33  34
HETATM   34  C26 UNL     1      16.601  23.595  14.558  1.00  0.00     0.068 C 
BRANCH  34  35
HETATM   35  C27 UNL     1      17.393  23.387  15.773  1.00  0.00     0.029 A 
HETATM   36  C28 UNL     1      18.370  24.139  16.338  1.00  0.00     0.117 A 
HETATM   37  N4  UNL     1      18.783  23.467  17.456  1.00  0.00    -0.317 N 
HETATM   38  C29 UNL     1      18.094  22.338  17.589  1.00  0.00     0.324 A 
ATOM     39  H4  UNL     1      19.513  23.784  18.093  1.00  0.00     0.170 HD
HETATM   40  O4  UNL     1      18.239  21.489  18.524  1.00  0.00    -0.247 OA
HETATM   41  N5  UNL     1      17.245  22.284  16.568  1.00  0.00    -0.311 N 
ATOM     42  H5  UNL     1      16.580  21.529  16.400  1.00  0.00     0.170 HD
ENDBRANCH  34  35
ENDBRANCH  33  34
ENDBRANCH  31  33
ENDBRANCH  28  29
ENDBRANCH  22  23
ENDBRANCH  12  22
BRANCH  17  43
HETATM   43  C32 UNL     1      13.097  16.656  18.948  1.00  0.00     0.038 C 
BRANCH  43  44
HETATM   44  C33 UNL     1      13.562  17.788  19.760  1.00  0.00    -0.020 C 
HETATM   45  C34 UNL     1      12.975  17.525  21.176  1.00  0.00     0.009 C 
HETATM   46  C35 UNL     1      15.050  17.871  20.024  1.00  0.00     0.009 C 
ENDBRANCH  43  44
ENDBRANCH  17  43
BRANCH   5  47
HETATM   47  C8  UNL     1       8.841  16.131  12.736  1.00  0.00     0.037 C 
BRANCH  47  48
HETATM   48  C9  UNL     1       9.178  14.789  12.257  1.00  0.00    -0.020 C 
HETATM   49  C10 UNL     1       8.040  13.803  12.166  1.00  0.00     0.009 C 
HETATM   50  C11 UNL     1      10.055  14.732  11.031  1.00  0.00     0.009 C 
ENDBRANCH  47  48
ENDBRANCH   5  47
BRANCH   4  51
HETATM   51  O1  UNL     1      11.882  16.182  14.086  1.00  0.00    -0.348 OA
ATOM     52  H1  UNL     1      12.028  16.163  13.147  1.00  0.00     0.219 HD
ENDBRANCH   4  51
BRANCH   1  53
HETATM   53  C4  UNL     1       8.226  15.639  16.507  1.00  0.00     0.038 C 
BRANCH  53  54
HETATM   54  C2  UNL     1       6.946  14.846  16.633  1.00  0.00    -0.020 C 
HETATM   55  C1  UNL     1       6.898  13.636  15.719  1.00  0.00     0.009 C 
HETATM   56  C3  UNL     1       6.442  14.590  17.999  1.00  0.00     0.009 C 
ENDBRANCH  53  54
ENDBRANCH   1  53
TORSDOF 13
ENDMDL
MODEL 5
REMARK VINA RESULT: -8.075753060      1.415      2.231
REMARK  13 active torsions:
REMARK  status: ('A' for Active; 'I' for Inactive)
REMARK    1  A    between atoms: C2_2  and  C4_4 
REMARK    2  A    between atoms: C4_4  and  C5_5 
REMARK    3  A    between atoms: C6_8  and  O1_9 
REMARK    4  A    between atoms: C7_11  and  C8_12 
REMARK    5  A    between atoms: C8_12  and  C9_13 
REMARK    6  A    between atoms: C15_22  and  C16_23 
REMARK    7  A    between atoms: C16_23  and  C17_24 
REMARK    8  A    between atoms: C22_29  and  N3_30 
REMARK       I    between atoms: N3_30  and  C24_32 
REMARK    9  A    between atoms: C24_32  and  C25_34 
REMARK   10  A    between atoms: C25_34  and  C26_35 
REMARK   11  A    between atoms: C26_35  and  C27_36 
REMARK   12  A    between atoms: C31_48  and  C32_49 
REMARK   13  A    between atoms: C32_49  and  C33_50 
ROOT
HETATM    1  C5  UNL     1      10.318  15.715  15.972  1.00  0.00     0.175 C 
HETATM    2  N1  UNL     1      11.263  16.328  15.071  1.00  0.00    -0.359 N 
ATOM      3  H1  UNL     1      12.151  15.825  15.076  1.00  0.00     0.162 HD
HETATM    4  C6  UNL     1      11.307  17.387  14.217  1.00  0.00     0.135 C 
HETATM    5  C7  UNL     1      10.293  18.137  13.461  1.00  0.00     0.159 C 
HETATM    6  N2  UNL     1      10.691  19.472  13.095  1.00  0.00    -0.345 N 
ATOM      7  H2  UNL     1      10.471  19.783  12.149  1.00  0.00     0.163 HD
HETATM    8  C12 UNL     1      11.367  20.394  13.944  1.00  0.00     0.246 C 
HETATM    9  O2  UNL     1      12.251  21.059  13.330  1.00  0.00    -0.268 OA
HETATM   10  C13 UNL     1      11.099  20.588  15.383  1.00  0.00     0.010 C 
HETATM   11  C14 UNL     1       9.940  21.508  15.575  1.00  0.00     0.052 C 
HETATM   12  C15 UNL     1      12.191  20.631  16.334  1.00  0.00     0.143 C 
HETATM   13  N6  UNL     1      11.593  20.320  17.698  1.00  0.00    -0.347 N 
ATOM     14  H6  UNL     1      11.427  21.096  18.338  1.00  0.00     0.163 HD
HETATM   15  C30 UNL     1      11.262  19.040  18.122  1.00  0.00     0.241 C 
HETATM   16  O5  UNL     1      10.092  18.889  18.641  1.00  0.00    -0.271 OA
HETATM   17  C31 UNL     1      12.092  17.812  18.055  1.00  0.00     0.177 C 
HETATM   18  N7  UNL     1      11.265  16.627  18.221  1.00  0.00    -0.346 N 
ATOM     19  H7  UNL     1      10.863  16.527  19.152  1.00  0.00     0.163 HD
HETATM   20  C36 UNL     1      10.926  15.615  17.351  1.00  0.00     0.241 C 
HETATM   21  O6  UNL     1      11.154  14.412  17.748  1.00  0.00    -0.271 OA
ENDROOT
BRANCH  12  22
HETATM   22  C16 UNL     1      13.126  21.690  16.642  1.00  0.00     0.016 C 
BRANCH  22  23
HETATM   23  C17 UNL     1      14.305  22.057  15.919  1.00  0.00    -0.011 A 
HETATM   24  C18 UNL     1      14.130  22.572  14.642  1.00  0.00     0.013 A 
HETATM   25  C19 UNL     1      15.191  23.034  13.920  1.00  0.00     0.001 A 
HETATM   26  C20 UNL     1      16.470  22.992  14.462  1.00  0.00     0.002 A 
HETATM   27  C21 UNL     1      16.672  22.489  15.713  1.00  0.00     0.030 A 
HETATM   28  C22 UNL     1      15.554  22.017  16.438  1.00  0.00     0.046 A 
BRANCH  28  29
HETATM   29  N3  UNL     1      15.915  21.416  17.709  1.00  0.00    -0.322 N 
HETATM   30  C23 UNL     1      16.125  20.005  17.896  1.00  0.00     0.159 C 
HETATM   31  C24 UNL     1      16.024  22.232  18.901  1.00  0.00     0.224 C 
HETATM   32  O3  UNL     1      16.368  21.734  19.992  1.00  0.00    -0.273 OA
BRANCH  31  33
HETATM   33  C25 UNL     1      15.719  23.667  18.790  1.00  0.00     0.109 C 
BRANCH  33  34
HETATM   34  C26 UNL     1      16.870  24.560  18.480  1.00  0.00     0.068 C 
BRANCH  34  35
HETATM   35  C27 UNL     1      18.081  24.298  19.262  1.00  0.00     0.029 A 
HETATM   36  C28 UNL     1      19.322  23.908  18.878  1.00  0.00     0.117 A 
HETATM   37  N4  UNL     1      20.066  23.793  20.020  1.00  0.00    -0.317 N 
HETATM   38  C29 UNL     1      19.324  24.099  21.080  1.00  0.00     0.324 A 
ATOM     39  H4  UNL     1      21.046  23.514  20.054  1.00  0.00     0.170 HD
HETATM   40  O4  UNL     1      19.720  24.090  22.288  1.00  0.00    -0.247 OA
HETATM   41  N5  UNL     1      18.114  24.408  20.625  1.00  0.00    -0.311 N 
ATOM     42  H5  UNL     1      17.324  24.686  21.207  1.00  0.00     0.170 HD
ENDBRANCH  34  35
ENDBRANCH  33  34
ENDBRANCH  31  33
ENDBRANCH  28  29
ENDBRANCH  22  23
ENDBRANCH  12  22
BRANCH  17  43
HETATM   43  C32 UNL     1      13.273  17.819  18.963  1.00  0.00     0.038 C 
BRANCH  43  44
HETATM   44  C33 UNL     1      13.160  18.400  20.308  1.00  0.00    -0.020 C 
HETATM   45  C34 UNL     1      12.685  17.222  21.207  1.00  0.00     0.009 C 
HETATM   46  C35 UNL     1      14.448  18.832  20.974  1.00  0.00     0.009 C 
ENDBRANCH  43  44
ENDBRANCH  17  43
BRANCH   5  47
HETATM   47  C8  UNL     1       9.650  17.396  12.354  1.00  0.00     0.037 C 
BRANCH  47  48
HETATM   48  C9  UNL     1      10.272  16.201  11.781  1.00  0.00    -0.020 C 
HETATM   49  C10 UNL     1       9.424  14.955  11.741  1.00  0.00     0.009 C 
HETATM   50  C11 UNL     1      11.011  16.406  10.481  1.00  0.00     0.009 C 
ENDBRANCH  47  48
ENDBRANCH   5  47
BRANCH   4  51
HETATM   51  O1  UNL     1      12.508  17.879  13.988  1.00  0.00    -0.348 OA
ATOM     52  H1  UNL     1      12.717  18.036  13.074  1.00  0.00     0.219 HD
ENDBRANCH   4  51
BRANCH   1  53
HETATM   53  C4  UNL     1       8.923  16.189  15.939  1.00  0.00     0.038 C 
BRANCH  53  54
HETATM   54  C2  UNL     1       7.846  15.131  15.999  1.00  0.00    -0.020 C 
HETATM   55  C1  UNL     1       8.141  13.925  15.126  1.00  0.00     0.009 C 
HETATM   56  C3  UNL     1       7.304  14.793  17.332  1.00  0.00     0.009 C 
ENDBRANCH  53  54
ENDBRANCH   1  53
TORSDOF 13
ENDMDL
