MODEL 1
REMARK VINA RESULT: -8.854556822      0.000      0.000
REMARK  14 active torsions:
REMARK  status: ('A' for Active; 'I' for Inactive)
REMARK    1  A    between atoms: C2_2  and  C3_3 
REMARK    2  A    between atoms: C3_3  and  C4_4 
REMARK    3  A    between atoms: C4_4  and  C5_5 
REMARK    4  A    between atoms: C6_6  and  O1_7 
REMARK    5  A    between atoms: C11_18  and  C12_19 
REMARK    6  A    between atoms: C12_19  and  C13_20 
REMARK    7  A    between atoms: C16_23  and  O3_24 
REMARK    8  A    between atoms: C17_28  and  C18_29 
REMARK    9  A    between atoms: C18_29  and  C19_30 
REMARK   10  A    between atoms: C21_37  and  C22_38 
REMARK   11  A    between atoms: C22_38  and  C23_39 
REMARK   12  A    between atoms: C27_46  and  C28_47 
REMARK   13  A    between atoms: C28_47  and  C29_48 
REMARK   14  A    between atoms: C29_48  and  N6_49 
ROOT
HETATM    1  C5  UNL     1      16.614  22.252  18.281  1.00  0.00    -0.007 C 
HETATM    2  C6  UNL     1      16.471  20.776  18.361  1.00  0.00     0.141 C 
HETATM    3  N1  UNL     1      15.943  19.888  19.247  1.00  0.00    -0.353 N 
ATOM      4  H1  UNL     1      16.661  19.422  19.801  1.00  0.00     0.163 HD
HETATM    5  C7  UNL     1      14.607  19.445  19.594  1.00  0.00     0.105 C 
HETATM    6  C8  UNL     1      13.503  20.396  19.360  1.00  0.00     0.048 C 
HETATM    7  C9  UNL     1      14.623  19.179  21.112  1.00  0.00     0.048 C 
HETATM    8  C10 UNL     1      14.380  18.100  18.996  1.00  0.00     0.245 C 
HETATM    9  O2  UNL     1      15.369  17.299  19.201  1.00  0.00    -0.271 OA
HETATM   10  N2  UNL     1      13.298  17.607  18.274  1.00  0.00    -0.347 N 
ATOM     11  H2  UNL     1      13.504  17.360  17.305  1.00  0.00     0.163 HD
HETATM   12  C11 UNL     1      11.924  17.390  18.683  1.00  0.00     0.159 C 
HETATM   13  C16 UNL     1      10.905  17.966  17.781  1.00  0.00     0.135 C 
HETATM   14  N3  UNL     1      10.936  18.242  16.427  1.00  0.00    -0.359 N 
ATOM     15  H3  UNL     1      10.276  17.698  15.872  1.00  0.00     0.162 HD
HETATM   16  C17 UNL     1      11.739  19.167  15.663  1.00  0.00     0.185 C 
HETATM   17  C20 UNL     1      11.481  20.592  16.028  1.00  0.00     0.241 C 
HETATM   18  O6  UNL     1      10.707  20.731  17.044  1.00  0.00    -0.271 OA
HETATM   19  N4  UNL     1      11.948  21.739  15.437  1.00  0.00    -0.346 N 
ATOM     20  H4  UNL     1      11.235  22.428  15.197  1.00  0.00     0.163 HD
HETATM   21  C21 UNL     1      13.327  22.113  15.101  1.00  0.00     0.177 C 
HETATM   22  C26 UNL     1      13.768  23.254  15.972  1.00  0.00     0.241 C 
HETATM   23  O7  UNL     1      13.235  24.390  15.693  1.00  0.00    -0.271 OA
HETATM   24  N5  UNL     1      14.679  23.181  17.026  1.00  0.00    -0.351 N 
ATOM     25  H5  UNL     1      14.330  23.475  17.939  1.00  0.00     0.163 HD
HETATM   26  C27 UNL     1      16.055  22.742  16.985  1.00  0.00     0.119 C 
ENDROOT
BRANCH  26  27
HETATM   27  C28 UNL     1      16.966  23.678  16.223  1.00  0.00     0.050 C 
BRANCH  27  28
HETATM   28  C29 UNL     1      18.426  23.426  16.415  1.00  0.00     0.130 C 
BRANCH  28  29
HETATM   29  N6  UNL     1      19.176  24.689  16.490  1.00  0.00    -0.366 N 
HETATM   30  C30 UNL     1      19.786  25.100  17.611  1.00  0.00     0.090 A 
HETATM   31  C31 UNL     1      20.486  26.294  17.675  1.00  0.00     0.018 A 
HETATM   32  C32 UNL     1      20.564  27.091  16.554  1.00  0.00     0.009 A 
HETATM   33  C33 UNL     1      19.940  26.673  15.402  1.00  0.00    -0.046 A 
HETATM   34  C34 UNL     1      20.026  27.522  14.207  1.00  0.00     0.049 C 
HETATM   35  C35 UNL     1      19.262  25.477  15.409  1.00  0.00     0.097 A 
ENDBRANCH  28  29
ENDBRANCH  27  28
ENDBRANCH  26  27
BRANCH   1  36
HETATM   36  C4  UNL     1      16.306  22.999  19.510  1.00  0.00     0.041 C 
BRANCH  36  37
HETATM   37  C3  UNL     1      17.396  23.932  19.974  1.00  0.00     0.004 C 
BRANCH  37  38
HETATM   38  C2  UNL     1      18.618  23.044  20.292  1.00  0.00    -0.004 C 
HETATM   39  C1  UNL     1      19.608  23.776  21.152  1.00  0.00     0.005 C 
ENDBRANCH  37  38
ENDBRANCH  36  37
ENDBRANCH   1  36
BRANCH   2  40
HETATM   40  O1  UNL     1      17.010  20.267  17.284  1.00  0.00    -0.346 OA
ATOM     41  H1  UNL     1      17.937  20.473  17.302  1.00  0.00     0.219 HD
ENDBRANCH   2  40
BRANCH  21  42
HETATM   42  C22 UNL     1      13.212  22.601  13.655  1.00  0.00     0.038 C 
BRANCH  42  43
HETATM   43  C23 UNL     1      14.296  22.107  12.762  1.00  0.00    -0.020 C 
HETATM   44  C24 UNL     1      14.668  20.708  13.285  1.00  0.00     0.009 C 
HETATM   45  C25 UNL     1      15.544  22.918  12.807  1.00  0.00     0.009 C 
ENDBRANCH  42  43
ENDBRANCH  21  42
BRANCH  16  46
HETATM   46  C18 UNL     1      11.478  18.960  14.173  1.00  0.00     0.147 C 
BRANCH  46  47
HETATM   47  C19 UNL     1      10.689  17.723  14.015  1.00  0.00     0.175 C 
HETATM   48  O4  UNL     1      11.276  16.632  13.813  1.00  0.00    -0.648 OA
HETATM   49  O5  UNL     1       9.292  17.720  14.083  1.00  0.00    -0.648 OA
ENDBRANCH  46  47
ENDBRANCH  16  46
BRANCH  12  50
HETATM   50  C12 UNL     1      11.659  15.875  18.691  1.00  0.00     0.037 C 
BRANCH  50  51
HETATM   51  C13 UNL     1      10.469  15.434  17.949  1.00  0.00    -0.020 C 
HETATM   52  C14 UNL     1       9.629  14.489  18.755  1.00  0.00     0.009 C 
HETATM   53  C15 UNL     1      10.909  14.725  16.670  1.00  0.00     0.009 C 
ENDBRANCH  50  51
ENDBRANCH  12  50
BRANCH  13  54
HETATM   54  O3  UNL     1       9.800  18.247  18.407  1.00  0.00    -0.348 OA
ATOM     55  H3  UNL     1       9.868  19.051  18.910  1.00  0.00     0.219 HD
ENDBRANCH  13  54
TORSDOF 14
ENDMDL
MODEL 2
REMARK VINA RESULT: -8.353439473      2.382      9.866
REMARK  14 active torsions:
REMARK  status: ('A' for Active; 'I' for Inactive)
REMARK    1  A    between atoms: C2_2  and  C3_3 
REMARK    2  A    between atoms: C3_3  and  C4_4 
REMARK    3  A    between atoms: C4_4  and  C5_5 
REMARK    4  A    between atoms: C6_6  and  O1_7 
REMARK    5  A    between atoms: C11_18  and  C12_19 
REMARK    6  A    between atoms: C12_19  and  C13_20 
REMARK    7  A    between atoms: C16_23  and  O3_24 
REMARK    8  A    between atoms: C17_28  and  C18_29 
REMARK    9  A    between atoms: C18_29  and  C19_30 
REMARK   10  A    between atoms: C21_37  and  C22_38 
REMARK   11  A    between atoms: C22_38  and  C23_39 
REMARK   12  A    between atoms: C27_46  and  C28_47 
REMARK   13  A    between atoms: C28_47  and  C29_48 
REMARK   14  A    between atoms: C29_48  and  N6_49 
ROOT
HETATM    1  C5  UNL     1      11.217  19.370  13.922  1.00  0.00    -0.007 C 
HETATM    2  C6  UNL     1      12.569  19.775  13.460  1.00  0.00     0.141 C 
HETATM    3  N1  UNL     1      13.142  20.914  12.984  1.00  0.00    -0.353 N 
ATOM      4  H1  UNL     1      13.270  20.888  11.972  1.00  0.00     0.163 HD
HETATM    5  C7  UNL     1      13.615  22.155  13.566  1.00  0.00     0.105 C 
HETATM    6  C8  UNL     1      12.979  22.590  14.825  1.00  0.00     0.048 C 
HETATM    7  C9  UNL     1      13.309  23.258  12.534  1.00  0.00     0.048 C 
HETATM    8  C10 UNL     1      15.102  22.118  13.623  1.00  0.00     0.245 C 
HETATM    9  O2  UNL     1      15.626  21.717  12.516  1.00  0.00    -0.271 OA
HETATM   10  N2  UNL     1      15.971  22.439  14.662  1.00  0.00    -0.347 N 
ATOM     11  H2  UNL     1      16.519  21.658  15.022  1.00  0.00     0.163 HD
HETATM   12  C11 UNL     1      16.218  23.712  15.312  1.00  0.00     0.159 C 
HETATM   13  C16 UNL     1      16.158  23.681  16.788  1.00  0.00     0.135 C 
HETATM   14  N3  UNL     1      16.387  22.660  17.690  1.00  0.00    -0.359 N 
ATOM     15  H3  UNL     1      17.183  22.816  18.308  1.00  0.00     0.162 HD
HETATM   16  C17 UNL     1      15.697  21.411  17.909  1.00  0.00     0.185 C 
HETATM   17  C20 UNL     1      14.289  21.603  18.367  1.00  0.00     0.241 C 
HETATM   18  O6  UNL     1      13.903  22.829  18.343  1.00  0.00    -0.271 OA
HETATM   19  N4  UNL     1      13.379  20.671  18.796  1.00  0.00    -0.346 N 
ATOM     20  H4  UNL     1      12.931  20.876  19.689  1.00  0.00     0.163 HD
HETATM   21  C21 UNL     1      12.960  19.419  18.153  1.00  0.00     0.177 C 
HETATM   22  C26 UNL     1      11.532  19.535  17.705  1.00  0.00     0.241 C 
HETATM   23  O7  UNL     1      10.661  19.513  18.650  1.00  0.00    -0.271 OA
HETATM   24  N5  UNL     1      11.088  19.662  16.388  1.00  0.00    -0.351 N 
ATOM     25  H5  UNL     1      10.538  20.495  16.180  1.00  0.00     0.163 HD
HETATM   26  C27 UNL     1      11.313  18.759  15.282  1.00  0.00     0.119 C 
ENDROOT
BRANCH  26  27
HETATM   27  C28 UNL     1      10.596  17.436  15.428  1.00  0.00     0.050 C 
BRANCH  27  28
HETATM   28  C29 UNL     1      11.439  16.233  15.152  1.00  0.00     0.130 C 
BRANCH  28  29
HETATM   29  N6  UNL     1      11.056  15.599  13.881  1.00  0.00    -0.366 N 
HETATM   30  C30 UNL     1       9.998  14.783  13.772  1.00  0.00     0.090 A 
HETATM   31  C31 UNL     1       9.648  14.186  12.571  1.00  0.00     0.018 A 
HETATM   32  C32 UNL     1      10.404  14.435  11.447  1.00  0.00     0.009 A 
HETATM   33  C33 UNL     1      11.490  15.273  11.555  1.00  0.00    -0.046 A 
HETATM   34  C34 UNL     1      12.294  15.540  10.355  1.00  0.00     0.049 C 
HETATM   35  C35 UNL     1      11.781  15.831  12.777  1.00  0.00     0.097 A 
ENDBRANCH  28  29
ENDBRANCH  27  28
ENDBRANCH  26  27
BRANCH   1  36
HETATM   36  C4  UNL     1      10.128  20.321  13.651  1.00  0.00     0.041 C 
BRANCH  36  37
HETATM   37  C3  UNL     1       8.925  19.726  12.963  1.00  0.00     0.004 C 
BRANCH  37  38
HETATM   38  C2  UNL     1       9.425  18.458  12.237  1.00  0.00    -0.004 C 
HETATM   39  C1  UNL     1       8.275  17.586  11.821  1.00  0.00     0.005 C 
ENDBRANCH  37  38
ENDBRANCH  36  37
ENDBRANCH   1  36
BRANCH   2  40
HETATM   40  O1  UNL     1      13.350  18.732  13.558  1.00  0.00    -0.346 OA
ATOM     41  H1  UNL     1      13.965  18.764  12.835  1.00  0.00     0.219 HD
ENDBRANCH   2  40
BRANCH  21  42
HETATM   42  C22 UNL     1      13.049  18.398  19.288  1.00  0.00     0.038 C 
BRANCH  42  43
HETATM   43  C23 UNL     1      13.730  18.909  20.510  1.00  0.00    -0.020 C 
HETATM   44  C24 UNL     1      14.988  18.039  20.686  1.00  0.00     0.009 C 
HETATM   45  C25 UNL     1      12.937  18.759  21.761  1.00  0.00     0.009 C 
ENDBRANCH  42  43
ENDBRANCH  21  42
BRANCH  16  46
HETATM   46  C18 UNL     1      16.463  20.577  18.933  1.00  0.00     0.147 C 
BRANCH  46  47
HETATM   47  C19 UNL     1      17.390  21.473  19.651  1.00  0.00     0.175 C 
HETATM   48  O4  UNL     1      16.942  22.277  20.504  1.00  0.00    -0.648 OA
HETATM   49  O5  UNL     1      18.769  21.459  19.415  1.00  0.00    -0.648 OA
ENDBRANCH  46  47
ENDBRANCH  16  46
BRANCH  12  50
HETATM   50  C12 UNL     1      17.649  24.158  14.967  1.00  0.00     0.037 C 
BRANCH  50  51
HETATM   51  C13 UNL     1      18.343  24.930  16.008  1.00  0.00    -0.020 C 
HETATM   52  C14 UNL     1      18.994  26.159  15.447  1.00  0.00     0.009 C 
HETATM   53  C15 UNL     1      19.419  24.056  16.648  1.00  0.00     0.009 C 
ENDBRANCH  50  51
ENDBRANCH  12  50
BRANCH  13  54
HETATM   54  O3  UNL     1      15.829  24.836  17.288  1.00  0.00    -0.348 OA
ATOM     55  H3  UNL     1      15.418  24.753  18.141  1.00  0.00     0.219 HD
ENDBRANCH  13  54
TORSDOF 14
ENDMDL
MODEL 3
REMARK VINA RESULT: -8.330988621      2.095     10.091
REMARK  14 active torsions:
REMARK  status: ('A' for Active; 'I' for Inactive)
REMARK    1  A    between atoms: C2_2  and  C3_3 
REMARK    2  A    between atoms: C3_3  and  C4_4 
REMARK    3  A    between atoms: C4_4  and  C5_5 
REMARK    4  A    between atoms: C6_6  and  O1_7 
REMARK    5  A    between atoms: C11_18  and  C12_19 
REMARK    6  A    between atoms: C12_19  and  C13_20 
REMARK    7  A    between atoms: C16_23  and  O3_24 
REMARK    8  A    between atoms: C17_28  and  C18_29 
REMARK    9  A    between atoms: C18_29  and  C19_30 
REMARK   10  A    between atoms: C21_37  and  C22_38 
REMARK   11  A    between atoms: C22_38  and  C23_39 
REMARK   12  A    between atoms: C27_46  and  C28_47 
REMARK   13  A    between atoms: C28_47  and  C29_48 
REMARK   14  A    between atoms: C29_48  and  N6_49 
ROOT
HETATM    1  C5  UNL     1      11.404  19.387  14.014  1.00  0.00    -0.007 C 
HETATM    2  C6  UNL     1      12.753  19.793  13.542  1.00  0.00     0.141 C 
HETATM    3  N1  UNL     1      13.313  20.921  13.028  1.00  0.00    -0.353 N 
ATOM      4  H1  UNL     1      13.446  20.860  12.018  1.00  0.00     0.163 HD
HETATM    5  C7  UNL     1      13.767  22.188  13.567  1.00  0.00     0.105 C 
HETATM    6  C8  UNL     1      13.121  22.661  14.806  1.00  0.00     0.048 C 
HETATM    7  C9  UNL     1      13.453  23.249  12.494  1.00  0.00     0.048 C 
HETATM    8  C10 UNL     1      15.255  22.173  13.631  1.00  0.00     0.245 C 
HETATM    9  O2  UNL     1      15.789  21.739  12.541  1.00  0.00    -0.271 OA
HETATM   10  N2  UNL     1      16.115  22.543  14.661  1.00  0.00    -0.347 N 
ATOM     11  H2  UNL     1      16.671  21.782  15.051  1.00  0.00     0.163 HD
HETATM   12  C11 UNL     1      16.343  23.841  15.266  1.00  0.00     0.159 C 
HETATM   13  C16 UNL     1      16.276  23.863  16.741  1.00  0.00     0.135 C 
HETATM   14  N3  UNL     1      16.515  22.878  17.681  1.00  0.00    -0.359 N 
ATOM     15  H3  UNL     1      17.306  23.067  18.296  1.00  0.00     0.162 HD
HETATM   16  C17 UNL     1      15.839  21.630  17.943  1.00  0.00     0.185 C 
HETATM   17  C20 UNL     1      14.426  21.821  18.387  1.00  0.00     0.241 C 
HETATM   18  O6  UNL     1      14.025  23.039  18.317  1.00  0.00    -0.271 OA
HETATM   19  N4  UNL     1      13.527  20.893  18.846  1.00  0.00    -0.346 N 
ATOM     20  H4  UNL     1      13.072  21.124  19.729  1.00  0.00     0.163 HD
HETATM   21  C21 UNL     1      13.126  19.614  18.247  1.00  0.00     0.177 C 
HETATM   22  C26 UNL     1      11.699  19.695  17.790  1.00  0.00     0.241 C 
HETATM   23  O7  UNL     1      10.824  19.696  18.731  1.00  0.00    -0.271 OA
HETATM   24  N5  UNL     1      11.260  19.768  16.467  1.00  0.00    -0.351 N 
ATOM     25  H5  UNL     1      10.700  20.586  16.227  1.00  0.00     0.163 HD
HETATM   26  C27 UNL     1      11.501  18.828  15.395  1.00  0.00     0.119 C 
ENDROOT
BRANCH  26  27
HETATM   27  C28 UNL     1      10.800  17.502  15.586  1.00  0.00     0.050 C 
BRANCH  27  28
HETATM   28  C29 UNL     1      11.199  16.437  14.617  1.00  0.00     0.130 C 
BRANCH  28  29
HETATM   29  N6  UNL     1      10.757  15.111  15.076  1.00  0.00    -0.366 N 
HETATM   30  C30 UNL     1      10.636  14.065  14.246  1.00  0.00     0.090 A 
HETATM   31  C31 UNL     1      10.214  12.820  14.685  1.00  0.00     0.018 A 
HETATM   32  C32 UNL     1       9.908  12.643  16.017  1.00  0.00     0.009 A 
HETATM   33  C33 UNL     1      10.033  13.713  16.871  1.00  0.00    -0.046 A 
HETATM   34  C34 UNL     1       9.708  13.522  18.291  1.00  0.00     0.049 C 
HETATM   35  C35 UNL     1      10.456  14.920  16.368  1.00  0.00     0.097 A 
ENDBRANCH  28  29
ENDBRANCH  27  28
ENDBRANCH  26  27
BRANCH   1  36
HETATM   36  C4  UNL     1      10.304  20.314  13.703  1.00  0.00     0.041 C 
BRANCH  36  37
HETATM   37  C3  UNL     1       9.026  19.651  13.254  1.00  0.00     0.004 C 
BRANCH  37  38
HETATM   38  C2  UNL     1       9.436  18.575  12.226  1.00  0.00    -0.004 C 
HETATM   39  C1  UNL     1       8.501  17.401  12.273  1.00  0.00     0.005 C 
ENDBRANCH  37  38
ENDBRANCH  36  37
ENDBRANCH   1  36
BRANCH   2  40
HETATM   40  O1  UNL     1      13.546  18.764  13.682  1.00  0.00    -0.346 OA
ATOM     41  H1  UNL     1      13.394  18.182  12.947  1.00  0.00     0.219 HD
ENDBRANCH   2  40
BRANCH  21  42
HETATM   42  C22 UNL     1      13.223  18.635  19.419  1.00  0.00     0.038 C 
BRANCH  42  43
HETATM   43  C23 UNL     1      14.610  18.424  19.919  1.00  0.00    -0.020 C 
HETATM   44  C24 UNL     1      15.127  17.163  19.205  1.00  0.00     0.009 C 
HETATM   45  C25 UNL     1      14.699  18.147  21.379  1.00  0.00     0.009 C 
ENDBRANCH  42  43
ENDBRANCH  21  42
BRANCH  16  46
HETATM   46  C18 UNL     1      16.611  20.843  18.999  1.00  0.00     0.147 C 
BRANCH  46  47
HETATM   47  C19 UNL     1      17.573  21.760  19.639  1.00  0.00     0.175 C 
HETATM   48  O4  UNL     1      18.806  21.570  19.492  1.00  0.00    -0.648 OA
HETATM   49  O5  UNL     1      17.160  22.849  20.414  1.00  0.00    -0.648 OA
ENDBRANCH  46  47
ENDBRANCH  16  46
BRANCH  12  50
HETATM   50  C12 UNL     1      17.770  24.293  14.910  1.00  0.00     0.037 C 
BRANCH  50  51
HETATM   51  C13 UNL     1      18.494  25.005  15.972  1.00  0.00    -0.020 C 
HETATM   52  C14 UNL     1      19.179  26.233  15.452  1.00  0.00     0.009 C 
HETATM   53  C15 UNL     1      19.548  24.076  16.571  1.00  0.00     0.009 C 
ENDBRANCH  50  51
ENDBRANCH  12  50
BRANCH  13  54
HETATM   54  O3  UNL     1      15.931  25.032  17.198  1.00  0.00    -0.348 OA
ATOM     55  H3  UNL     1      15.061  25.023  17.581  1.00  0.00     0.219 HD
ENDBRANCH  13  54
TORSDOF 14
ENDMDL
MODEL 4
REMARK VINA RESULT: -8.230270745      2.119     10.226
REMARK  14 active torsions:
REMARK  status: ('A' for Active; 'I' for Inactive)
REMARK    1  A    between atoms: C2_2  and  C3_3 
REMARK    2  A    between atoms: C3_3  and  C4_4 
REMARK    3  A    between atoms: C4_4  and  C5_5 
REMARK    4  A    between atoms: C6_6  and  O1_7 
REMARK    5  A    between atoms: C11_18  and  C12_19 
REMARK    6  A    between atoms: C12_19  and  C13_20 
REMARK    7  A    between atoms: C16_23  and  O3_24 
REMARK    8  A    between atoms: C17_28  and  C18_29 
REMARK    9  A    between atoms: C18_29  and  C19_30 
REMARK   10  A    between atoms: C21_37  and  C22_38 
REMARK   11  A    between atoms: C22_38  and  C23_39 
REMARK   12  A    between atoms: C27_46  and  C28_47 
REMARK   13  A    between atoms: C28_47  and  C29_48 
REMARK   14  A    between atoms: C29_48  and  N6_49 
ROOT
HETATM    1  C5  UNL     1      11.443  19.091  13.985  1.00  0.00    -0.007 C 
HETATM    2  C6  UNL     1      12.757  19.602  13.518  1.00  0.00     0.141 C 
HETATM    3  N1  UNL     1      13.239  20.787  13.053  1.00  0.00    -0.353 N 
ATOM      4  H1  UNL     1      13.360  20.783  12.040  1.00  0.00     0.163 HD
HETATM    5  C7  UNL     1      13.622  22.052  13.648  1.00  0.00     0.105 C 
HETATM    6  C8  UNL     1      12.966  22.423  14.917  1.00  0.00     0.048 C 
HETATM    7  C9  UNL     1      13.226  23.142  12.632  1.00  0.00     0.048 C 
HETATM    8  C10 UNL     1      15.108  22.127  13.694  1.00  0.00     0.245 C 
HETATM    9  O2  UNL     1      15.652  21.780  12.577  1.00  0.00    -0.271 OA
HETATM   10  N2  UNL     1      15.959  22.500  14.730  1.00  0.00    -0.347 N 
ATOM     11  H2  UNL     1      16.567  21.757  15.076  1.00  0.00     0.163 HD
HETATM   12  C11 UNL     1      16.116  23.779  15.395  1.00  0.00     0.159 C 
HETATM   13  C16 UNL     1      16.070  23.726  16.870  1.00  0.00     0.135 C 
HETATM   14  N3  UNL     1      16.383  22.714  17.757  1.00  0.00    -0.359 N 
ATOM     15  H3  UNL     1      17.169  22.922  18.372  1.00  0.00     0.162 HD
HETATM   16  C17 UNL     1      15.790  21.414  17.966  1.00  0.00     0.185 C 
HETATM   17  C20 UNL     1      14.375  21.495  18.436  1.00  0.00     0.241 C 
HETATM   18  O6  UNL     1      13.898  22.688  18.431  1.00  0.00    -0.271 OA
HETATM   19  N4  UNL     1      13.541  20.492  18.860  1.00  0.00    -0.346 N 
ATOM     20  H4  UNL     1      13.086  20.652  19.759  1.00  0.00     0.163 HD
HETATM   21  C21 UNL     1      13.211  19.220  18.204  1.00  0.00     0.177 C 
HETATM   22  C26 UNL     1      11.775  19.234  17.768  1.00  0.00     0.241 C 
HETATM   23  O7  UNL     1      10.915  19.136  18.719  1.00  0.00    -0.271 OA
HETATM   24  N5  UNL     1      11.313  19.343  16.456  1.00  0.00    -0.351 N 
ATOM     25  H5  UNL     1      10.699  20.135  16.263  1.00  0.00     0.163 HD
HETATM   26  C27 UNL     1      11.595  18.473  15.337  1.00  0.00     0.119 C 
ENDROOT
BRANCH  26  27
HETATM   27  C28 UNL     1      10.980  17.098  15.471  1.00  0.00     0.050 C 
BRANCH  27  28
HETATM   28  C29 UNL     1       9.635  17.074  16.121  1.00  0.00     0.130 C 
BRANCH  28  29
HETATM   29  N6  UNL     1       9.366  15.763  16.732  1.00  0.00    -0.366 N 
HETATM   30  C30 UNL     1      10.037  15.316  17.803  1.00  0.00     0.090 A 
HETATM   31  C31 UNL     1       9.781  14.077  18.370  1.00  0.00     0.018 A 
HETATM   32  C32 UNL     1       8.807  13.272  17.821  1.00  0.00     0.009 A 
HETATM   33  C33 UNL     1       8.115  13.729  16.723  1.00  0.00    -0.046 A 
HETATM   34  C34 UNL     1       7.074  12.871  16.141  1.00  0.00     0.049 C 
HETATM   35  C35 UNL     1       8.421  14.967  16.212  1.00  0.00     0.097 A 
ENDBRANCH  28  29
ENDBRANCH  27  28
ENDBRANCH  26  27
BRANCH   1  36
HETATM   36  C4  UNL     1      10.283  19.961  13.734  1.00  0.00     0.041 C 
BRANCH  36  37
HETATM   37  C3  UNL     1       9.168  19.318  12.949  1.00  0.00     0.004 C 
BRANCH  37  38
HETATM   38  C2  UNL     1       9.811  18.164  12.150  1.00  0.00    -0.004 C 
HETATM   39  C1  UNL     1       8.967  17.792  10.965  1.00  0.00     0.005 C 
ENDBRANCH  37  38
ENDBRANCH  36  37
ENDBRANCH   1  36
BRANCH   2  40
HETATM   40  O1  UNL     1      13.614  18.620  13.598  1.00  0.00    -0.346 OA
ATOM     41  H1  UNL     1      13.816  18.341  12.712  1.00  0.00     0.219 HD
ENDBRANCH   2  40
BRANCH  21  42
HETATM   42  C22 UNL     1      13.386  18.195  19.326  1.00  0.00     0.038 C 
BRANCH  42  43
HETATM   43  C23 UNL     1      13.795  18.787  20.629  1.00  0.00    -0.020 C 
HETATM   44  C24 UNL     1      15.142  18.132  20.985  1.00  0.00     0.009 C 
HETATM   45  C25 UNL     1      12.870  18.486  21.756  1.00  0.00     0.009 C 
ENDBRANCH  42  43
ENDBRANCH  21  42
BRANCH  16  46
HETATM   46  C18 UNL     1      16.624  20.627  18.973  1.00  0.00     0.147 C 
BRANCH  46  47
HETATM   47  C19 UNL     1      17.534  21.572  19.650  1.00  0.00     0.175 C 
HETATM   48  O4  UNL     1      18.774  21.467  19.485  1.00  0.00    -0.648 OA
HETATM   49  O5  UNL     1      17.061  22.595  20.479  1.00  0.00    -0.648 OA
ENDBRANCH  46  47
ENDBRANCH  16  46
BRANCH  12  50
HETATM   50  C12 UNL     1      17.506  24.335  15.045  1.00  0.00     0.037 C 
BRANCH  50  51
HETATM   51  C13 UNL     1      18.304  24.815  16.182  1.00  0.00    -0.020 C 
HETATM   52  C14 UNL     1      18.997  26.107  15.871  1.00  0.00     0.009 C 
HETATM   53  C15 UNL     1      19.358  23.767  16.533  1.00  0.00     0.009 C 
ENDBRANCH  50  51
ENDBRANCH  12  50
BRANCH  13  54
HETATM   54  O3  UNL     1      15.659  24.847  17.387  1.00  0.00    -0.348 OA
ATOM     55  H3  UNL     1      15.325  24.733  18.270  1.00  0.00     0.219 HD
ENDBRANCH  13  54
TORSDOF 14
ENDMDL
MODEL 5
REMARK VINA RESULT: -7.882296550      1.643      5.566
REMARK  14 active torsions:
REMARK  status: ('A' for Active; 'I' for Inactive)
REMARK    1  A    between atoms: C2_2  and  C3_3 
REMARK    2  A    between atoms: C3_3  and  C4_4 
REMARK    3  A    between atoms: C4_4  and  C5_5 
REMARK    4  A    between atoms: C6_6  and  O1_7 
REMARK    5  A    between atoms: C11_18  and  C12_19 
REMARK    6  A    between atoms: C12_19  and  C13_20 
REMARK    7  A    between atoms: C16_23  and  O3_24 
REMARK    8  A    between atoms: C17_28  and  C18_29 
REMARK    9  A    between atoms: C18_29  and  C19_30 
REMARK   10  A    between atoms: C21_37  and  C22_38 
REMARK   11  A    between atoms: C22_38  and  C23_39 
REMARK   12  A    between atoms: C27_46  and  C28_47 
REMARK   13  A    between atoms: C28_47  and  C29_48 
REMARK   14  A    between atoms: C29_48  and  N6_49 
ROOT
HETATM    1  C5  UNL     1      14.882  23.440  14.844  1.00  0.00    -0.007 C 
HETATM    2  C6  UNL     1      13.550  23.047  15.371  1.00  0.00     0.141 C 
HETATM    3  N1  UNL     1      12.636  22.076  15.101  1.00  0.00    -0.353 N 
ATOM      4  H1  UNL     1      11.845  22.430  14.561  1.00  0.00     0.163 HD
HETATM    5  C7  UNL     1      12.513  20.661  15.393  1.00  0.00     0.105 C 
HETATM    6  C8  UNL     1      13.766  19.908  15.596  1.00  0.00     0.048 C 
HETATM    7  C9  UNL     1      11.831  20.026  14.166  1.00  0.00     0.048 C 
HETATM    8  C10 UNL     1      11.519  20.485  16.487  1.00  0.00     0.245 C 
HETATM    9  O2  UNL     1      10.445  21.170  16.290  1.00  0.00    -0.271 OA
HETATM   10  N2  UNL     1      11.585  19.720  17.647  1.00  0.00    -0.347 N 
ATOM     11  H2  UNL     1      11.578  20.254  18.517  1.00  0.00     0.163 HD
HETATM   12  C11 UNL     1      11.662  18.281  17.814  1.00  0.00     0.159 C 
HETATM   13  C16 UNL     1      12.738  17.813  18.711  1.00  0.00     0.135 C 
HETATM   14  N3  UNL     1      13.370  18.426  19.777  1.00  0.00    -0.359 N 
ATOM     15  H3  UNL     1      13.220  17.967  20.675  1.00  0.00     0.162 HD
HETATM   16  C17 UNL     1      14.205  19.602  19.839  1.00  0.00     0.185 C 
HETATM   17  C20 UNL     1      15.477  19.447  19.073  1.00  0.00     0.241 C 
HETATM   18  O6  UNL     1      15.535  18.364  18.384  1.00  0.00    -0.271 OA
HETATM   19  N4  UNL     1      16.561  20.285  19.010  1.00  0.00    -0.346 N 
ATOM     20  H4  UNL     1      17.464  19.846  19.190  1.00  0.00     0.163 HD
HETATM   21  C21 UNL     1      16.605  21.724  18.720  1.00  0.00     0.177 C 
HETATM   22  C26 UNL     1      17.273  21.952  17.395  1.00  0.00     0.241 C 
HETATM   23  O7  UNL     1      18.544  21.761  17.385  1.00  0.00    -0.271 OA
HETATM   24  N5  UNL     1      16.644  22.342  16.212  1.00  0.00    -0.351 N 
ATOM     25  H5  UNL     1      16.751  21.708  15.420  1.00  0.00     0.163 HD
HETATM   26  C27 UNL     1      15.861  23.531  15.969  1.00  0.00     0.119 C 
ENDROOT
BRANCH  26  27
HETATM   27  C28 UNL     1      16.674  24.805  15.991  1.00  0.00     0.050 C 
BRANCH  27  28
HETATM   28  C29 UNL     1      17.944  24.752  15.204  1.00  0.00     0.130 C 
BRANCH  28  29
HETATM   29  N6  UNL     1      18.983  25.593  15.818  1.00  0.00    -0.366 N 
HETATM   30  C30 UNL     1      19.567  26.608  15.165  1.00  0.00     0.090 A 
HETATM   31  C31 UNL     1      20.549  27.392  15.749  1.00  0.00     0.018 A 
HETATM   32  C32 UNL     1      20.943  27.128  17.043  1.00  0.00     0.009 A 
HETATM   33  C33 UNL     1      20.344  26.089  17.716  1.00  0.00    -0.046 A 
HETATM   34  C34 UNL     1      20.763  25.810  19.096  1.00  0.00     0.049 C 
HETATM   35  C35 UNL     1      19.378  25.350  17.075  1.00  0.00     0.097 A 
ENDBRANCH  28  29
ENDBRANCH  27  28
ENDBRANCH  26  27
BRANCH   1  36
HETATM   36  C4  UNL     1      15.301  22.787  13.595  1.00  0.00     0.041 C 
BRANCH  36  37
HETATM   37  C3  UNL     1      14.370  22.997  12.427  1.00  0.00     0.004 C 
BRANCH  37  38
HETATM   38  C2  UNL     1      14.098  21.598  11.834  1.00  0.00    -0.004 C 
HETATM   39  C1  UNL     1      14.991  20.565  12.459  1.00  0.00     0.005 C 
ENDBRANCH  37  38
ENDBRANCH  36  37
ENDBRANCH   1  36
BRANCH   2  40
HETATM   40  O1  UNL     1      13.239  23.885  16.325  1.00  0.00    -0.346 OA
ATOM     41  H1  UNL     1      14.040  24.311  16.606  1.00  0.00     0.219 HD
ENDBRANCH   2  40
BRANCH  21  42
HETATM   42  C22 UNL     1      17.498  22.275  19.834  1.00  0.00     0.038 C 
BRANCH  42  43
HETATM   43  C23 UNL     1      17.685  23.752  19.784  1.00  0.00    -0.020 C 
HETATM   44  C24 UNL     1      18.121  24.168  21.200  1.00  0.00     0.009 C 
HETATM   45  C25 UNL     1      16.443  24.517  19.485  1.00  0.00     0.009 C 
ENDBRANCH  42  43
ENDBRANCH  21  42
BRANCH  16  46
HETATM   46  C18 UNL     1      14.516  19.930  21.297  1.00  0.00     0.147 C 
BRANCH  46  47
HETATM   47  C19 UNL     1      15.512  18.956  21.782  1.00  0.00     0.175 C 
HETATM   48  O4  UNL     1      16.442  19.339  22.535  1.00  0.00    -0.648 OA
HETATM   49  O5  UNL     1      15.460  17.603  21.432  1.00  0.00    -0.648 OA
ENDBRANCH  46  47
ENDBRANCH  16  46
BRANCH  12  50
HETATM   50  C12 UNL     1      10.350  17.800  18.457  1.00  0.00     0.037 C 
BRANCH  50  51
HETATM   51  C13 UNL     1       9.637  16.740  17.729  1.00  0.00    -0.020 C 
HETATM   52  C14 UNL     1      10.016  15.376  18.222  1.00  0.00     0.009 C 
HETATM   53  C15 UNL     1       9.978  16.835  16.243  1.00  0.00     0.009 C 
ENDBRANCH  50  51
ENDBRANCH  12  50
BRANCH  13  54
HETATM   54  O3  UNL     1      13.133  16.608  18.416  1.00  0.00    -0.348 OA
ATOM     55  H3  UNL     1      13.615  16.205  19.129  1.00  0.00     0.219 HD
ENDBRANCH  13  54
TORSDOF 14
ENDMDL
