MODEL 1
REMARK VINA RESULT: -5.430455804      0.000      0.000
REMARK  13 active torsions:
REMARK  status: ('A' for Active; 'I' for Inactive)
REMARK    1  A    between atoms: C2_2  and  C3_3 
REMARK    2  A    between atoms: C3_3  and  C4_4 
REMARK    3  A    between atoms: C4_4  and  C5_5 
REMARK    4  A    between atoms: C7_10  and  C8_11 
REMARK    5  A    between atoms: C8_11  and  C9_12 
REMARK    6  A    between atoms: C13_19  and  C14_20 
REMARK    7  A    between atoms: C17_25  and  O3_26 
REMARK    8  A    between atoms: C18_28  and  C19_29 
REMARK    9  A    between atoms: C19_29  and  C20_30 
REMARK   10  A    between atoms: C24_37  and  C25_38 
REMARK   11  A    between atoms: C25_38  and  C26_39 
REMARK   12  A    between atoms: N6_46  and  C30_47 
REMARK   13  A    between atoms: C30_47  and  C32_49 
REMARK       I    between atoms: C32_49  and  N7_51 
ROOT
HETATM    1  C5  UNL     1      25.091  26.751  19.502  1.00  0.00     0.177 C 
HETATM    2  N1  UNL     1      25.030  25.909  18.333  1.00  0.00    -0.346 N 
ATOM      3  H1  UNL     1      24.926  24.918  18.548  1.00  0.00     0.163 HD
HETATM    4  C6  UNL     1      25.084  26.178  16.987  1.00  0.00     0.241 C 
HETATM    5  O1  UNL     1      25.731  25.302  16.284  1.00  0.00    -0.271 OA
HETATM    6  C7  UNL     1      24.540  27.286  16.148  1.00  0.00     0.177 C 
HETATM    7  N2  UNL     1      24.448  28.553  16.800  1.00  0.00    -0.346 N 
ATOM      8  H2  UNL     1      23.597  28.740  17.329  1.00  0.00     0.163 HD
HETATM    9  C12 UNL     1      25.447  29.596  16.778  1.00  0.00     0.241 C 
HETATM   10  O2  UNL     1      25.128  30.785  16.459  1.00  0.00    -0.271 OA
HETATM   11  C13 UNL     1      26.876  29.382  17.117  1.00  0.00     0.179 C 
HETATM   12  N3  UNL     1      27.644  28.920  15.979  1.00  0.00    -0.359 N 
ATOM     13  H3  UNL     1      27.518  29.441  15.112  1.00  0.00     0.162 HD
HETATM   14  C17 UNL     1      28.543  27.839  15.925  1.00  0.00     0.135 C 
HETATM   15  C18 UNL     1      29.697  27.554  16.772  1.00  0.00     0.159 C 
HETATM   16  N4  UNL     1      29.376  27.373  18.189  1.00  0.00    -0.347 N 
ATOM     17  H4  UNL     1      29.057  28.201  18.693  1.00  0.00     0.163 HD
HETATM   18  C23 UNL     1      29.460  26.191  18.924  1.00  0.00     0.241 C 
HETATM   19  O4  UNL     1      29.763  26.264  20.140  1.00  0.00    -0.271 OA
HETATM   20  C24 UNL     1      29.219  24.800  18.386  1.00  0.00     0.178 C 
HETATM   21  N5  UNL     1      27.972  24.231  18.739  1.00  0.00    -0.329 N 
ATOM     22  H5  UNL     1      27.550  23.727  17.960  1.00  0.00     0.165 HD
HETATM   23  C29 UNL     1      27.179  24.185  19.877  1.00  0.00     0.326 C 
HETATM   24  O5  UNL     1      26.724  23.009  20.184  1.00  0.00    -0.247 OA
HETATM   25  N6  UNL     1      26.757  25.188  20.790  1.00  0.00    -0.255 N 
HETATM   26  C34 UNL     1      26.196  26.451  20.437  1.00  0.00     0.251 C 
HETATM   27  O7  UNL     1      26.726  27.471  21.013  1.00  0.00    -0.271 OA
ENDROOT
BRANCH  25  28
HETATM   28  C30 UNL     1      26.859  24.887  22.212  1.00  0.00     0.185 C 
HETATM   29  C31 UNL     1      25.990  25.605  23.144  1.00  0.00     0.043 C 
BRANCH  28  30
HETATM   30  C32 UNL     1      28.277  25.107  22.731  1.00  0.00     0.240 C 
HETATM   31  O6  UNL     1      29.092  24.215  22.833  1.00  0.00    -0.271 OA
HETATM   32  N7  UNL     1      28.611  26.425  23.100  1.00  0.00    -0.364 N 
HETATM   33  C33 UNL     1      29.933  26.765  23.612  1.00  0.00     0.149 C 
ATOM     34  H7  UNL     1      27.910  27.160  23.007  1.00  0.00     0.161 HD
ENDBRANCH  28  30
ENDBRANCH  25  28
BRANCH   1  35
HETATM   35  C4  UNL     1      23.722  26.613  20.154  1.00  0.00     0.035 C 
BRANCH  35  36
HETATM   36  C3  UNL     1      23.214  25.221  20.242  1.00  0.00     0.002 C 
BRANCH  36  37
HETATM   37  C2  UNL     1      22.125  25.239  21.328  1.00  0.00    -0.004 C 
HETATM   38  C1  UNL     1      21.998  26.602  21.944  1.00  0.00     0.005 C 
ENDBRANCH  36  37
ENDBRANCH  35  36
ENDBRANCH   1  35
BRANCH  20  39
HETATM   39  C25 UNL     1      30.456  23.976  18.636  1.00  0.00     0.038 C 
BRANCH  39  40
HETATM   40  C26 UNL     1      31.505  23.942  17.602  1.00  0.00    -0.020 C 
HETATM   41  C27 UNL     1      31.183  24.387  16.230  1.00  0.00     0.009 C 
HETATM   42  C28 UNL     1      32.194  22.568  17.581  1.00  0.00     0.009 C 
ENDBRANCH  39  40
ENDBRANCH  20  39
BRANCH   6  43
HETATM   43  C8  UNL     1      23.229  26.861  15.527  1.00  0.00     0.038 C 
BRANCH  43  44
HETATM   44  C9  UNL     1      21.990  27.501  15.966  1.00  0.00    -0.020 C 
HETATM   45  C10 UNL     1      20.852  27.607  15.018  1.00  0.00     0.009 C 
HETATM   46  C11 UNL     1      21.558  26.817  17.273  1.00  0.00     0.009 C 
ENDBRANCH  43  44
ENDBRANCH   6  43
BRANCH  15  47
HETATM   47  C19 UNL     1      30.834  28.529  16.732  1.00  0.00     0.037 C 
BRANCH  47  48
HETATM   48  C20 UNL     1      31.354  29.076  17.998  1.00  0.00    -0.020 C 
HETATM   49  C21 UNL     1      31.818  30.537  17.675  1.00  0.00     0.009 C 
HETATM   50  C22 UNL     1      32.686  28.396  18.346  1.00  0.00     0.009 C 
ENDBRANCH  47  48
ENDBRANCH  15  47
BRANCH  14  51
HETATM   51  O3  UNL     1      28.296  26.979  14.979  1.00  0.00    -0.348 OA
ATOM     52  H3  UNL     1      27.531  26.437  15.130  1.00  0.00     0.219 HD
ENDBRANCH  14  51
BRANCH  11  53
HETATM   53  C14 UNL     1      27.429  30.691  17.657  1.00  0.00     0.009 C 
HETATM   54  C15 UNL     1      28.053  30.612  19.000  1.00  0.00     0.012 C 
HETATM   55  C16 UNL     1      28.346  31.239  16.581  1.00  0.00     0.012 C 
ENDBRANCH  11  53
TORSDOF 13
ENDMDL
MODEL 2
REMARK VINA RESULT: -5.067810207      1.766      2.135
REMARK  13 active torsions:
REMARK  status: ('A' for Active; 'I' for Inactive)
REMARK    1  A    between atoms: C2_2  and  C3_3 
REMARK    2  A    between atoms: C3_3  and  C4_4 
REMARK    3  A    between atoms: C4_4  and  C5_5 
REMARK    4  A    between atoms: C7_10  and  C8_11 
REMARK    5  A    between atoms: C8_11  and  C9_12 
REMARK    6  A    between atoms: C13_19  and  C14_20 
REMARK    7  A    between atoms: C17_25  and  O3_26 
REMARK    8  A    between atoms: C18_28  and  C19_29 
REMARK    9  A    between atoms: C19_29  and  C20_30 
REMARK   10  A    between atoms: C24_37  and  C25_38 
REMARK   11  A    between atoms: C25_38  and  C26_39 
REMARK   12  A    between atoms: N6_46  and  C30_47 
REMARK   13  A    between atoms: C30_47  and  C32_49 
REMARK       I    between atoms: C32_49  and  N7_51 
ROOT
HETATM    1  C5  UNL     1      26.424  27.137  19.105  1.00  0.00     0.177 C 
HETATM    2  N1  UNL     1      26.156  26.318  17.949  1.00  0.00    -0.346 N 
ATOM      3  H1  UNL     1      26.246  25.318  18.127  1.00  0.00     0.163 HD
HETATM    4  C6  UNL     1      25.802  26.618  16.656  1.00  0.00     0.241 C 
HETATM    5  O1  UNL     1      26.341  25.856  15.755  1.00  0.00    -0.271 OA
HETATM    6  C7  UNL     1      24.908  27.653  16.059  1.00  0.00     0.177 C 
HETATM    7  N2  UNL     1      24.832  28.882  16.784  1.00  0.00    -0.346 N 
ATOM      8  H2  UNL     1      24.142  28.935  17.532  1.00  0.00     0.163 HD
HETATM    9  C12 UNL     1      25.640  30.056  16.554  1.00  0.00     0.241 C 
HETATM   10  O2  UNL     1      25.092  31.193  16.401  1.00  0.00    -0.271 OA
HETATM   11  C13 UNL     1      27.123  30.041  16.482  1.00  0.00     0.179 C 
HETATM   12  N3  UNL     1      27.603  29.715  15.156  1.00  0.00    -0.359 N 
ATOM     13  H3  UNL     1      27.176  30.230  14.385  1.00  0.00     0.162 HD
HETATM   14  C17 UNL     1      28.587  28.774  14.800  1.00  0.00     0.135 C 
HETATM   15  C18 UNL     1      29.955  28.641  15.287  1.00  0.00     0.159 C 
HETATM   16  N4  UNL     1      30.063  28.389  16.726  1.00  0.00    -0.347 N 
ATOM     17  H4  UNL     1      29.789  29.153  17.343  1.00  0.00     0.163 HD
HETATM   18  C23 UNL     1      30.500  27.216  17.342  1.00  0.00     0.241 C 
HETATM   19  O4  UNL     1      31.113  27.309  18.433  1.00  0.00    -0.271 OA
HETATM   20  C24 UNL     1      30.306  25.815  16.810  1.00  0.00     0.178 C 
HETATM   21  N5  UNL     1      29.290  25.068  17.452  1.00  0.00    -0.329 N 
ATOM     22  H5  UNL     1      28.740  24.524  16.787  1.00  0.00     0.165 HD
HETATM   23  C29 UNL     1      28.853  24.888  18.756  1.00  0.00     0.326 C 
HETATM   24  O5  UNL     1      28.659  23.654  19.107  1.00  0.00    -0.247 OA
HETATM   25  N6  UNL     1      28.569  25.803  19.805  1.00  0.00    -0.255 N 
HETATM   26  C34 UNL     1      27.772  26.980  19.690  1.00  0.00     0.251 C 
HETATM   27  O7  UNL     1      28.300  28.053  20.160  1.00  0.00    -0.271 OA
ENDROOT
BRANCH  25  28
HETATM   28  C30 UNL     1      29.097  25.492  21.127  1.00  0.00     0.185 C 
HETATM   29  C31 UNL     1      28.425  26.055  22.299  1.00  0.00     0.043 C 
BRANCH  28  30
HETATM   30  C32 UNL     1      30.558  25.910  21.261  1.00  0.00     0.240 C 
HETATM   31  O6  UNL     1      31.485  25.146  21.091  1.00  0.00    -0.271 OA
HETATM   32  N7  UNL     1      30.796  27.256  21.600  1.00  0.00    -0.364 N 
HETATM   33  C33 UNL     1      32.148  27.778  21.759  1.00  0.00     0.149 C 
ATOM     34  H7  UNL     1      30.002  27.882  21.738  1.00  0.00     0.161 HD
ENDBRANCH  28  30
ENDBRANCH  25  28
BRANCH   1  35
HETATM   35  C4  UNL     1      25.317  26.793  20.092  1.00  0.00     0.035 C 
BRANCH  35  36
HETATM   36  C3  UNL     1      25.008  25.345  20.199  1.00  0.00     0.002 C 
BRANCH  36  37
HETATM   37  C2  UNL     1      24.111  25.197  21.440  1.00  0.00    -0.004 C 
HETATM   38  C1  UNL     1      22.855  24.444  21.111  1.00  0.00     0.005 C 
ENDBRANCH  36  37
ENDBRANCH  35  36
ENDBRANCH   1  35
BRANCH  20  39
HETATM   39  C25 UNL     1      31.662  25.172  16.670  1.00  0.00     0.038 C 
BRANCH  39  40
HETATM   40  C26 UNL     1      31.939  24.358  15.474  1.00  0.00    -0.020 C 
HETATM   41  C27 UNL     1      31.139  24.573  14.250  1.00  0.00     0.009 C 
HETATM   42  C28 UNL     1      31.986  22.866  15.838  1.00  0.00     0.009 C 
ENDBRANCH  39  40
ENDBRANCH  20  39
BRANCH   6  43
HETATM   43  C8  UNL     1      23.545  27.058  15.790  1.00  0.00     0.038 C 
BRANCH  43  44
HETATM   44  C9  UNL     1      22.383  27.581  16.508  1.00  0.00    -0.020 C 
HETATM   45  C10 UNL     1      21.073  27.658  15.811  1.00  0.00     0.009 C 
HETATM   46  C11 UNL     1      22.263  26.795  17.823  1.00  0.00     0.009 C 
ENDBRANCH  43  44
ENDBRANCH   6  43
BRANCH  15  47
HETATM   47  C19 UNL     1      30.899  29.768  14.999  1.00  0.00     0.037 C 
BRANCH  47  48
HETATM   48  C20 UNL     1      31.937  29.589  13.968  1.00  0.00    -0.020 C 
HETATM   49  C21 UNL     1      31.258  29.965  12.607  1.00  0.00     0.009 C 
HETATM   50  C22 UNL     1      32.219  28.092  13.772  1.00  0.00     0.009 C 
ENDBRANCH  47  48
ENDBRANCH  15  47
BRANCH  14  51
HETATM   51  O3  UNL     1      28.205  27.906  13.907  1.00  0.00    -0.348 OA
ATOM     52  H3  UNL     1      28.896  27.335  13.593  1.00  0.00     0.219 HD
ENDBRANCH  14  51
BRANCH  11  53
HETATM   53  C14 UNL     1      27.626  31.405  16.928  1.00  0.00     0.009 C 
HETATM   54  C15 UNL     1      28.576  31.392  18.067  1.00  0.00     0.012 C 
HETATM   55  C16 UNL     1      28.162  32.086  15.684  1.00  0.00     0.012 C 
ENDBRANCH  11  53
TORSDOF 13
ENDMDL
MODEL 3
REMARK VINA RESULT: -4.921148314      2.339      5.727
REMARK  13 active torsions:
REMARK  status: ('A' for Active; 'I' for Inactive)
REMARK    1  A    between atoms: C2_2  and  C3_3 
REMARK    2  A    between atoms: C3_3  and  C4_4 
REMARK    3  A    between atoms: C4_4  and  C5_5 
REMARK    4  A    between atoms: C7_10  and  C8_11 
REMARK    5  A    between atoms: C8_11  and  C9_12 
REMARK    6  A    between atoms: C13_19  and  C14_20 
REMARK    7  A    between atoms: C17_25  and  O3_26 
REMARK    8  A    between atoms: C18_28  and  C19_29 
REMARK    9  A    between atoms: C19_29  and  C20_30 
REMARK   10  A    between atoms: C24_37  and  C25_38 
REMARK   11  A    between atoms: C25_38  and  C26_39 
REMARK   12  A    between atoms: N6_46  and  C30_47 
REMARK   13  A    between atoms: C30_47  and  C32_49 
REMARK       I    between atoms: C32_49  and  N7_51 
ROOT
HETATM    1  C5  UNL     1      27.183  25.004  22.030  1.00  0.00     0.177 C 
HETATM    2  N1  UNL     1      28.001  24.354  21.037  1.00  0.00    -0.346 N 
ATOM      3  H1  UNL     1      29.001  24.409  21.229  1.00  0.00     0.163 HD
HETATM    4  C6  UNL     1      27.700  23.674  19.882  1.00  0.00     0.241 C 
HETATM    5  O1  UNL     1      28.528  23.872  18.904  1.00  0.00    -0.271 OA
HETATM    6  C7  UNL     1      26.602  22.735  19.510  1.00  0.00     0.177 C 
HETATM    7  N2  UNL     1      25.355  22.967  20.167  1.00  0.00    -0.346 N 
ATOM      8  H2  UNL     1      25.222  22.524  21.076  1.00  0.00     0.163 HD
HETATM    9  C12 UNL     1      24.265  23.770  19.664  1.00  0.00     0.241 C 
HETATM   10  O2  UNL     1      23.086  23.295  19.616  1.00  0.00    -0.271 OA
HETATM   11  C13 UNL     1      24.417  25.165  19.180  1.00  0.00     0.179 C 
HETATM   12  N3  UNL     1      24.816  25.222  17.790  1.00  0.00    -0.359 N 
ATOM     13  H3  UNL     1      24.282  24.637  17.146  1.00  0.00     0.162 HD
HETATM   14  C17 UNL     1      25.851  25.984  17.218  1.00  0.00     0.135 C 
HETATM   15  C18 UNL     1      26.098  27.419  17.308  1.00  0.00     0.159 C 
HETATM   16  N4  UNL     1      26.325  27.909  18.669  1.00  0.00    -0.347 N 
ATOM     17  H4  UNL     1      25.525  27.884  19.302  1.00  0.00     0.163 HD
HETATM   18  C23 UNL     1      27.518  28.406  19.194  1.00  0.00     0.241 C 
HETATM   19  O4  UNL     1      27.457  29.309  20.064  1.00  0.00    -0.271 OA
HETATM   20  C24 UNL     1      28.908  27.956  18.805  1.00  0.00     0.178 C 
HETATM   21  N5  UNL     1      29.543  27.107  19.741  1.00  0.00    -0.329 N 
ATOM     22  H5  UNL     1      30.050  26.349  19.284  1.00  0.00     0.165 HD
HETATM   23  C29 UNL     1      29.652  27.044  21.123  1.00  0.00     0.326 C 
HETATM   24  O5  UNL     1      30.856  26.858  21.573  1.00  0.00    -0.247 OA
HETATM   25  N6  UNL     1      28.692  27.144  22.164  1.00  0.00    -0.255 N 
HETATM   26  C34 UNL     1      27.450  26.446  22.221  1.00  0.00     0.251 C 
HETATM   27  O7  UNL     1      26.419  27.171  22.471  1.00  0.00    -0.271 OA
ENDROOT
BRANCH  25  28
HETATM   28  C30 UNL     1      29.018  27.998  23.299  1.00  0.00     0.185 C 
HETATM   29  C31 UNL     1      28.387  27.720  24.590  1.00  0.00     0.043 C 
BRANCH  28  30
HETATM   30  C32 UNL     1      28.710  29.463  23.007  1.00  0.00     0.240 C 
HETATM   31  O6  UNL     1      27.738  30.038  23.449  1.00  0.00    -0.271 OA
HETATM   32  N7  UNL     1      29.625  30.142  22.177  1.00  0.00    -0.364 N 
HETATM   33  C33 UNL     1      29.442  31.544  21.822  1.00  0.00     0.149 C 
ATOM     34  H7  UNL     1      30.436  29.640  21.817  1.00  0.00     0.161 HD
ENDBRANCH  28  30
ENDBRANCH  25  28
BRANCH   1  35
HETATM   35  C4  UNL     1      27.402  24.198  23.304  1.00  0.00     0.035 C 
BRANCH  35  36
HETATM   36  C3  UNL     1      28.813  23.819  23.564  1.00  0.00     0.002 C 
BRANCH  36  37
HETATM   37  C2  UNL     1      28.774  22.358  24.042  1.00  0.00    -0.004 C 
HETATM   38  C1  UNL     1      28.941  21.408  22.892  1.00  0.00     0.005 C 
ENDBRANCH  36  37
ENDBRANCH  35  36
ENDBRANCH   1  35
BRANCH  20  39
HETATM   39  C25 UNL     1      29.675  29.160  18.322  1.00  0.00     0.038 C 
BRANCH  39  40
HETATM   40  C26 UNL     1      30.204  29.157  16.948  1.00  0.00    -0.020 C 
HETATM   41  C27 UNL     1      29.871  30.276  16.041  1.00  0.00     0.009 C 
HETATM   42  C28 UNL     1      29.928  27.806  16.268  1.00  0.00     0.009 C 
ENDBRANCH  39  40
ENDBRANCH  20  39
BRANCH   6  43
HETATM   43  C8  UNL     1      27.076  21.308  19.663  1.00  0.00     0.038 C 
BRANCH  43  44
HETATM   44  C9  UNL     1      26.100  20.221  19.602  1.00  0.00    -0.020 C 
HETATM   45  C10 UNL     1      25.567  19.796  18.282  1.00  0.00     0.009 C 
HETATM   46  C11 UNL     1      26.692  19.028  20.368  1.00  0.00     0.009 C 
ENDBRANCH  43  44
ENDBRANCH   6  43
BRANCH  15  47
HETATM   47  C19 UNL     1      25.069  28.331  16.713  1.00  0.00     0.037 C 
BRANCH  47  48
HETATM   48  C20 UNL     1      25.487  29.331  15.715  1.00  0.00    -0.020 C 
HETATM   49  C21 UNL     1      26.686  28.686  14.939  1.00  0.00     0.009 C 
HETATM   50  C22 UNL     1      26.171  30.511  16.421  1.00  0.00     0.009 C 
ENDBRANCH  47  48
ENDBRANCH  15  47
BRANCH  14  51
HETATM   51  O3  UNL     1      26.701  25.296  16.511  1.00  0.00    -0.348 OA
ATOM     52  H3  UNL     1      26.513  24.366  16.466  1.00  0.00     0.219 HD
ENDBRANCH  14  51
BRANCH  11  53
HETATM   53  C14 UNL     1      23.095  25.883  19.402  1.00  0.00     0.009 C 
HETATM   54  C15 UNL     1      23.094  26.897  20.483  1.00  0.00     0.012 C 
HETATM   55  C16 UNL     1      22.675  26.422  18.049  1.00  0.00     0.012 C 
ENDBRANCH  11  53
TORSDOF 13
ENDMDL
MODEL 4
REMARK VINA RESULT: -4.783415470      2.300      6.378
REMARK  13 active torsions:
REMARK  status: ('A' for Active; 'I' for Inactive)
REMARK    1  A    between atoms: C2_2  and  C3_3 
REMARK    2  A    between atoms: C3_3  and  C4_4 
REMARK    3  A    between atoms: C4_4  and  C5_5 
REMARK    4  A    between atoms: C7_10  and  C8_11 
REMARK    5  A    between atoms: C8_11  and  C9_12 
REMARK    6  A    between atoms: C13_19  and  C14_20 
REMARK    7  A    between atoms: C17_25  and  O3_26 
REMARK    8  A    between atoms: C18_28  and  C19_29 
REMARK    9  A    between atoms: C19_29  and  C20_30 
REMARK   10  A    between atoms: C24_37  and  C25_38 
REMARK   11  A    between atoms: C25_38  and  C26_39 
REMARK   12  A    between atoms: N6_46  and  C30_47 
REMARK   13  A    between atoms: C30_47  and  C32_49 
REMARK       I    between atoms: C32_49  and  N7_51 
ROOT
HETATM    1  C5  UNL     1      27.988  25.738  21.730  1.00  0.00     0.177 C 
HETATM    2  N1  UNL     1      28.637  25.071  20.629  1.00  0.00    -0.346 N 
ATOM      3  H1  UNL     1      29.626  25.301  20.536  1.00  0.00     0.163 HD
HETATM    4  C6  UNL     1      28.186  24.186  19.680  1.00  0.00     0.241 C 
HETATM    5  O1  UNL     1      28.694  24.352  18.498  1.00  0.00    -0.271 OA
HETATM    6  C7  UNL     1      27.219  23.051  19.724  1.00  0.00     0.177 C 
HETATM    7  N2  UNL     1      26.154  23.196  20.665  1.00  0.00    -0.346 N 
ATOM      8  H2  UNL     1      26.334  22.882  21.618  1.00  0.00     0.163 HD
HETATM    9  C12 UNL     1      24.846  23.744  20.393  1.00  0.00     0.241 C 
HETATM   10  O2  UNL     1      23.799  23.101  20.718  1.00  0.00    -0.271 OA
HETATM   11  C13 UNL     1      24.618  25.057  19.737  1.00  0.00     0.179 C 
HETATM   12  N3  UNL     1      24.641  24.959  18.293  1.00  0.00    -0.359 N 
ATOM     13  H3  UNL     1      24.079  24.211  17.886  1.00  0.00     0.162 HD
HETATM   14  C17 UNL     1      25.345  25.768  17.383  1.00  0.00     0.135 C 
HETATM   15  C18 UNL     1      25.342  27.221  17.247  1.00  0.00     0.159 C 
HETATM   16  N4  UNL     1      25.809  27.940  18.433  1.00  0.00    -0.347 N 
ATOM     17  H4  UNL     1      25.209  27.895  19.258  1.00  0.00     0.163 HD
HETATM   18  C23 UNL     1      26.984  28.680  18.558  1.00  0.00     0.241 C 
HETATM   19  O4  UNL     1      26.979  29.686  19.308  1.00  0.00    -0.271 OA
HETATM   20  C24 UNL     1      28.291  28.385  17.858  1.00  0.00     0.178 C 
HETATM   21  N5  UNL     1      29.283  27.790  18.673  1.00  0.00    -0.329 N 
ATOM     22  H5  UNL     1      29.788  27.054  18.181  1.00  0.00     0.165 HD
HETATM   23  C29 UNL     1      29.742  27.955  19.972  1.00  0.00     0.326 C 
HETATM   24  O5  UNL     1      31.033  28.017  20.096  1.00  0.00    -0.247 OA
HETATM   25  N6  UNL     1      29.069  28.071  21.217  1.00  0.00    -0.255 N 
HETATM   26  C34 UNL     1      28.029  27.215  21.684  1.00  0.00     0.251 C 
HETATM   27  O7  UNL     1      26.979  27.811  22.124  1.00  0.00    -0.271 OA
ENDROOT
BRANCH  25  28
HETATM   28  C30 UNL     1      29.508  29.126  22.121  1.00  0.00     0.185 C 
HETATM   29  C31 UNL     1      29.154  29.028  23.538  1.00  0.00     0.043 C 
BRANCH  28  30
HETATM   30  C32 UNL     1      29.004  30.495  21.674  1.00  0.00     0.240 C 
HETATM   31  O6  UNL     1      29.617  31.212  20.911  1.00  0.00    -0.271 OA
HETATM   32  N7  UNL     1      27.762  30.906  22.198  1.00  0.00    -0.364 N 
HETATM   33  C33 UNL     1      27.173  32.193  21.849  1.00  0.00     0.149 C 
ATOM     34  H7  UNL     1      27.263  30.288  22.837  1.00  0.00     0.161 HD
ENDBRANCH  28  30
ENDBRANCH  25  28
BRANCH   1  35
HETATM   35  C4  UNL     1      28.660  25.176  22.976  1.00  0.00     0.035 C 
BRANCH  35  36
HETATM   36  C3  UNL     1      27.880  24.129  23.683  1.00  0.00     0.002 C 
BRANCH  36  37
HETATM   37  C2  UNL     1      26.474  24.717  23.885  1.00  0.00    -0.004 C 
HETATM   38  C1  UNL     1      26.413  25.558  25.127  1.00  0.00     0.005 C 
ENDBRANCH  36  37
ENDBRANCH  35  36
ENDBRANCH   1  35
BRANCH  20  39
HETATM   39  C25 UNL     1      28.682  29.600  17.057  1.00  0.00     0.038 C 
BRANCH  39  40
HETATM   40  C26 UNL     1      28.184  29.729  15.678  1.00  0.00    -0.020 C 
HETATM   41  C27 UNL     1      26.938  30.485  15.426  1.00  0.00     0.009 C 
HETATM   42  C28 UNL     1      28.133  28.354  14.993  1.00  0.00     0.009 C 
ENDBRANCH  39  40
ENDBRANCH  20  39
BRANCH   6  43
HETATM   43  C8  UNL     1      27.966  21.749  19.897  1.00  0.00     0.038 C 
BRANCH  43  44
HETATM   44  C9  UNL     1      27.211  20.511  20.085  1.00  0.00    -0.020 C 
HETATM   45  C10 UNL     1      26.066  20.215  19.186  1.00  0.00     0.009 C 
HETATM   46  C11 UNL     1      28.220  19.353  20.092  1.00  0.00     0.009 C 
ENDBRANCH  43  44
ENDBRANCH   6  43
BRANCH  15  47
HETATM   47  C19 UNL     1      24.049  27.871  16.858  1.00  0.00     0.037 C 
BRANCH  47  48
HETATM   48  C20 UNL     1      22.885  27.023  16.547  1.00  0.00    -0.020 C 
HETATM   49  C21 UNL     1      22.867  26.872  14.988  1.00  0.00     0.009 C 
HETATM   50  C22 UNL     1      21.590  27.811  16.799  1.00  0.00     0.009 C 
ENDBRANCH  47  48
ENDBRANCH  15  47
BRANCH  14  51
HETATM   51  O3  UNL     1      26.102  25.112  16.551  1.00  0.00    -0.348 OA
ATOM     52  H3  UNL     1      26.386  25.615  15.797  1.00  0.00     0.219 HD
ENDBRANCH  14  51
BRANCH  11  53
HETATM   53  C14 UNL     1      23.285  25.599  20.230  1.00  0.00     0.009 C 
HETATM   54  C15 UNL     1      23.222  27.070  20.408  1.00  0.00     0.012 C 
HETATM   55  C16 UNL     1      22.231  25.044  19.292  1.00  0.00     0.012 C 
ENDBRANCH  11  53
TORSDOF 13
ENDMDL
MODEL 5
REMARK VINA RESULT: -4.776499459      2.033      6.458
REMARK  13 active torsions:
REMARK  status: ('A' for Active; 'I' for Inactive)
REMARK    1  A    between atoms: C2_2  and  C3_3 
REMARK    2  A    between atoms: C3_3  and  C4_4 
REMARK    3  A    between atoms: C4_4  and  C5_5 
REMARK    4  A    between atoms: C7_10  and  C8_11 
REMARK    5  A    between atoms: C8_11  and  C9_12 
REMARK    6  A    between atoms: C13_19  and  C14_20 
REMARK    7  A    between atoms: C17_25  and  O3_26 
REMARK    8  A    between atoms: C18_28  and  C19_29 
REMARK    9  A    between atoms: C19_29  and  C20_30 
REMARK   10  A    between atoms: C24_37  and  C25_38 
REMARK   11  A    between atoms: C25_38  and  C26_39 
REMARK   12  A    between atoms: N6_46  and  C30_47 
REMARK   13  A    between atoms: C30_47  and  C32_49 
REMARK       I    between atoms: C32_49  and  N7_51 
ROOT
HETATM    1  C5  UNL     1      25.014  26.538  16.877  1.00  0.00     0.177 C 
HETATM    2  N1  UNL     1      24.202  27.197  17.870  1.00  0.00    -0.346 N 
ATOM      3  H1  UNL     1      23.955  28.156  17.627  1.00  0.00     0.163 HD
HETATM    4  C6  UNL     1      23.696  26.788  19.080  1.00  0.00     0.241 C 
HETATM    5  O1  UNL     1      23.691  27.700  20.002  1.00  0.00    -0.271 OA
HETATM    6  C7  UNL     1      23.137  25.492  19.564  1.00  0.00     0.177 C 
HETATM    7  N2  UNL     1      23.690  24.325  18.954  1.00  0.00    -0.346 N 
ATOM      8  H2  UNL     1      23.262  24.012  18.083  1.00  0.00     0.163 HD
HETATM    9  C12 UNL     1      24.799  23.547  19.455  1.00  0.00     0.241 C 
HETATM   10  O2  UNL     1      24.691  22.288  19.591  1.00  0.00    -0.271 OA
HETATM   11  C13 UNL     1      26.111  24.126  19.840  1.00  0.00     0.179 C 
HETATM   12  N3  UNL     1      26.115  24.614  21.203  1.00  0.00    -0.359 N 
ATOM     13  H3  UNL     1      25.743  23.977  21.908  1.00  0.00     0.162 HD
HETATM   14  C17 UNL     1      26.570  25.859  21.674  1.00  0.00     0.135 C 
HETATM   15  C18 UNL     1      27.865  26.503  21.479  1.00  0.00     0.159 C 
HETATM   16  N4  UNL     1      28.201  26.773  20.080  1.00  0.00    -0.347 N 
ATOM     17  H4  UNL     1      28.380  25.960  19.490  1.00  0.00     0.163 HD
HETATM   18  C23 UNL     1      28.303  28.022  19.468  1.00  0.00     0.241 C 
HETATM   19  O4  UNL     1      29.141  28.167  18.545  1.00  0.00    -0.271 OA
HETATM   20  C24 UNL     1      27.487  29.245  19.817  1.00  0.00     0.178 C 
HETATM   21  N5  UNL     1      26.445  29.547  18.909  1.00  0.00    -0.329 N 
ATOM     22  H5  UNL     1      25.596  29.843  19.389  1.00  0.00     0.165 HD
HETATM   23  C29 UNL     1      26.288  29.544  17.531  1.00  0.00     0.326 C 
HETATM   24  O5  UNL     1      25.737  30.611  17.037  1.00  0.00    -0.247 OA
HETATM   25  N6  UNL     1      26.613  28.588  16.533  1.00  0.00    -0.255 N 
HETATM   26  C34 UNL     1      26.304  27.196  16.581  1.00  0.00     0.251 C 
HETATM   27  O7  UNL     1      27.285  26.404  16.334  1.00  0.00    -0.271 OA
ENDROOT
BRANCH  25  28
HETATM   28  C30 UNL     1      27.279  29.072  15.330  1.00  0.00     0.185 C 
HETATM   29  C31 UNL     1      27.205  28.262  14.114  1.00  0.00     0.043 C 
BRANCH  28  30
HETATM   30  C32 UNL     1      28.767  29.307  15.569  1.00  0.00     0.240 C 
HETATM   31  O6  UNL     1      29.230  30.390  15.859  1.00  0.00    -0.271 OA
HETATM   32  N7  UNL     1      29.607  28.184  15.435  1.00  0.00    -0.364 N 
HETATM   33  C33 UNL     1      31.048  28.278  15.636  1.00  0.00     0.149 C 
ATOM     34  H7  UNL     1      29.197  27.283  15.191  1.00  0.00     0.161 HD
ENDBRANCH  28  30
ENDBRANCH  25  28
BRANCH   1  35
HETATM   35  C4  UNL     1      24.119  26.433  15.650  1.00  0.00     0.035 C 
BRANCH  35  36
HETATM   36  C3  UNL     1      22.830  27.160  15.757  1.00  0.00     0.002 C 
BRANCH  36  37
HETATM   37  C2  UNL     1      21.893  26.509  14.726  1.00  0.00    -0.004 C 
HETATM   38  C1  UNL     1      20.686  27.366  14.475  1.00  0.00     0.005 C 
ENDBRANCH  36  37
ENDBRANCH  35  36
ENDBRANCH   1  35
BRANCH  20  39
HETATM   39  C25 UNL     1      28.437  30.356  20.184  1.00  0.00     0.038 C 
BRANCH  39  40
HETATM   40  C26 UNL     1      29.257  30.215  21.399  1.00  0.00    -0.020 C 
HETATM   41  C27 UNL     1      28.595  29.945  22.693  1.00  0.00     0.009 C 
HETATM   42  C28 UNL     1      30.238  31.392  21.526  1.00  0.00     0.009 C 
ENDBRANCH  39  40
ENDBRANCH  20  39
BRANCH   6  43
HETATM   43  C8  UNL     1      21.627  25.524  19.481  1.00  0.00     0.038 C 
BRANCH  43  44
HETATM   44  C9  UNL     1      20.840  25.121  20.645  1.00  0.00    -0.020 C 
HETATM   45  C10 UNL     1      20.944  23.726  21.145  1.00  0.00     0.009 C 
HETATM   46  C11 UNL     1      21.127  26.131  21.767  1.00  0.00     0.009 C 
ENDBRANCH  43  44
ENDBRANCH   6  43
BRANCH  15  47
HETATM   47  C19 UNL     1      29.065  25.821  22.062  1.00  0.00     0.037 C 
BRANCH  47  48
HETATM   48  C20 UNL     1      30.284  25.691  21.245  1.00  0.00    -0.020 C 
HETATM   49  C21 UNL     1      30.904  24.302  21.619  1.00  0.00     0.009 C 
HETATM   50  C22 UNL     1      31.357  26.661  21.760  1.00  0.00     0.009 C 
ENDBRANCH  47  48
ENDBRANCH  15  47
BRANCH  14  51
HETATM   51  O3  UNL     1      25.699  26.519  22.383  1.00  0.00    -0.348 OA
ATOM     52  H3  UNL     1      25.953  26.660  23.287  1.00  0.00     0.219 HD
ENDBRANCH  14  51
BRANCH  11  53
HETATM   53  C14 UNL     1      27.171  23.056  19.636  1.00  0.00     0.009 C 
HETATM   54  C15 UNL     1      28.388  23.494  18.912  1.00  0.00     0.012 C 
HETATM   55  C16 UNL     1      27.446  22.466  21.006  1.00  0.00     0.012 C 
ENDBRANCH  11  53
TORSDOF 13
ENDMDL
