MODEL 1
REMARK VINA RESULT: -6.532757599      0.000      0.000
REMARK  15 active torsions:
REMARK  status: ('A' for Active; 'I' for Inactive)
REMARK    1  A    between atoms: N1_7  and  C7_8 
REMARK    2  A    between atoms: C7_8  and  C8_9 
REMARK    3  A    between atoms: C8_9  and  C9_10 
REMARK    4  A    between atoms: C9_10  and  C10_11 
REMARK    5  A    between atoms: C10_11  and  C11_12 
REMARK    6  A    between atoms: C11_12  and  C12_13 
REMARK    7  A    between atoms: C12_13  and  C13_14 
REMARK    8  A    between atoms: C15_19  and  C16_20 
REMARK    9  A    between atoms: C16_20  and  C17_21 
REMARK   10  A    between atoms: C17_21  and  C18_22 
REMARK   11  A    between atoms: C18_22  and  C19_23 
REMARK   12  A    between atoms: C20_27  and  O2_28 
REMARK   13  A    between atoms: C21_32  and  O3_33 
REMARK   14  A    between atoms: C22_35  and  C23_36 
REMARK   15  A    between atoms: C30_49  and  C31_50 
ROOT
HETATM    1  C13 UNL     1      13.955  22.287  15.433  1.00  0.00     0.176 C 
HETATM    2  N2  UNL     1      14.842  21.361  14.784  1.00  0.00    -0.346 N 
ATOM      3  H2  UNL     1      15.820  21.400  15.071  1.00  0.00     0.163 HD
HETATM    4  C14 UNL     1      14.522  20.407  13.799  1.00  0.00     0.241 C 
HETATM    5  O1  UNL     1      15.216  20.430  12.707  1.00  0.00    -0.271 OA
HETATM    6  C15 UNL     1      13.465  19.367  13.881  1.00  0.00     0.177 C 
HETATM    7  N3  UNL     1      12.205  19.784  13.282  1.00  0.00    -0.343 N 
ATOM      8  H3  UNL     1      12.242  19.936  12.274  1.00  0.00     0.164 HD
HETATM    9  C20 UNL     1      10.967  20.008  13.855  1.00  0.00     0.219 C 
HETATM   10  N4  UNL     1      10.082  19.199  14.597  1.00  0.00    -0.305 N 
ATOM     11  H4  UNL     1       9.296  19.731  14.971  1.00  0.00     0.171 HD
HETATM   12  C21 UNL     1      10.018  17.866  14.941  1.00  0.00     0.142 C 
HETATM   13  C22 UNL     1      10.898  16.920  15.624  1.00  0.00     0.162 C 
HETATM   14  N5  UNL     1      11.047  17.004  17.025  1.00  0.00    -0.347 N 
ATOM     15  H5  UNL     1      11.270  16.111  17.465  1.00  0.00     0.163 HD
HETATM   16  C26 UNL     1      10.950  18.073  17.937  1.00  0.00     0.240 C 
HETATM   17  O4  UNL     1      10.179  18.025  18.944  1.00  0.00    -0.271 OA
HETATM   18  C27 UNL     1      11.682  19.373  17.906  1.00  0.00     0.172 C 
HETATM   19  C28 UNL     1      10.607  20.452  18.115  1.00  0.00     0.042 C 
HETATM   20  N6  UNL     1      12.680  19.453  18.949  1.00  0.00    -0.346 N 
ATOM     21  H6  UNL     1      12.320  19.576  19.895  1.00  0.00     0.163 HD
HETATM   22  C29 UNL     1      14.085  19.384  18.833  1.00  0.00     0.241 C 
HETATM   23  O5  UNL     1      14.748  18.630  19.603  1.00  0.00    -0.271 OA
HETATM   24  C30 UNL     1      14.922  20.126  17.868  1.00  0.00     0.180 C 
HETATM   25  N7  UNL     1      14.679  21.539  17.811  1.00  0.00    -0.346 N 
ATOM     26  H7  UNL     1      15.091  22.069  18.580  1.00  0.00     0.163 HD
HETATM   27  C34 UNL     1      13.981  22.308  16.896  1.00  0.00     0.241 C 
HETATM   28  O6  UNL     1      13.209  23.210  17.400  1.00  0.00    -0.271 OA
ENDROOT
BRANCH   1  29
HETATM   29  C12 UNL     1      14.192  23.712  14.885  1.00  0.00     0.035 C 
BRANCH  29  30
HETATM   30  C11 UNL     1      15.621  23.841  14.408  1.00  0.00     0.002 C 
BRANCH  30  31
HETATM   31  C10 UNL     1      16.418  24.454  15.552  1.00  0.00     0.000 C 
BRANCH  31  32
HETATM   32  C9  UNL     1      17.769  23.762  15.546  1.00  0.00     0.002 C 
BRANCH  32  33
HETATM   33  C8  UNL     1      18.864  24.682  16.006  1.00  0.00     0.020 C 
BRANCH  33  34
HETATM   34  C7  UNL     1      18.392  25.360  17.279  1.00  0.00     0.128 C 
BRANCH  34  35
HETATM   35  N1  UNL     1      19.022  24.716  18.404  1.00  0.00    -0.360 N 
HETATM   36  C2  UNL     1      18.303  24.058  19.328  1.00  0.00     0.007 A 
HETATM   37  C1  UNL     1      16.813  23.988  19.174  1.00  0.00     0.068 C 
HETATM   38  C3  UNL     1      18.907  23.433  20.427  1.00  0.00     0.025 A 
HETATM   39  C4  UNL     1      20.259  23.484  20.580  1.00  0.00     0.003 A 
HETATM   40  C5  UNL     1      20.994  24.161  19.630  1.00  0.00     0.017 A 
HETATM   41  C6  UNL     1      20.371  24.766  18.560  1.00  0.00     0.091 A 
ENDBRANCH  34  35
ENDBRANCH  33  34
ENDBRANCH  32  33
ENDBRANCH  31  32
ENDBRANCH  30  31
ENDBRANCH  29  30
ENDBRANCH   1  29
BRANCH   6  42
HETATM   42  C16 UNL     1      13.905  18.181  13.005  1.00  0.00     0.035 C 
BRANCH  42  43
HETATM   43  C17 UNL     1      12.761  17.468  12.367  1.00  0.00     0.003 C 
BRANCH  43  44
HETATM   44  C18 UNL     1      13.354  16.273  11.609  1.00  0.00     0.011 C 
BRANCH  44  45
HETATM   45  C19 UNL     1      12.414  15.696  10.604  1.00  0.00     0.086 C 
HETATM   46  S1  UNL     1      10.800  16.528  10.782  1.00  0.00    -0.098 SA
ENDBRANCH  44  45
ENDBRANCH  43  44
ENDBRANCH  42  43
ENDBRANCH   6  42
BRANCH  24  47
HETATM   47  C31 UNL     1      16.411  19.908  18.107  1.00  0.00     0.009 C 
HETATM   48  C32 UNL     1      17.213  20.692  17.054  1.00  0.00     0.012 C 
HETATM   49  C33 UNL     1      16.896  20.344  19.435  1.00  0.00     0.012 C 
ENDBRANCH  24  47
BRANCH   9  50
HETATM   50  O2  UNL     1      10.561  21.239  13.644  1.00  0.00    -0.332 OA
ATOM     51  H2  UNL     1       9.884  21.488  14.262  1.00  0.00     0.220 HD
ENDBRANCH   9  50
BRANCH  12  52
HETATM   52  O3  UNL     1       8.925  17.241  14.598  1.00  0.00    -0.348 OA
ATOM     53  H3  UNL     1       9.044  16.401  14.170  1.00  0.00     0.219 HD
ENDBRANCH  12  52
BRANCH  13  54
HETATM   54  C23 UNL     1      10.620  15.458  15.204  1.00  0.00     0.008 C 
HETATM   55  C24 UNL     1      10.675  14.572  16.426  1.00  0.00     0.012 C 
HETATM   56  C25 UNL     1      11.641  14.951  14.228  1.00  0.00     0.012 C 
ENDBRANCH  13  54
TORSDOF 15
ENDMDL
MODEL 2
REMARK VINA RESULT: -6.406937981      1.085      1.756
REMARK  15 active torsions:
REMARK  status: ('A' for Active; 'I' for Inactive)
REMARK    1  A    between atoms: N1_7  and  C7_8 
REMARK    2  A    between atoms: C7_8  and  C8_9 
REMARK    3  A    between atoms: C8_9  and  C9_10 
REMARK    4  A    between atoms: C9_10  and  C10_11 
REMARK    5  A    between atoms: C10_11  and  C11_12 
REMARK    6  A    between atoms: C11_12  and  C12_13 
REMARK    7  A    between atoms: C12_13  and  C13_14 
REMARK    8  A    between atoms: C15_19  and  C16_20 
REMARK    9  A    between atoms: C16_20  and  C17_21 
REMARK   10  A    between atoms: C17_21  and  C18_22 
REMARK   11  A    between atoms: C18_22  and  C19_23 
REMARK   12  A    between atoms: C20_27  and  O2_28 
REMARK   13  A    between atoms: C21_32  and  O3_33 
REMARK   14  A    between atoms: C22_35  and  C23_36 
REMARK   15  A    between atoms: C30_49  and  C31_50 
ROOT
HETATM    1  C13 UNL     1      13.964  22.335  15.440  1.00  0.00     0.176 C 
HETATM    2  N2  UNL     1      14.851  21.408  14.793  1.00  0.00    -0.346 N 
ATOM      3  H2  UNL     1      15.829  21.450  15.077  1.00  0.00     0.163 HD
HETATM    4  C14 UNL     1      14.530  20.448  13.814  1.00  0.00     0.241 C 
HETATM    5  O1  UNL     1      15.220  20.467  12.719  1.00  0.00    -0.271 OA
HETATM    6  C15 UNL     1      13.476  19.405  13.904  1.00  0.00     0.177 C 
HETATM    7  N3  UNL     1      12.213  19.816  13.308  1.00  0.00    -0.343 N 
ATOM      8  H3  UNL     1      12.246  19.964  12.298  1.00  0.00     0.164 HD
HETATM    9  C20 UNL     1      10.976  20.040  13.883  1.00  0.00     0.219 C 
HETATM   10  N4  UNL     1      10.095  19.233  14.632  1.00  0.00    -0.305 N 
ATOM     11  H4  UNL     1       9.310  19.765  15.006  1.00  0.00     0.171 HD
HETATM   12  C21 UNL     1      10.036  17.901  14.983  1.00  0.00     0.142 C 
HETATM   13  C22 UNL     1      10.920  16.961  15.668  1.00  0.00     0.162 C 
HETATM   14  N5  UNL     1      11.074  17.052  17.068  1.00  0.00    -0.347 N 
ATOM     15  H5  UNL     1      11.300  16.162  17.512  1.00  0.00     0.163 HD
HETATM   16  C26 UNL     1      10.978  18.125  17.975  1.00  0.00     0.240 C 
HETATM   17  O4  UNL     1      10.210  18.081  18.984  1.00  0.00    -0.271 OA
HETATM   18  C27 UNL     1      11.706  19.427  17.935  1.00  0.00     0.172 C 
HETATM   19  C28 UNL     1      10.629  20.505  18.142  1.00  0.00     0.042 C 
HETATM   20  N6  UNL     1      12.707  19.515  18.974  1.00  0.00    -0.346 N 
ATOM     21  H6  UNL     1      12.350  19.642  19.921  1.00  0.00     0.163 HD
HETATM   22  C29 UNL     1      14.112  19.449  18.854  1.00  0.00     0.241 C 
HETATM   23  O5  UNL     1      14.779  18.700  19.626  1.00  0.00    -0.271 OA
HETATM   24  C30 UNL     1      14.944  20.188  17.882  1.00  0.00     0.180 C 
HETATM   25  N7  UNL     1      14.697  21.600  17.820  1.00  0.00    -0.346 N 
ATOM     26  H7  UNL     1      15.110  22.135  18.584  1.00  0.00     0.163 HD
HETATM   27  C34 UNL     1      13.994  22.363  16.903  1.00  0.00     0.241 C 
HETATM   28  O6  UNL     1      13.222  23.266  17.405  1.00  0.00    -0.271 OA
ENDROOT
BRANCH   1  29
HETATM   29  C12 UNL     1      14.195  23.757  14.885  1.00  0.00     0.035 C 
BRANCH  29  30
HETATM   30  C11 UNL     1      15.638  23.907  14.459  1.00  0.00     0.002 C 
BRANCH  30  31
HETATM   31  C10 UNL     1      16.422  24.343  15.691  1.00  0.00     0.000 C 
BRANCH  31  32
HETATM   32  C9  UNL     1      17.818  23.769  15.530  1.00  0.00     0.002 C 
BRANCH  32  33
HETATM   33  C8  UNL     1      18.703  24.134  16.688  1.00  0.00     0.020 C 
BRANCH  33  34
HETATM   34  C7  UNL     1      18.524  25.618  16.955  1.00  0.00     0.128 C 
BRANCH  34  35
HETATM   35  N1  UNL     1      19.826  26.223  17.080  1.00  0.00    -0.360 N 
HETATM   36  C2  UNL     1      20.389  26.893  16.062  1.00  0.00     0.007 A 
HETATM   37  C1  UNL     1      19.635  27.018  14.771  1.00  0.00     0.068 C 
HETATM   38  C3  UNL     1      21.655  27.481  16.174  1.00  0.00     0.025 A 
HETATM   39  C4  UNL     1      22.351  27.380  17.340  1.00  0.00     0.003 A 
HETATM   40  C5  UNL     1      21.771  26.691  18.383  1.00  0.00     0.017 A 
HETATM   41  C6  UNL     1      20.524  26.123  18.243  1.00  0.00     0.091 A 
ENDBRANCH  34  35
ENDBRANCH  33  34
ENDBRANCH  32  33
ENDBRANCH  31  32
ENDBRANCH  30  31
ENDBRANCH  29  30
ENDBRANCH   1  29
BRANCH   6  42
HETATM   42  C16 UNL     1      13.916  18.217  13.033  1.00  0.00     0.035 C 
BRANCH  42  43
HETATM   43  C17 UNL     1      12.772  17.500  12.398  1.00  0.00     0.003 C 
BRANCH  43  44
HETATM   44  C18 UNL     1      13.369  16.328  11.609  1.00  0.00     0.011 C 
BRANCH  44  45
HETATM   45  C19 UNL     1      12.402  15.717  10.652  1.00  0.00     0.086 C 
HETATM   46  S1  UNL     1      10.842  16.661  10.729  1.00  0.00    -0.098 SA
ENDBRANCH  44  45
ENDBRANCH  43  44
ENDBRANCH  42  43
ENDBRANCH   6  42
BRANCH  24  47
HETATM   47  C31 UNL     1      16.434  19.975  18.118  1.00  0.00     0.009 C 
HETATM   48  C32 UNL     1      17.226  20.632  16.975  1.00  0.00     0.012 C 
HETATM   49  C33 UNL     1      16.949  20.542  19.385  1.00  0.00     0.012 C 
ENDBRANCH  24  47
BRANCH   9  50
HETATM   50  O2  UNL     1      10.567  21.270  13.668  1.00  0.00    -0.332 OA
ATOM     51  H2  UNL     1       9.945  21.304  12.951  1.00  0.00     0.220 HD
ENDBRANCH   9  50
BRANCH  12  52
HETATM   52  O3  UNL     1       8.944  17.271  14.647  1.00  0.00    -0.348 OA
ATOM     53  H3  UNL     1       9.000  16.323  14.630  1.00  0.00     0.219 HD
ENDBRANCH  12  52
BRANCH  13  54
HETATM   54  C23 UNL     1      10.645  15.496  15.256  1.00  0.00     0.008 C 
HETATM   55  C24 UNL     1      10.753  14.610  16.474  1.00  0.00     0.012 C 
HETATM   56  C25 UNL     1      11.637  15.002  14.244  1.00  0.00     0.012 C 
ENDBRANCH  13  54
TORSDOF 15
ENDMDL
MODEL 3
REMARK VINA RESULT: -6.159430874      9.178     15.662
REMARK  15 active torsions:
REMARK  status: ('A' for Active; 'I' for Inactive)
REMARK    1  A    between atoms: N1_7  and  C7_8 
REMARK    2  A    between atoms: C7_8  and  C8_9 
REMARK    3  A    between atoms: C8_9  and  C9_10 
REMARK    4  A    between atoms: C9_10  and  C10_11 
REMARK    5  A    between atoms: C10_11  and  C11_12 
REMARK    6  A    between atoms: C11_12  and  C12_13 
REMARK    7  A    between atoms: C12_13  and  C13_14 
REMARK    8  A    between atoms: C15_19  and  C16_20 
REMARK    9  A    between atoms: C16_20  and  C17_21 
REMARK   10  A    between atoms: C17_21  and  C18_22 
REMARK   11  A    between atoms: C18_22  and  C19_23 
REMARK   12  A    between atoms: C20_27  and  O2_28 
REMARK   13  A    between atoms: C21_32  and  O3_33 
REMARK   14  A    between atoms: C22_35  and  C23_36 
REMARK   15  A    between atoms: C30_49  and  C31_50 
ROOT
HETATM    1  C13 UNL     1      26.448  26.966  18.777  1.00  0.00     0.176 C 
HETATM    2  N2  UNL     1      26.793  25.651  18.310  1.00  0.00    -0.346 N 
ATOM      3  H2  UNL     1      27.364  25.611  17.466  1.00  0.00     0.163 HD
HETATM    4  C14 UNL     1      26.439  24.413  18.879  1.00  0.00     0.241 C 
HETATM    5  O1  UNL     1      25.869  23.548  18.104  1.00  0.00    -0.271 OA
HETATM    6  C15 UNL     1      26.652  23.990  20.287  1.00  0.00     0.177 C 
HETATM    7  N3  UNL     1      25.495  24.232  21.137  1.00  0.00    -0.343 N 
ATOM      8  H3  UNL     1      24.668  23.683  20.899  1.00  0.00     0.164 HD
HETATM    9  C20 UNL     1      25.333  25.082  22.216  1.00  0.00     0.219 C 
HETATM   10  N4  UNL     1      25.985  25.205  23.460  1.00  0.00    -0.305 N 
ATOM     11  H4  UNL     1      25.681  26.033  23.973  1.00  0.00     0.171 HD
HETATM   12  C21 UNL     1      26.932  24.482  24.152  1.00  0.00     0.142 C 
HETATM   13  C22 UNL     1      28.290  24.012  23.883  1.00  0.00     0.162 C 
HETATM   14  N5  UNL     1      29.357  24.935  23.907  1.00  0.00    -0.347 N 
ATOM     15  H5  UNL     1      30.251  24.517  24.164  1.00  0.00     0.163 HD
HETATM   16  C26 UNL     1      29.436  26.317  23.646  1.00  0.00     0.240 C 
HETATM   17  O4  UNL     1      29.925  27.129  24.489  1.00  0.00    -0.271 OA
HETATM   18  C27 UNL     1      28.998  27.044  22.419  1.00  0.00     0.172 C 
HETATM   19  C28 UNL     1      28.167  28.235  22.925  1.00  0.00     0.042 C 
HETATM   20  N6  UNL     1      30.123  27.514  21.642  1.00  0.00    -0.346 N 
ATOM     21  H6  UNL     1      30.632  28.304  22.037  1.00  0.00     0.163 HD
HETATM   22  C29 UNL     1      30.610  27.026  20.411  1.00  0.00     0.241 C 
HETATM   23  O5  UNL     1      31.847  26.806  20.262  1.00  0.00    -0.271 OA
HETATM   24  C30 UNL     1      29.807  26.723  19.208  1.00  0.00     0.180 C 
HETATM   25  N7  UNL     1      28.916  27.769  18.793  1.00  0.00    -0.346 N 
ATOM     26  H7  UNL     1      29.370  28.538  18.299  1.00  0.00     0.163 HD
HETATM   27  C34 UNL     1      27.549  27.915  18.946  1.00  0.00     0.241 C 
HETATM   28  O6  UNL     1      27.151  29.089  19.302  1.00  0.00    -0.271 OA
ENDROOT
BRANCH   1  29
HETATM   29  C12 UNL     1      25.364  27.579  17.863  1.00  0.00     0.035 C 
BRANCH  29  30
HETATM   30  C11 UNL     1      25.468  26.978  16.479  1.00  0.00     0.002 C 
BRANCH  30  31
HETATM   31  C10 UNL     1      24.056  26.928  15.909  1.00  0.00     0.000 C 
BRANCH  31  32
HETATM   32  C9  UNL     1      23.169  27.643  16.912  1.00  0.00     0.002 C 
BRANCH  32  33
HETATM   33  C8  UNL     1      21.724  27.591  16.509  1.00  0.00     0.020 C 
BRANCH  33  34
HETATM   34  C7  UNL     1      20.945  26.980  17.660  1.00  0.00     0.128 C 
BRANCH  34  35
HETATM   35  N1  UNL     1      20.080  25.953  17.138  1.00  0.00    -0.360 N 
HETATM   36  C2  UNL     1      19.801  24.846  17.844  1.00  0.00     0.007 A 
HETATM   37  C1  UNL     1      20.401  24.685  19.210  1.00  0.00     0.068 C 
HETATM   38  C3  UNL     1      18.964  23.841  17.342  1.00  0.00     0.025 A 
HETATM   39  C4  UNL     1      18.409  23.972  16.106  1.00  0.00     0.003 A 
HETATM   40  C5  UNL     1      18.697  25.110  15.384  1.00  0.00     0.017 A 
HETATM   41  C6  UNL     1      19.524  26.081  15.903  1.00  0.00     0.091 A 
ENDBRANCH  34  35
ENDBRANCH  33  34
ENDBRANCH  32  33
ENDBRANCH  31  32
ENDBRANCH  30  31
ENDBRANCH  29  30
ENDBRANCH   1  29
BRANCH   6  42
HETATM   42  C16 UNL     1      26.794  22.458  20.300  1.00  0.00     0.035 C 
BRANCH  42  43
HETATM   43  C17 UNL     1      28.215  22.002  20.282  1.00  0.00     0.003 C 
BRANCH  43  44
HETATM   44  C18 UNL     1      28.187  20.480  20.088  1.00  0.00     0.011 C 
BRANCH  44  45
HETATM   45  C19 UNL     1      26.815  19.951  19.834  1.00  0.00     0.086 C 
HETATM   46  S1  UNL     1      26.612  18.403  20.781  1.00  0.00    -0.098 SA
ENDBRANCH  44  45
ENDBRANCH  43  44
ENDBRANCH  42  43
ENDBRANCH   6  42
BRANCH  24  47
HETATM   47  C31 UNL     1      30.674  26.335  18.017  1.00  0.00     0.009 C 
HETATM   48  C32 UNL     1      30.389  24.872  17.640  1.00  0.00     0.012 C 
HETATM   49  C33 UNL     1      30.458  27.148  16.800  1.00  0.00     0.012 C 
ENDBRANCH  24  47
BRANCH   9  50
HETATM   50  O2  UNL     1      24.360  25.939  22.003  1.00  0.00    -0.332 OA
ATOM     51  H2  UNL     1      23.526  25.495  21.904  1.00  0.00     0.220 HD
ENDBRANCH   9  50
BRANCH  12  52
HETATM   52  O3  UNL     1      26.590  24.094  25.349  1.00  0.00    -0.348 OA
ATOM     53  H3  UNL     1      27.077  24.483  26.067  1.00  0.00     0.219 HD
ENDBRANCH  12  52
BRANCH  13  54
HETATM   54  C23 UNL     1      28.648  22.760  24.717  1.00  0.00     0.008 C 
HETATM   55  C24 UNL     1      29.836  23.073  25.595  1.00  0.00     0.012 C 
HETATM   56  C25 UNL     1      29.019  21.594  23.848  1.00  0.00     0.012 C 
ENDBRANCH  13  54
TORSDOF 15
ENDMDL
MODEL 4
REMARK VINA RESULT: -6.149384126     10.530     15.602
REMARK  15 active torsions:
REMARK  status: ('A' for Active; 'I' for Inactive)
REMARK    1  A    between atoms: N1_7  and  C7_8 
REMARK    2  A    between atoms: C7_8  and  C8_9 
REMARK    3  A    between atoms: C8_9  and  C9_10 
REMARK    4  A    between atoms: C9_10  and  C10_11 
REMARK    5  A    between atoms: C10_11  and  C11_12 
REMARK    6  A    between atoms: C11_12  and  C12_13 
REMARK    7  A    between atoms: C12_13  and  C13_14 
REMARK    8  A    between atoms: C15_19  and  C16_20 
REMARK    9  A    between atoms: C16_20  and  C17_21 
REMARK   10  A    between atoms: C17_21  and  C18_22 
REMARK   11  A    between atoms: C18_22  and  C19_23 
REMARK   12  A    between atoms: C20_27  and  O2_28 
REMARK   13  A    between atoms: C21_32  and  O3_33 
REMARK   14  A    between atoms: C22_35  and  C23_36 
REMARK   15  A    between atoms: C30_49  and  C31_50 
ROOT
HETATM    1  C13 UNL     1      26.300  27.140  18.759  1.00  0.00     0.176 C 
HETATM    2  N2  UNL     1      26.603  25.819  18.282  1.00  0.00    -0.346 N 
ATOM      3  H2  UNL     1      27.141  25.766  17.418  1.00  0.00     0.163 HD
HETATM    4  C14 UNL     1      26.246  24.589  18.867  1.00  0.00     0.241 C 
HETATM    5  O1  UNL     1      25.631  23.733  18.115  1.00  0.00    -0.271 OA
HETATM    6  C15 UNL     1      26.501  24.164  20.267  1.00  0.00     0.177 C 
HETATM    7  N3  UNL     1      25.382  24.429  21.159  1.00  0.00    -0.343 N 
ATOM      8  H3  UNL     1      24.536  23.897  20.952  1.00  0.00     0.164 HD
HETATM    9  C20 UNL     1      25.275  25.284  22.240  1.00  0.00     0.219 C 
HETATM   10  N4  UNL     1      25.975  25.398  23.459  1.00  0.00    -0.305 N 
ATOM     11  H4  UNL     1      25.706  26.232  23.981  1.00  0.00     0.171 HD
HETATM   12  C21 UNL     1      26.933  24.657  24.118  1.00  0.00     0.142 C 
HETATM   13  C22 UNL     1      28.270  24.160  23.801  1.00  0.00     0.162 C 
HETATM   14  N5  UNL     1      29.355  25.062  23.783  1.00  0.00    -0.347 N 
ATOM     15  H5  UNL     1      30.250  24.627  24.009  1.00  0.00     0.163 HD
HETATM   16  C26 UNL     1      29.452  26.441  23.517  1.00  0.00     0.240 C 
HETATM   17  O4  UNL     1      29.986  27.246  24.340  1.00  0.00    -0.271 OA
HETATM   18  C27 UNL     1      28.983  27.175  22.305  1.00  0.00     0.172 C 
HETATM   19  C28 UNL     1      28.194  28.383  22.837  1.00  0.00     0.042 C 
HETATM   20  N6  UNL     1      30.088  27.622  21.486  1.00  0.00    -0.346 N 
ATOM     21  H6  UNL     1      30.627  28.403  21.861  1.00  0.00     0.163 HD
HETATM   22  C29 UNL     1      30.520  27.122  20.239  1.00  0.00     0.241 C 
HETATM   23  O5  UNL     1      31.747  26.878  20.046  1.00  0.00    -0.271 OA
HETATM   24  C30 UNL     1      29.668  26.833  19.067  1.00  0.00     0.180 C 
HETATM   25  N7  UNL     1      28.783  27.895  18.682  1.00  0.00    -0.346 N 
ATOM     26  H7  UNL     1      29.233  28.654  18.170  1.00  0.00     0.163 HD
HETATM   27  C34 UNL     1      27.425  28.068  18.885  1.00  0.00     0.241 C 
HETATM   28  O6  UNL     1      27.063  29.251  19.252  1.00  0.00    -0.271 OA
ENDROOT
BRANCH   1  29
HETATM   29  C12 UNL     1      25.196  27.773  17.883  1.00  0.00     0.035 C 
BRANCH  29  30
HETATM   30  C11 UNL     1      25.265  27.199  16.486  1.00  0.00     0.002 C 
BRANCH  30  31
HETATM   31  C10 UNL     1      23.843  26.822  16.090  1.00  0.00     0.000 C 
BRANCH  31  32
HETATM   32  C9  UNL     1      22.926  27.575  17.037  1.00  0.00     0.002 C 
BRANCH  32  33
HETATM   33  C8  UNL     1      21.752  26.737  17.454  1.00  0.00     0.020 C 
BRANCH  33  34
HETATM   34  C7  UNL     1      21.298  27.225  18.818  1.00  0.00     0.128 C 
BRANCH  34  35
HETATM   35  N1  UNL     1      21.065  26.080  19.662  1.00  0.00    -0.360 N 
HETATM   36  C2  UNL     1      20.944  26.204  20.994  1.00  0.00     0.007 A 
HETATM   37  C1  UNL     1      21.047  27.569  21.608  1.00  0.00     0.068 C 
HETATM   38  C3  UNL     1      20.720  25.097  21.822  1.00  0.00     0.025 A 
HETATM   39  C4  UNL     1      20.620  23.851  21.280  1.00  0.00     0.003 A 
HETATM   40  C5  UNL     1      20.745  23.728  19.913  1.00  0.00     0.017 A 
HETATM   41  C6  UNL     1      20.965  24.835  19.125  1.00  0.00     0.091 A 
ENDBRANCH  34  35
ENDBRANCH  33  34
ENDBRANCH  32  33
ENDBRANCH  31  32
ENDBRANCH  30  31
ENDBRANCH  29  30
ENDBRANCH   1  29
BRANCH   6  42
HETATM   42  C16 UNL     1      26.615  22.630  20.278  1.00  0.00     0.035 C 
BRANCH  42  43
HETATM   43  C17 UNL     1      28.024  22.146  20.203  1.00  0.00     0.003 C 
BRANCH  43  44
HETATM   44  C18 UNL     1      27.960  20.617  20.094  1.00  0.00     0.011 C 
BRANCH  44  45
HETATM   45  C19 UNL     1      26.604  20.115  19.725  1.00  0.00     0.086 C 
HETATM   46  S1  UNL     1      26.383  18.460  20.462  1.00  0.00    -0.098 SA
ENDBRANCH  44  45
ENDBRANCH  43  44
ENDBRANCH  42  43
ENDBRANCH   6  42
BRANCH  24  47
HETATM   47  C31 UNL     1      30.484  26.426  17.846  1.00  0.00     0.009 C 
HETATM   48  C32 UNL     1      30.139  24.975  17.469  1.00  0.00     0.012 C 
HETATM   49  C33 UNL     1      30.254  27.254  16.642  1.00  0.00     0.012 C 
ENDBRANCH  24  47
BRANCH   9  50
HETATM   50  O2  UNL     1      24.313  26.160  22.061  1.00  0.00    -0.332 OA
ATOM     51  H2  UNL     1      23.506  25.735  21.795  1.00  0.00     0.220 HD
ENDBRANCH   9  50
BRANCH  12  52
HETATM   52  O3  UNL     1      26.627  24.278  25.328  1.00  0.00    -0.348 OA
ATOM     53  H3  UNL     1      27.342  24.268  25.953  1.00  0.00     0.219 HD
ENDBRANCH  12  52
BRANCH  13  54
HETATM   54  C23 UNL     1      28.635  22.903  24.624  1.00  0.00     0.008 C 
HETATM   55  C24 UNL     1      29.853  23.197  25.466  1.00  0.00     0.012 C 
HETATM   56  C25 UNL     1      28.961  21.731  23.745  1.00  0.00     0.012 C 
ENDBRANCH  13  54
TORSDOF 15
ENDMDL
MODEL 5
REMARK VINA RESULT: -6.069851540     10.273     16.091
REMARK  15 active torsions:
REMARK  status: ('A' for Active; 'I' for Inactive)
REMARK    1  A    between atoms: N1_7  and  C7_8 
REMARK    2  A    between atoms: C7_8  and  C8_9 
REMARK    3  A    between atoms: C8_9  and  C9_10 
REMARK    4  A    between atoms: C9_10  and  C10_11 
REMARK    5  A    between atoms: C10_11  and  C11_12 
REMARK    6  A    between atoms: C11_12  and  C12_13 
REMARK    7  A    between atoms: C12_13  and  C13_14 
REMARK    8  A    between atoms: C15_19  and  C16_20 
REMARK    9  A    between atoms: C16_20  and  C17_21 
REMARK   10  A    between atoms: C17_21  and  C18_22 
REMARK   11  A    between atoms: C18_22  and  C19_23 
REMARK   12  A    between atoms: C20_27  and  O2_28 
REMARK   13  A    between atoms: C21_32  and  O3_33 
REMARK   14  A    between atoms: C22_35  and  C23_36 
REMARK   15  A    between atoms: C30_49  and  C31_50 
ROOT
HETATM    1  C13 UNL     1      26.018  27.639  17.623  1.00  0.00     0.176 C 
HETATM    2  N2  UNL     1      26.504  26.358  17.190  1.00  0.00    -0.346 N 
ATOM      3  H2  UNL     1      26.809  26.299  16.219  1.00  0.00     0.163 HD
HETATM    4  C14 UNL     1      26.610  25.175  17.947  1.00  0.00     0.241 C 
HETATM    5  O1  UNL     1      26.055  24.112  17.462  1.00  0.00    -0.271 OA
HETATM    6  C15 UNL     1      27.298  25.016  19.254  1.00  0.00     0.177 C 
HETATM    7  N3  UNL     1      26.403  25.162  20.392  1.00  0.00    -0.343 N 
ATOM      8  H3  UNL     1      25.687  24.438  20.467  1.00  0.00     0.164 HD
HETATM    9  C20 UNL     1      26.364  26.118  21.390  1.00  0.00     0.219 C 
HETATM   10  N4  UNL     1      27.293  26.548  22.359  1.00  0.00    -0.305 N 
ATOM     11  H4  UNL     1      26.969  27.371  22.865  1.00  0.00     0.171 HD
HETATM   12  C21 UNL     1      28.534  26.128  22.789  1.00  0.00     0.142 C 
HETATM   13  C22 UNL     1      29.831  25.886  22.160  1.00  0.00     0.162 C 
HETATM   14  N5  UNL     1      30.627  26.985  21.775  1.00  0.00    -0.347 N 
ATOM     15  H5  UNL     1      31.628  26.786  21.782  1.00  0.00     0.163 HD
HETATM   16  C26 UNL     1      30.318  28.302  21.382  1.00  0.00     0.240 C 
HETATM   17  O4  UNL     1      30.829  29.309  21.961  1.00  0.00    -0.271 OA
HETATM   18  C27 UNL     1      29.402  28.741  20.290  1.00  0.00     0.172 C 
HETATM   19  C28 UNL     1      28.502  29.817  20.918  1.00  0.00     0.042 C 
HETATM   20  N6  UNL     1      30.129  29.292  19.168  1.00  0.00    -0.346 N 
ATOM     21  H6  UNL     1      30.539  30.214  19.317  1.00  0.00     0.163 HD
HETATM   22  C29 UNL     1      30.349  28.725  17.894  1.00  0.00     0.241 C 
HETATM   23  O5  UNL     1      31.511  28.721  17.394  1.00  0.00    -0.271 OA
HETATM   24  C30 UNL     1      29.330  28.099  17.026  1.00  0.00     0.180 C 
HETATM   25  N7  UNL     1      28.147  28.884  16.813  1.00  0.00    -0.346 N 
ATOM     26  H7  UNL     1      28.260  29.642  16.139  1.00  0.00     0.163 HD
HETATM   27  C34 UNL     1      26.881  28.792  17.364  1.00  0.00     0.241 C 
HETATM   28  O6  UNL     1      26.346  29.911  17.719  1.00  0.00    -0.271 OA
ENDROOT
BRANCH   1  29
HETATM   29  C12 UNL     1      24.613  27.894  17.034  1.00  0.00     0.035 C 
BRANCH  29  30
HETATM   30  C11 UNL     1      24.416  27.035  15.805  1.00  0.00     0.002 C 
BRANCH  30  31
HETATM   31  C10 UNL     1      22.917  26.795  15.668  1.00  0.00     0.000 C 
BRANCH  31  32
HETATM   32  C9  UNL     1      22.259  27.572  16.793  1.00  0.00     0.002 C 
BRANCH  32  33
HETATM   33  C8  UNL     1      21.190  26.764  17.472  1.00  0.00     0.020 C 
BRANCH  33  34
HETATM   34  C7  UNL     1      21.206  27.124  18.946  1.00  0.00     0.128 C 
BRANCH  34  35
HETATM   35  N1  UNL     1      20.853  25.954  19.710  1.00  0.00    -0.360 N 
HETATM   36  C2  UNL     1      20.905  25.951  21.051  1.00  0.00     0.007 A 
HETATM   37  C1  UNL     1      21.331  27.200  21.765  1.00  0.00     0.068 C 
HETATM   38  C3  UNL     1      20.567  24.817  21.801  1.00  0.00     0.025 A 
HETATM   39  C4  UNL     1      20.175  23.676  21.170  1.00  0.00     0.003 A 
HETATM   40  C5  UNL     1      20.124  23.682  19.793  1.00  0.00     0.017 A 
HETATM   41  C6  UNL     1      20.462  24.813  19.082  1.00  0.00     0.091 A 
ENDBRANCH  34  35
ENDBRANCH  33  34
ENDBRANCH  32  33
ENDBRANCH  31  32
ENDBRANCH  30  31
ENDBRANCH  29  30
ENDBRANCH   1  29
BRANCH   6  42
HETATM   42  C16 UNL     1      27.778  23.558  19.356  1.00  0.00     0.035 C 
BRANCH  42  43
HETATM   43  C17 UNL     1      27.269  22.858  20.571  1.00  0.00     0.003 C 
BRANCH  43  44
HETATM   44  C18 UNL     1      27.200  21.365  20.223  1.00  0.00     0.011 C 
BRANCH  44  45
HETATM   45  C19 UNL     1      26.069  21.030  19.310  1.00  0.00     0.086 C 
HETATM   46  S1  UNL     1      25.950  19.214  19.182  1.00  0.00    -0.098 SA
ENDBRANCH  44  45
ENDBRANCH  43  44
ENDBRANCH  42  43
ENDBRANCH   6  42
BRANCH  24  47
HETATM   47  C31 UNL     1      29.892  27.706  15.666  1.00  0.00     0.009 C 
HETATM   48  C32 UNL     1      29.718  26.191  15.465  1.00  0.00     0.012 C 
HETATM   49  C33 UNL     1      29.250  28.374  14.512  1.00  0.00     0.012 C 
ENDBRANCH  24  47
BRANCH   9  50
HETATM   50  O2  UNL     1      25.204  26.736  21.410  1.00  0.00    -0.332 OA
ATOM     51  H2  UNL     1      24.954  26.967  22.296  1.00  0.00     0.220 HD
ENDBRANCH   9  50
BRANCH  12  52
HETATM   52  O3  UNL     1      28.637  25.867  24.063  1.00  0.00    -0.348 OA
ATOM     53  H3  UNL     1      29.495  26.006  24.447  1.00  0.00     0.219 HD
ENDBRANCH  12  52
BRANCH  13  54
HETATM   54  C23 UNL     1      30.680  24.863  22.950  1.00  0.00     0.008 C 
HETATM   55  C24 UNL     1      32.134  25.264  22.878  1.00  0.00     0.012 C 
HETATM   56  C25 UNL     1      30.561  23.479  22.385  1.00  0.00     0.012 C 
ENDBRANCH  13  54
TORSDOF 15
ENDMDL
