MODEL 1
REMARK VINA RESULT: -9.742782342      0.000      0.000
REMARK  13 active torsions:
REMARK  status: ('A' for Active; 'I' for Inactive)
REMARK    1  A    between atoms: O1_2  and  C2_3 
REMARK    2  A    between atoms: C4_5  and  C5_6 
REMARK    3  A    between atoms: C5_6  and  C6_7 
REMARK    4  A    between atoms: C6_7  and  N1_8 
REMARK    5  A    between atoms: C8_13  and  N3_14 
REMARK    6  A    between atoms: N3_14  and  C9_16 
REMARK    7  A    between atoms: C9_16  and  C10_17 
REMARK    8  A    between atoms: C10_17  and  N4_18 
REMARK    9  A    between atoms: C13_23  and  N6_24 
REMARK   10  A    between atoms: N6_24  and  C14_26 
REMARK   11  A    between atoms: C14_26  and  C15_27 
REMARK   12  A    between atoms: C22_36  and  C23_37 
REMARK   13  A    between atoms: C28_43  and  O3_44 
ROOT
HETATM    1  N1  UNL     1      14.448  23.545  16.756  1.00  0.00    -0.204 N 
ATOM      2  H1  UNL     1      13.937  23.256  17.590  1.00  0.00     0.183 HD
HETATM    3  C7  UNL     1      15.535  24.097  17.053  1.00  0.00     0.710 A 
HETATM    4  N2  UNL     1      15.810  24.197  18.395  1.00  0.00    -0.021 N 
ATOM      5  H2  UNL     1      15.140  23.833  19.072  1.00  0.00     0.203 HD
HETATM    6  C8  UNL     1      16.938  24.762  18.831  1.00  0.00     0.707 A 
HETATM    7  N5  UNL     1      17.830  25.248  17.921  1.00  0.00    -0.022 N 
ATOM      8  H5  UNL     1      18.692  25.680  18.253  1.00  0.00     0.203 HD
HETATM    9  C13 UNL     1      17.602  25.172  16.595  1.00  0.00     0.707 A 
HETATM   10  N7  UNL     1      16.458  24.597  16.204  1.00  0.00    -0.021 N 
ATOM     11  H7  UNL     1      16.271  24.533  15.203  1.00  0.00     0.203 HD
ENDROOT
BRANCH   1  12
HETATM   12  C6  UNL     1      13.751  23.222  15.594  1.00  0.00     0.083 C 
BRANCH  12  13
HETATM   13  C5  UNL     1      14.167  21.919  14.949  1.00  0.00     0.083 C 
BRANCH  13  14
HETATM   14  C4  UNL     1      13.067  20.917  15.197  1.00  0.00    -0.050 A 
HETATM   15  C3  UNL     1      12.199  20.493  14.228  1.00  0.00     0.047 A 
HETATM   16  C2  UNL     1      11.208  19.585  14.517  1.00  0.00     0.102 A 
HETATM   17  C28 UNL     1      11.086  19.084  15.833  1.00  0.00     0.108 A 
HETATM   18  C22 UNL     1      11.930  19.480  16.820  1.00  0.00    -0.017 A 
HETATM   19  C21 UNL     1      12.910  20.396  16.480  1.00  0.00     0.018 A 
BRANCH  16  20
HETATM   20  O1  UNL     1      10.315  19.143  13.552  1.00  0.00    -0.353 OA
HETATM   21  C1  UNL     1      10.750  19.099  12.210  1.00  0.00     0.210 C 
ENDBRANCH  16  20
BRANCH  17  22
HETATM   22  O3  UNL     1      10.073  18.192  16.053  1.00  0.00    -0.353 OA
HETATM   23  C29 UNL     1      10.177  16.854  15.671  1.00  0.00     0.210 C 
ENDBRANCH  17  22
BRANCH  18  24
HETATM   24  C23 UNL     1      11.857  18.979  18.180  1.00  0.00     0.025 C 
HETATM   25  C24 UNL     1      13.010  19.642  19.000  1.00  0.00     0.036 C 
HETATM   26  C25 UNL     1      12.728  19.292  20.433  1.00  0.00     0.168 C 
HETATM   27  O2  UNL     1      11.683  18.388  20.566  1.00  0.00    -0.391 OA
HETATM   28  C26 UNL     1      11.884  17.221  19.840  1.00  0.00     0.168 C 
HETATM   29  C27 UNL     1      12.179  17.507  18.359  1.00  0.00     0.036 C 
ENDBRANCH  18  24
ENDBRANCH  13  14
ENDBRANCH  12  13
ENDBRANCH   1  12
BRANCH   6  30
HETATM   30  N3  UNL     1      17.209  24.858  20.086  1.00  0.00    -0.223 N 
ATOM     31  H3  UNL     1      16.548  25.396  20.646  1.00  0.00     0.177 HD
BRANCH  30  32
HETATM   32  C9  UNL     1      18.315  24.308  20.784  1.00  0.00     0.168 C 
BRANCH  32  33
HETATM   33  C10 UNL     1      18.429  22.806  20.588  1.00  0.00     0.291 C 
BRANCH  33  34
HETATM   34  N4  UNL     1      19.804  22.355  20.684  1.00  0.00     0.081 N 
HETATM   35  C11 UNL     1      20.738  23.335  20.200  1.00  0.00     0.309 C 
HETATM   36  C12 UNL     1      20.058  22.197  22.125  1.00  0.00     0.309 C 
ENDBRANCH  33  34
ENDBRANCH  32  33
ENDBRANCH  30  32
ENDBRANCH   6  30
BRANCH   9  37
HETATM   37  N6  UNL     1      18.449  25.631  15.747  1.00  0.00    -0.225 N 
ATOM     38  H6  UNL     1      18.079  25.906  14.837  1.00  0.00     0.177 HD
BRANCH  37  39
HETATM   39  C14 UNL     1      19.857  25.798  15.943  1.00  0.00     0.142 C 
BRANCH  39  40
HETATM   40  C15 UNL     1      20.270  27.245  15.751  1.00  0.00     0.004 C 
HETATM   41  C16 UNL     1      20.859  27.456  14.388  1.00  0.00     0.006 C 
HETATM   42  C17 UNL     1      21.590  28.812  14.361  1.00  0.00     0.000 C 
HETATM   43  C18 UNL     1      22.885  28.583  15.087  1.00  0.00     0.000 C 
HETATM   44  C19 UNL     1      22.685  27.633  16.253  1.00  0.00     0.000 C 
HETATM   45  C20 UNL     1      21.287  27.658  16.800  1.00  0.00     0.006 C 
ENDBRANCH  39  40
ENDBRANCH  37  39
ENDBRANCH   9  37
TORSDOF 13
ENDMDL
MODEL 2
REMARK VINA RESULT: -9.557544012      1.212      4.706
REMARK  13 active torsions:
REMARK  status: ('A' for Active; 'I' for Inactive)
REMARK    1  A    between atoms: O1_2  and  C2_3 
REMARK    2  A    between atoms: C4_5  and  C5_6 
REMARK    3  A    between atoms: C5_6  and  C6_7 
REMARK    4  A    between atoms: C6_7  and  N1_8 
REMARK    5  A    between atoms: C8_13  and  N3_14 
REMARK    6  A    between atoms: N3_14  and  C9_16 
REMARK    7  A    between atoms: C9_16  and  C10_17 
REMARK    8  A    between atoms: C10_17  and  N4_18 
REMARK    9  A    between atoms: C13_23  and  N6_24 
REMARK   10  A    between atoms: N6_24  and  C14_26 
REMARK   11  A    between atoms: C14_26  and  C15_27 
REMARK   12  A    between atoms: C22_36  and  C23_37 
REMARK   13  A    between atoms: C28_43  and  O3_44 
ROOT
HETATM    1  N1  UNL     1      15.909  23.731  15.187  1.00  0.00    -0.204 N 
ATOM      2  H1  UNL     1      15.845  23.845  14.175  1.00  0.00     0.183 HD
HETATM    3  C7  UNL     1      16.862  24.394  15.663  1.00  0.00     0.710 A 
HETATM    4  N2  UNL     1      17.603  25.115  14.758  1.00  0.00    -0.021 N 
ATOM      5  H2  UNL     1      17.356  25.080  13.769  1.00  0.00     0.203 HD
HETATM    6  C8  UNL     1      18.639  25.859  15.148  1.00  0.00     0.707 A 
HETATM    7  N5  UNL     1      18.964  25.901  16.472  1.00  0.00    -0.022 N 
ATOM      8  H5  UNL     1      19.757  26.470  16.771  1.00  0.00     0.203 HD
HETATM    9  C13 UNL     1      18.267  25.210  17.394  1.00  0.00     0.707 A 
HETATM   10  N7  UNL     1      17.235  24.476  16.957  1.00  0.00    -0.021 N 
ATOM     11  H7  UNL     1      16.698  23.947  17.645  1.00  0.00     0.203 HD
ENDROOT
BRANCH   1  12
HETATM   12  C6  UNL     1      14.915  22.882  15.668  1.00  0.00     0.083 C 
BRANCH  12  13
HETATM   13  C5  UNL     1      15.083  21.430  15.280  1.00  0.00     0.083 C 
BRANCH  13  14
HETATM   14  C4  UNL     1      13.768  20.735  15.538  1.00  0.00    -0.050 A 
HETATM   15  C3  UNL     1      12.788  20.599  14.594  1.00  0.00     0.047 A 
HETATM   16  C2  UNL     1      11.605  19.964  14.893  1.00  0.00     0.102 A 
HETATM   17  C28 UNL     1      11.403  19.446  16.192  1.00  0.00     0.108 A 
HETATM   18  C22 UNL     1      12.354  19.561  17.154  1.00  0.00    -0.017 A 
HETATM   19  C21 UNL     1      13.525  20.209  16.806  1.00  0.00     0.018 A 
BRANCH  16  20
HETATM   20  O1  UNL     1      10.596  19.816  13.953  1.00  0.00    -0.353 OA
HETATM   21  C1  UNL     1      10.953  19.421  12.646  1.00  0.00     0.210 C 
ENDBRANCH  16  20
BRANCH  17  22
HETATM   22  O3  UNL     1      10.201  18.836  16.424  1.00  0.00    -0.353 OA
HETATM   23  C29 UNL     1      10.003  17.480  16.159  1.00  0.00     0.210 C 
ENDBRANCH  17  22
BRANCH  18  24
HETATM   24  C23 UNL     1      12.199  19.028  18.496  1.00  0.00     0.025 C 
HETATM   25  C24 UNL     1      13.370  19.581  19.370  1.00  0.00     0.036 C 
HETATM   26  C25 UNL     1      13.017  19.212  20.782  1.00  0.00     0.168 C 
HETATM   27  O2  UNL     1      11.904  18.385  20.856  1.00  0.00    -0.391 OA
HETATM   28  C26 UNL     1      12.044  17.227  20.100  1.00  0.00     0.168 C 
HETATM   29  C27 UNL     1      12.406  17.532  18.639  1.00  0.00     0.036 C 
ENDBRANCH  18  24
ENDBRANCH  13  14
ENDBRANCH  12  13
ENDBRANCH   1  12
BRANCH   6  30
HETATM   30  N3  UNL     1      19.338  26.542  14.310  1.00  0.00    -0.223 N 
ATOM     31  H3  UNL     1      19.515  26.099  13.409  1.00  0.00     0.177 HD
BRANCH  30  32
HETATM   32  C9  UNL     1      19.892  27.837  14.488  1.00  0.00     0.168 C 
BRANCH  32  33
HETATM   33  C10 UNL     1      21.411  27.818  14.477  1.00  0.00     0.291 C 
BRANCH  33  34
HETATM   34  N4  UNL     1      21.963  28.487  15.640  1.00  0.00     0.081 N 
HETATM   35  C11 UNL     1      22.160  27.591  16.747  1.00  0.00     0.309 C 
HETATM   36  C12 UNL     1      23.297  28.949  15.221  1.00  0.00     0.309 C 
ENDBRANCH  33  34
ENDBRANCH  32  33
ENDBRANCH  30  32
ENDBRANCH   6  30
BRANCH   9  37
HETATM   37  N6  UNL     1      18.580  25.257  18.638  1.00  0.00    -0.225 N 
ATOM     38  H6  UNL     1      17.879  25.642  19.271  1.00  0.00     0.177 HD
BRANCH  37  39
HETATM   39  C14 UNL     1      19.810  24.825  19.231  1.00  0.00     0.142 C 
BRANCH  39  40
HETATM   40  C15 UNL     1      19.569  24.177  20.582  1.00  0.00     0.004 C 
HETATM   41  C16 UNL     1      20.586  23.108  20.849  1.00  0.00     0.006 C 
HETATM   42  C17 UNL     1      20.105  22.240  22.028  1.00  0.00     0.000 C 
HETATM   43  C18 UNL     1      19.042  21.344  21.456  1.00  0.00     0.000 C 
HETATM   44  C19 UNL     1      18.217  22.084  20.421  1.00  0.00     0.000 C 
HETATM   45  C20 UNL     1      18.180  23.568  20.647  1.00  0.00     0.006 C 
ENDBRANCH  39  40
ENDBRANCH  37  39
ENDBRANCH   9  37
TORSDOF 13
ENDMDL
MODEL 3
REMARK VINA RESULT: -9.417262482      2.556      4.016
REMARK  13 active torsions:
REMARK  status: ('A' for Active; 'I' for Inactive)
REMARK    1  A    between atoms: O1_2  and  C2_3 
REMARK    2  A    between atoms: C4_5  and  C5_6 
REMARK    3  A    between atoms: C5_6  and  C6_7 
REMARK    4  A    between atoms: C6_7  and  N1_8 
REMARK    5  A    between atoms: C8_13  and  N3_14 
REMARK    6  A    between atoms: N3_14  and  C9_16 
REMARK    7  A    between atoms: C9_16  and  C10_17 
REMARK    8  A    between atoms: C10_17  and  N4_18 
REMARK    9  A    between atoms: C13_23  and  N6_24 
REMARK   10  A    between atoms: N6_24  and  C14_26 
REMARK   11  A    between atoms: C14_26  and  C15_27 
REMARK   12  A    between atoms: C22_36  and  C23_37 
REMARK   13  A    between atoms: C28_43  and  O3_44 
ROOT
HETATM    1  N1  UNL     1      18.425  22.372  19.722  1.00  0.00    -0.204 N 
ATOM      2  H1  UNL     1      18.643  21.734  20.487  1.00  0.00     0.183 HD
HETATM    3  C7  UNL     1      19.326  23.232  19.572  1.00  0.00     0.710 A 
HETATM    4  N2  UNL     1      20.388  23.146  20.439  1.00  0.00    -0.021 N 
ATOM      5  H2  UNL     1      20.398  22.412  21.147  1.00  0.00     0.203 HD
HETATM    6  C8  UNL     1      21.407  24.005  20.374  1.00  0.00     0.707 A 
HETATM    7  N5  UNL     1      21.388  24.985  19.426  1.00  0.00    -0.022 N 
ATOM      8  H5  UNL     1      22.167  25.642  19.376  1.00  0.00     0.203 HD
HETATM    9  C13 UNL     1      20.368  25.108  18.555  1.00  0.00     0.707 A 
HETATM   10  N7  UNL     1      19.366  24.224  18.657  1.00  0.00    -0.021 N 
ATOM     11  H7  UNL     1      18.587  24.305  18.005  1.00  0.00     0.203 HD
ENDROOT
BRANCH   1  12
HETATM   12  C6  UNL     1      17.208  22.054  19.123  1.00  0.00     0.083 C 
BRANCH  12  13
HETATM   13  C5  UNL     1      17.322  21.252  17.846  1.00  0.00     0.083 C 
BRANCH  13  14
HETATM   14  C4  UNL     1      15.930  21.079  17.291  1.00  0.00    -0.050 A 
HETATM   15  C3  UNL     1      15.555  21.502  16.046  1.00  0.00     0.047 A 
HETATM   16  C2  UNL     1      14.267  21.326  15.599  1.00  0.00     0.102 A 
HETATM   17  C28 UNL     1      13.320  20.698  16.438  1.00  0.00     0.108 A 
HETATM   18  C22 UNL     1      13.655  20.264  17.680  1.00  0.00    -0.017 A 
HETATM   19  C21 UNL     1      14.963  20.465  18.085  1.00  0.00     0.018 A 
BRANCH  16  20
HETATM   20  O1  UNL     1      13.864  21.749  14.341  1.00  0.00    -0.353 OA
HETATM   21  C1  UNL     1      14.691  21.447  13.238  1.00  0.00     0.210 C 
ENDBRANCH  16  20
BRANCH  17  22
HETATM   22  O3  UNL     1      12.055  20.564  15.936  1.00  0.00    -0.353 OA
HETATM   23  C29 UNL     1      11.754  19.627  14.946  1.00  0.00     0.210 C 
ENDBRANCH  17  22
BRANCH  18  24
HETATM   24  C23 UNL     1      12.722  19.597  18.571  1.00  0.00     0.025 C 
HETATM   25  C24 UNL     1      13.472  19.283  19.905  1.00  0.00     0.036 C 
HETATM   26  C25 UNL     1      12.405  18.837  20.863  1.00  0.00     0.168 C 
HETATM   27  O2  UNL     1      11.169  18.682  20.250  1.00  0.00    -0.391 OA
HETATM   28  C26 UNL     1      11.210  17.809  19.169  1.00  0.00     0.168 C 
HETATM   29  C27 UNL     1      12.284  18.208  18.146  1.00  0.00     0.036 C 
ENDBRANCH  18  24
ENDBRANCH  13  14
ENDBRANCH  12  13
ENDBRANCH   1  12
BRANCH   6  30
HETATM   30  N3  UNL     1      22.410  23.932  21.178  1.00  0.00    -0.223 N 
ATOM     31  H3  UNL     1      22.263  23.385  22.027  1.00  0.00     0.177 HD
BRANCH  30  32
HETATM   32  C9  UNL     1      23.693  24.520  21.028  1.00  0.00     0.168 C 
BRANCH  32  33
HETATM   33  C10 UNL     1      24.588  23.716  20.102  1.00  0.00     0.291 C 
BRANCH  33  34
HETATM   34  N4  UNL     1      25.623  24.540  19.507  1.00  0.00     0.081 N 
HETATM   35  C11 UNL     1      26.417  23.819  18.550  1.00  0.00     0.309 C 
HETATM   36  C12 UNL     1      24.902  25.587  18.764  1.00  0.00     0.309 C 
ENDBRANCH  33  34
ENDBRANCH  32  33
ENDBRANCH  30  32
ENDBRANCH   6  30
BRANCH   9  37
HETATM   37  N6  UNL     1      20.360  26.033  17.665  1.00  0.00    -0.225 N 
ATOM     38  H6  UNL     1      19.554  26.659  17.666  1.00  0.00     0.177 HD
BRANCH  37  39
HETATM   39  C14 UNL     1      21.361  26.279  16.672  1.00  0.00     0.142 C 
BRANCH  39  40
HETATM   40  C15 UNL     1      20.774  26.214  15.274  1.00  0.00     0.004 C 
HETATM   41  C16 UNL     1      19.502  27.002  15.193  1.00  0.00     0.006 C 
HETATM   42  C17 UNL     1      18.756  26.621  13.899  1.00  0.00     0.000 C 
HETATM   43  C18 UNL     1      18.127  25.285  14.180  1.00  0.00     0.000 C 
HETATM   44  C19 UNL     1      19.041  24.432  15.039  1.00  0.00     0.000 C 
HETATM   45  C20 UNL     1      20.494  24.776  14.876  1.00  0.00     0.006 C 
ENDBRANCH  39  40
ENDBRANCH  37  39
ENDBRANCH   9  37
TORSDOF 13
ENDMDL
MODEL 4
REMARK VINA RESULT: -9.412526505      1.975      5.194
REMARK  13 active torsions:
REMARK  status: ('A' for Active; 'I' for Inactive)
REMARK    1  A    between atoms: O1_2  and  C2_3 
REMARK    2  A    between atoms: C4_5  and  C5_6 
REMARK    3  A    between atoms: C5_6  and  C6_7 
REMARK    4  A    between atoms: C6_7  and  N1_8 
REMARK    5  A    between atoms: C8_13  and  N3_14 
REMARK    6  A    between atoms: N3_14  and  C9_16 
REMARK    7  A    between atoms: C9_16  and  C10_17 
REMARK    8  A    between atoms: C10_17  and  N4_18 
REMARK    9  A    between atoms: C13_23  and  N6_24 
REMARK   10  A    between atoms: N6_24  and  C14_26 
REMARK   11  A    between atoms: C14_26  and  C15_27 
REMARK   12  A    between atoms: C22_36  and  C23_37 
REMARK   13  A    between atoms: C28_43  and  O3_44 
ROOT
HETATM    1  N1  UNL     1      18.184  23.026  16.108  1.00  0.00    -0.204 N 
ATOM      2  H1  UNL     1      17.778  23.280  15.207  1.00  0.00     0.183 HD
HETATM    3  C7  UNL     1      18.915  23.941  16.557  1.00  0.00     0.710 A 
HETATM    4  N2  UNL     1      19.021  25.063  15.772  1.00  0.00    -0.021 N 
ATOM      5  H2  UNL     1      18.518  25.103  14.885  1.00  0.00     0.203 HD
HETATM    6  C8  UNL     1      19.768  26.103  16.147  1.00  0.00     0.707 A 
HETATM    7  N5  UNL     1      20.439  26.044  17.333  1.00  0.00    -0.022 N 
ATOM      8  H5  UNL     1      21.010  26.838  17.620  1.00  0.00     0.203 HD
HETATM    9  C13 UNL     1      20.365  24.964  18.135  1.00  0.00     0.707 A 
HETATM   10  N7  UNL     1      19.603  23.944  17.718  1.00  0.00    -0.021 N 
ATOM     11  H7  UNL     1      19.538  23.119  18.314  1.00  0.00     0.203 HD
ENDROOT
BRANCH   1  12
HETATM   12  C6  UNL     1      17.776  21.755  16.510  1.00  0.00     0.083 C 
BRANCH  12  13
HETATM   13  C5  UNL     1      16.775  21.742  17.643  1.00  0.00     0.083 C 
BRANCH  13  14
HETATM   14  C4  UNL     1      15.471  21.221  17.092  1.00  0.00    -0.050 A 
HETATM   15  C3  UNL     1      15.093  21.362  15.785  1.00  0.00     0.047 A 
HETATM   16  C2  UNL     1      13.886  20.874  15.344  1.00  0.00     0.102 A 
HETATM   17  C28 UNL     1      13.026  20.217  16.254  1.00  0.00     0.108 A 
HETATM   18  C22 UNL     1      13.368  20.057  17.558  1.00  0.00    -0.017 A 
HETATM   19  C21 UNL     1      14.592  20.566  17.954  1.00  0.00     0.018 A 
BRANCH  16  20
HETATM   20  O1  UNL     1      13.480  21.007  14.024  1.00  0.00    -0.353 OA
HETATM   21  C1  UNL     1      14.198  20.307  13.031  1.00  0.00     0.210 C 
ENDBRANCH  16  20
BRANCH  17  22
HETATM   22  O3  UNL     1      11.837  19.766  15.751  1.00  0.00    -0.353 OA
HETATM   23  C29 UNL     1      10.677  20.539  15.805  1.00  0.00     0.210 C 
ENDBRANCH  17  22
BRANCH  18  24
HETATM   24  C23 UNL     1      12.528  19.374  18.524  1.00  0.00     0.025 C 
HETATM   25  C24 UNL     1      13.333  19.248  19.857  1.00  0.00     0.036 C 
HETATM   26  C25 UNL     1      12.337  18.775  20.877  1.00  0.00     0.168 C 
HETATM   27  O2  UNL     1      11.112  18.445  20.314  1.00  0.00    -0.391 OA
HETATM   28  C26 UNL     1      11.222  17.496  19.306  1.00  0.00     0.168 C 
HETATM   29  C27 UNL     1      12.228  17.917  18.224  1.00  0.00     0.036 C 
ENDBRANCH  18  24
ENDBRANCH  13  14
ENDBRANCH  12  13
ENDBRANCH   1  12
BRANCH   6  30
HETATM   30  N3  UNL     1      19.872  27.162  15.422  1.00  0.00    -0.223 N 
ATOM     31  H3  UNL     1      19.052  27.768  15.396  1.00  0.00     0.177 HD
BRANCH  30  32
HETATM   32  C9  UNL     1      20.988  27.589  14.656  1.00  0.00     0.168 C 
BRANCH  32  33
HETATM   33  C10 UNL     1      21.859  28.578  15.412  1.00  0.00     0.291 C 
BRANCH  33  34
HETATM   34  N4  UNL     1      23.267  28.247  15.300  1.00  0.00     0.081 N 
HETATM   35  C11 UNL     1      24.110  29.409  15.357  1.00  0.00     0.309 C 
HETATM   36  C12 UNL     1      23.569  27.439  16.493  1.00  0.00     0.309 C 
ENDBRANCH  33  34
ENDBRANCH  32  33
ENDBRANCH  30  32
ENDBRANCH   6  30
BRANCH   9  37
HETATM   37  N6  UNL     1      20.999  24.918  19.250  1.00  0.00    -0.225 N 
ATOM     38  H6  UNL     1      21.853  24.361  19.267  1.00  0.00     0.177 HD
BRANCH  37  39
HETATM   39  C14 UNL     1      20.633  25.565  20.474  1.00  0.00     0.142 C 
BRANCH  39  40
HETATM   40  C15 UNL     1      20.164  24.558  21.508  1.00  0.00     0.004 C 
HETATM   41  C16 UNL     1      20.888  23.254  21.348  1.00  0.00     0.006 C 
HETATM   42  C17 UNL     1      20.146  22.166  22.148  1.00  0.00     0.000 C 
HETATM   43  C18 UNL     1      18.943  21.811  21.319  1.00  0.00     0.000 C 
HETATM   44  C19 UNL     1      18.379  23.044  20.638  1.00  0.00     0.000 C 
HETATM   45  C20 UNL     1      18.671  24.315  21.383  1.00  0.00     0.006 C 
ENDBRANCH  39  40
ENDBRANCH  37  39
ENDBRANCH   9  37
TORSDOF 13
ENDMDL
MODEL 5
REMARK VINA RESULT: -9.409489659      4.467     10.755
REMARK  13 active torsions:
REMARK  status: ('A' for Active; 'I' for Inactive)
REMARK    1  A    between atoms: O1_2  and  C2_3 
REMARK    2  A    between atoms: C4_5  and  C5_6 
REMARK    3  A    between atoms: C5_6  and  C6_7 
REMARK    4  A    between atoms: C6_7  and  N1_8 
REMARK    5  A    between atoms: C8_13  and  N3_14 
REMARK    6  A    between atoms: N3_14  and  C9_16 
REMARK    7  A    between atoms: C9_16  and  C10_17 
REMARK    8  A    between atoms: C10_17  and  N4_18 
REMARK    9  A    between atoms: C13_23  and  N6_24 
REMARK   10  A    between atoms: N6_24  and  C14_26 
REMARK   11  A    between atoms: C14_26  and  C15_27 
REMARK   12  A    between atoms: C22_36  and  C23_37 
REMARK   13  A    between atoms: C28_43  and  O3_44 
ROOT
HETATM    1  N1  UNL     1      13.370  20.894  14.130  1.00  0.00    -0.204 N 
ATOM      2  H1  UNL     1      13.502  20.923  13.119  1.00  0.00     0.183 HD
HETATM    3  C7  UNL     1      12.569  19.986  14.462  1.00  0.00     0.710 A 
HETATM    4  N2  UNL     1      12.048  19.241  13.433  1.00  0.00    -0.021 N 
ATOM      5  H2  UNL     1      12.323  19.450  12.473  1.00  0.00     0.203 HD
HETATM    6  C8  UNL     1      11.188  18.247  13.664  1.00  0.00     0.707 A 
HETATM    7  N5  UNL     1      10.824  17.971  14.949  1.00  0.00    -0.022 N 
ATOM      8  H5  UNL     1      10.166  17.212  15.127  1.00  0.00     0.203 HD
HETATM    9  C13 UNL     1      11.309  18.676  15.989  1.00  0.00     0.707 A 
HETATM   10  N7  UNL     1      12.169  19.665  15.710  1.00  0.00    -0.021 N 
ATOM     11  H7  UNL     1      12.544  20.208  16.488  1.00  0.00     0.203 HD
ENDROOT
BRANCH   1  12
HETATM   12  C6  UNL     1      14.127  21.871  14.771  1.00  0.00     0.083 C 
BRANCH  12  13
HETATM   13  C5  UNL     1      15.396  22.263  14.048  1.00  0.00     0.083 C 
BRANCH  13  14
HETATM   14  C4  UNL     1      16.437  22.579  15.093  1.00  0.00    -0.050 A 
HETATM   15  C3  UNL     1      16.617  21.838  16.229  1.00  0.00     0.047 A 
HETATM   16  C2  UNL     1      17.576  22.182  17.151  1.00  0.00     0.102 A 
HETATM   17  C28 UNL     1      18.388  23.316  16.920  1.00  0.00     0.108 A 
HETATM   18  C22 UNL     1      18.240  24.075  15.804  1.00  0.00    -0.017 A 
HETATM   19  C21 UNL     1      17.260  23.689  14.907  1.00  0.00     0.018 A 
BRANCH  16  20
HETATM   20  O1  UNL     1      17.775  21.448  18.311  1.00  0.00    -0.353 OA
HETATM   21  C1  UNL     1      16.834  21.580  19.354  1.00  0.00     0.210 C 
ENDBRANCH  16  20
BRANCH  17  22
HETATM   22  O3  UNL     1      19.315  23.608  17.882  1.00  0.00    -0.353 OA
HETATM   23  C29 UNL     1      19.020  24.452  18.954  1.00  0.00     0.210 C 
ENDBRANCH  17  22
BRANCH  18  24
HETATM   24  C23 UNL     1      19.062  25.236  15.514  1.00  0.00     0.025 C 
HETATM   25  C24 UNL     1      18.438  25.971  14.285  1.00  0.00     0.036 C 
HETATM   26  C25 UNL     1      19.167  27.282  14.197  1.00  0.00     0.168 C 
HETATM   27  O2  UNL     1      20.234  27.360  15.082  1.00  0.00    -0.391 OA
HETATM   28  C26 UNL     1      21.141  26.319  14.924  1.00  0.00     0.168 C 
HETATM   29  C27 UNL     1      20.460  24.944  15.003  1.00  0.00     0.036 C 
ENDBRANCH  18  24
ENDBRANCH  13  14
ENDBRANCH  12  13
ENDBRANCH   1  12
BRANCH   6  30
HETATM   30  N3  UNL     1      10.696  17.538  12.709  1.00  0.00    -0.223 N 
ATOM     31  H3  UNL     1       9.706  17.307  12.788  1.00  0.00     0.177 HD
BRANCH  30  32
HETATM   32  C9  UNL     1      11.363  17.039  11.560  1.00  0.00     0.168 C 
BRANCH  32  33
HETATM   33  C10 UNL     1      12.476  16.069  11.917  1.00  0.00     0.291 C 
BRANCH  33  34
HETATM   34  N4  UNL     1      13.336  15.799  10.781  1.00  0.00     0.081 N 
HETATM   35  C11 UNL     1      14.646  15.357  11.177  1.00  0.00     0.309 C 
HETATM   36  C12 UNL     1      12.701  14.673  10.075  1.00  0.00     0.309 C 
ENDBRANCH  33  34
ENDBRANCH  32  33
ENDBRANCH  30  32
ENDBRANCH   6  30
BRANCH   9  37
HETATM   37  N6  UNL     1      10.961  18.409  17.196  1.00  0.00    -0.225 N 
ATOM     38  H6  UNL     1      10.572  19.179  17.739  1.00  0.00     0.177 HD
BRANCH  37  39
HETATM   39  C14 UNL     1      11.061  17.144  17.858  1.00  0.00     0.142 C 
BRANCH  39  40
HETATM   40  C15 UNL     1      11.954  17.235  19.082  1.00  0.00     0.004 C 
HETATM   41  C16 UNL     1      11.604  18.435  19.909  1.00  0.00     0.006 C 
HETATM   42  C17 UNL     1      12.740  18.701  20.916  1.00  0.00     0.000 C 
HETATM   43  C18 UNL     1      13.840  19.342  20.117  1.00  0.00     0.000 C 
HETATM   44  C19 UNL     1      13.920  18.733  18.730  1.00  0.00     0.000 C 
HETATM   45  C20 UNL     1      13.414  17.320  18.676  1.00  0.00     0.006 C 
ENDBRANCH  39  40
ENDBRANCH  37  39
ENDBRANCH   9  37
TORSDOF 13
ENDMDL
