MODEL 1
REMARK VINA RESULT: -8.114439127      0.000      0.000
REMARK  11 active torsions:
REMARK  status: ('A' for Active; 'I' for Inactive)
REMARK    1  A    between atoms: C3_3  and  C4_4 
REMARK    2  A    between atoms: C5_5  and  C6_6 
REMARK    3  A    between atoms: C7_7  and  C8_8 
REMARK    4  A    between atoms: C10_10  and  C11_11 
REMARK    5  A    between atoms: C16_19  and  O2_20 
REMARK    6  A    between atoms: C18_22  and  O3_23 
REMARK    7  A    between atoms: N2_30  and  C22_31 
REMARK    8  A    between atoms: C22_31  and  C23_32 
REMARK    9  A    between atoms: C22_31  and  C26_37 
REMARK   10  A    between atoms: C23_32  and  C24_33 
REMARK   11  A    between atoms: C24_33  and  C25_34 
ROOT
HETATM    1  C11 UNL     1      17.400  21.989  18.063  1.00  0.00     0.196 C 
HETATM    2  C12 UNL     1      17.085  22.326  16.656  1.00  0.00     0.171 C 
HETATM    3  O1  UNL     1      17.907  21.864  15.851  1.00  0.00    -0.294 OA
HETATM    4  C13 UNL     1      16.061  23.071  15.849  1.00  0.00     0.200 C 
HETATM    5  N1  UNL     1      16.686  24.308  15.408  1.00  0.00    -0.382 N 
ATOM      6  H1  UNL     1      16.286  24.673  14.543  1.00  0.00     0.160 HD
HETATM    7  C14 UNL     1      17.749  25.130  15.933  1.00  0.00     0.054 A 
HETATM    8  C15 UNL     1      18.214  25.866  14.864  1.00  0.00     0.070 A 
HETATM    9  C16 UNL     1      19.246  26.749  15.057  1.00  0.00     0.103 A 
HETATM   10  C18 UNL     1      19.805  26.891  16.309  1.00  0.00     0.103 A 
HETATM   11  C20 UNL     1      19.315  26.139  17.354  1.00  0.00     0.067 A 
HETATM   12  C21 UNL     1      18.279  25.243  17.197  1.00  0.00     0.109 A 
HETATM   13  S1  UNL     1      17.943  24.507  18.744  1.00  0.00     0.268 S 
HETATM   14  O4  UNL     1      18.705  25.270  19.782  1.00  0.00    -0.200 OA
HETATM   15  O5  UNL     1      16.477  24.730  19.110  1.00  0.00    -0.200 OA
HETATM   16  N2  UNL     1      18.267  22.890  18.703  1.00  0.00    -0.253 N 
ENDROOT
BRANCH   1  17
HETATM   17  C10 UNL     1      16.132  21.699  18.776  1.00  0.00     0.014 C 
HETATM   18  C8  UNL     1      15.370  20.659  18.459  1.00  0.00    -0.063 C 
HETATM   19  C9  UNL     1      15.773  19.748  17.370  1.00  0.00     0.048 C 
BRANCH  18  20
HETATM   20  C7  UNL     1      14.136  20.407  19.180  1.00  0.00     0.006 C 
HETATM   21  C6  UNL     1      13.849  19.319  19.864  1.00  0.00     0.001 C 
BRANCH  21  22
HETATM   22  C5  UNL     1      12.561  19.190  20.548  1.00  0.00     0.000 C 
HETATM   23  C4  UNL     1      11.705  18.221  20.379  1.00  0.00    -0.000 C 
BRANCH  23  24
HETATM   24  C3  UNL     1      11.928  17.141  19.477  1.00  0.00    -0.004 C 
HETATM   25  C2  UNL     1      11.406  17.155  18.240  1.00  0.00    -0.031 C 
HETATM   26  C1  UNL     1      10.583  18.321  17.809  1.00  0.00     0.036 C 
ENDBRANCH  23  24
ENDBRANCH  21  22
ENDBRANCH  18  20
ENDBRANCH   1  17
BRANCH  16  27
HETATM   27  C22 UNL     1      19.192  22.319  19.645  1.00  0.00     0.100 C 
BRANCH  27  28
HETATM   28  C23 UNL     1      20.516  22.983  19.505  1.00  0.00     0.075 C 
BRANCH  28  29
HETATM   29  C24 UNL     1      21.368  23.213  20.685  1.00  0.00     0.119 C 
BRANCH  29  30
HETATM   30  C25 UNL     1      21.714  24.597  21.025  1.00  0.00     0.172 C 
HETATM   31  O6  UNL     1      21.302  25.154  22.065  1.00  0.00    -0.648 OA
HETATM   32  O7  UNL     1      22.527  25.355  20.185  1.00  0.00    -0.648 OA
ENDBRANCH  29  30
ENDBRANCH  28  29
ENDBRANCH  27  28
BRANCH  27  33
HETATM   33  C26 UNL     1      18.711  22.047  20.958  1.00  0.00     0.223 C 
HETATM   34  O8  UNL     1      17.946  22.834  21.622  1.00  0.00    -0.643 OA
HETATM   35  O9  UNL     1      19.015  20.871  21.677  1.00  0.00    -0.643 OA
ENDBRANCH  27  33
ENDBRANCH  16  27
BRANCH  10  36
HETATM   36  O3  UNL     1      20.846  27.776  16.520  1.00  0.00    -0.353 OA
HETATM   37  C19 UNL     1      21.902  27.490  17.401  1.00  0.00     0.210 C 
ENDBRANCH  10  36
BRANCH   9  38
HETATM   38  O2  UNL     1      19.756  27.523  13.997  1.00  0.00    -0.353 OA
HETATM   39  C17 UNL     1      21.164  27.725  13.922  1.00  0.00     0.210 C 
ENDBRANCH   9  38
TORSDOF 11
ENDMDL
MODEL 2
REMARK VINA RESULT: -7.977890871      2.254      3.592
REMARK  11 active torsions:
REMARK  status: ('A' for Active; 'I' for Inactive)
REMARK    1  A    between atoms: C3_3  and  C4_4 
REMARK    2  A    between atoms: C5_5  and  C6_6 
REMARK    3  A    between atoms: C7_7  and  C8_8 
REMARK    4  A    between atoms: C10_10  and  C11_11 
REMARK    5  A    between atoms: C16_19  and  O2_20 
REMARK    6  A    between atoms: C18_22  and  O3_23 
REMARK    7  A    between atoms: N2_30  and  C22_31 
REMARK    8  A    between atoms: C22_31  and  C23_32 
REMARK    9  A    between atoms: C22_31  and  C26_37 
REMARK   10  A    between atoms: C23_32  and  C24_33 
REMARK   11  A    between atoms: C24_33  and  C25_34 
ROOT
HETATM    1  C11 UNL     1      17.497  23.574  15.776  1.00  0.00     0.196 C 
HETATM    2  C12 UNL     1      17.974  24.499  14.723  1.00  0.00     0.171 C 
HETATM    3  O1  UNL     1      18.920  24.041  14.066  1.00  0.00    -0.294 OA
HETATM    4  C13 UNL     1      17.682  25.862  14.164  1.00  0.00     0.200 C 
HETATM    5  N1  UNL     1      18.742  26.746  14.623  1.00  0.00    -0.382 N 
ATOM      6  H1  UNL     1      18.903  27.536  13.999  1.00  0.00     0.160 HD
HETATM    7  C14 UNL     1      19.613  26.743  15.772  1.00  0.00     0.054 A 
HETATM    8  C15 UNL     1      20.698  27.518  15.420  1.00  0.00     0.070 A 
HETATM    9  C16 UNL     1      21.715  27.699  16.323  1.00  0.00     0.103 A 
HETATM   10  C18 UNL     1      21.642  27.109  17.567  1.00  0.00     0.103 A 
HETATM   11  C20 UNL     1      20.544  26.342  17.886  1.00  0.00     0.067 A 
HETATM   12  C21 UNL     1      19.503  26.139  17.003  1.00  0.00     0.109 A 
HETATM   13  S1  UNL     1      18.306  25.133  17.779  1.00  0.00     0.268 S 
HETATM   14  O4  UNL     1      18.670  25.035  19.228  1.00  0.00    -0.200 OA
HETATM   15  O5  UNL     1      16.957  25.849  17.775  1.00  0.00    -0.200 OA
HETATM   16  N2  UNL     1      18.170  23.684  17.004  1.00  0.00    -0.253 N 
ENDROOT
BRANCH   1  17
HETATM   17  C10 UNL     1      16.017  23.656  15.844  1.00  0.00     0.014 C 
HETATM   18  C8  UNL     1      15.236  22.916  15.066  1.00  0.00    -0.063 C 
HETATM   19  C9  UNL     1      15.832  21.974  14.098  1.00  0.00     0.048 C 
BRANCH  18  20
HETATM   20  C7  UNL     1      13.793  23.022  15.162  1.00  0.00     0.006 C 
HETATM   21  C6  UNL     1      12.919  22.191  14.634  1.00  0.00     0.001 C 
BRANCH  21  22
HETATM   22  C5  UNL     1      11.482  22.414  14.805  1.00  0.00     0.000 C 
HETATM   23  C4  UNL     1      10.565  21.487  14.817  1.00  0.00    -0.000 C 
BRANCH  23  24
HETATM   24  C3  UNL     1      10.863  20.104  14.659  1.00  0.00    -0.004 C 
HETATM   25  C2  UNL     1      10.904  19.280  15.719  1.00  0.00    -0.031 C 
HETATM   26  C1  UNL     1      10.631  19.827  17.078  1.00  0.00     0.036 C 
ENDBRANCH  23  24
ENDBRANCH  21  22
ENDBRANCH  18  20
ENDBRANCH   1  17
BRANCH  16  27
HETATM   27  C22 UNL     1      18.363  22.459  17.733  1.00  0.00     0.100 C 
BRANCH  27  28
HETATM   28  C23 UNL     1      18.449  22.756  19.188  1.00  0.00     0.075 C 
BRANCH  28  29
HETATM   29  C24 UNL     1      18.978  21.752  20.128  1.00  0.00     0.119 C 
BRANCH  29  30
HETATM   30  C25 UNL     1      20.015  22.174  21.076  1.00  0.00     0.172 C 
HETATM   31  O6  UNL     1      20.929  22.964  20.758  1.00  0.00    -0.648 OA
HETATM   32  O7  UNL     1      20.017  21.701  22.386  1.00  0.00    -0.648 OA
ENDBRANCH  29  30
ENDBRANCH  28  29
ENDBRANCH  27  28
BRANCH  27  33
HETATM   33  C26 UNL     1      17.610  21.322  17.320  1.00  0.00     0.223 C 
HETATM   34  O8  UNL     1      18.019  20.459  16.465  1.00  0.00    -0.643 OA
HETATM   35  O9  UNL     1      16.325  21.012  17.815  1.00  0.00    -0.643 OA
ENDBRANCH  27  33
ENDBRANCH  16  27
BRANCH  10  36
HETATM   36  O3  UNL     1      22.659  27.282  18.488  1.00  0.00    -0.353 OA
HETATM   37  C19 UNL     1      23.777  26.433  18.533  1.00  0.00     0.210 C 
ENDBRANCH  10  36
BRANCH   9  38
HETATM   38  O2  UNL     1      22.843  28.480  16.010  1.00  0.00    -0.353 OA
HETATM   39  C17 UNL     1      22.829  29.239  14.804  1.00  0.00     0.210 C 
ENDBRANCH   9  38
TORSDOF 11
ENDMDL
MODEL 3
REMARK VINA RESULT: -7.918645326      2.500      8.287
REMARK  11 active torsions:
REMARK  status: ('A' for Active; 'I' for Inactive)
REMARK    1  A    between atoms: C3_3  and  C4_4 
REMARK    2  A    between atoms: C5_5  and  C6_6 
REMARK    3  A    between atoms: C7_7  and  C8_8 
REMARK    4  A    between atoms: C10_10  and  C11_11 
REMARK    5  A    between atoms: C16_19  and  O2_20 
REMARK    6  A    between atoms: C18_22  and  O3_23 
REMARK    7  A    between atoms: N2_30  and  C22_31 
REMARK    8  A    between atoms: C22_31  and  C23_32 
REMARK    9  A    between atoms: C22_31  and  C26_37 
REMARK   10  A    between atoms: C23_32  and  C24_33 
REMARK   11  A    between atoms: C24_33  and  C25_34 
ROOT
HETATM    1  C11 UNL     1      18.524  24.885  17.574  1.00  0.00     0.196 C 
HETATM    2  C12 UNL     1      17.366  25.427  16.829  1.00  0.00     0.171 C 
HETATM    3  O1  UNL     1      16.493  25.903  17.569  1.00  0.00    -0.294 OA
HETATM    4  C13 UNL     1      16.878  25.599  15.420  1.00  0.00     0.200 C 
HETATM    5  N1  UNL     1      15.826  24.616  15.211  1.00  0.00    -0.382 N 
ATOM      6  H1  UNL     1      15.150  24.898  14.502  1.00  0.00     0.160 HD
HETATM    7  C14 UNL     1      15.537  23.329  15.794  1.00  0.00     0.054 A 
HETATM    8  C15 UNL     1      14.194  23.111  15.568  1.00  0.00     0.070 A 
HETATM    9  C16 UNL     1      13.617  21.951  16.020  1.00  0.00     0.103 A 
HETATM   10  C18 UNL     1      14.381  21.020  16.690  1.00  0.00     0.103 A 
HETATM   11  C20 UNL     1      15.720  21.270  16.897  1.00  0.00     0.067 A 
HETATM   12  C21 UNL     1      16.332  22.424  16.457  1.00  0.00     0.109 A 
HETATM   13  S1  UNL     1      18.020  22.359  16.895  1.00  0.00     0.268 S 
HETATM   14  O4  UNL     1      18.310  20.968  17.370  1.00  0.00    -0.200 OA
HETATM   15  O5  UNL     1      18.881  22.517  15.643  1.00  0.00    -0.200 OA
HETATM   16  N2  UNL     1      18.389  23.546  17.978  1.00  0.00    -0.253 N 
ENDROOT
BRANCH   1  17
HETATM   17  C10 UNL     1      19.764  25.208  16.826  1.00  0.00     0.014 C 
HETATM   18  C8  UNL     1      20.566  26.200  17.192  1.00  0.00    -0.063 C 
HETATM   19  C9  UNL     1      20.242  27.020  18.376  1.00  0.00     0.048 C 
BRANCH  18  20
HETATM   20  C7  UNL     1      21.771  26.487  16.436  1.00  0.00     0.006 C 
HETATM   21  C6  UNL     1      22.638  27.443  16.694  1.00  0.00     0.001 C 
BRANCH  21  22
HETATM   22  C5  UNL     1      23.818  27.626  15.847  1.00  0.00     0.000 C 
HETATM   23  C4  UNL     1      25.000  27.122  16.071  1.00  0.00    -0.000 C 
BRANCH  23  24
HETATM   24  C3  UNL     1      25.291  26.309  17.203  1.00  0.00    -0.004 C 
HETATM   25  C2  UNL     1      26.414  25.575  17.256  1.00  0.00    -0.031 C 
HETATM   26  C1  UNL     1      27.367  25.616  16.111  1.00  0.00     0.036 C 
ENDBRANCH  23  24
ENDBRANCH  21  22
ENDBRANCH  18  20
ENDBRANCH   1  17
BRANCH  16  27
HETATM   27  C22 UNL     1      18.974  23.204  19.248  1.00  0.00     0.100 C 
BRANCH  27  28
HETATM   28  C23 UNL     1      19.194  24.442  20.042  1.00  0.00     0.075 C 
BRANCH  28  29
HETATM   29  C24 UNL     1      19.646  24.363  21.443  1.00  0.00     0.119 C 
BRANCH  29  30
HETATM   30  C25 UNL     1      21.074  24.141  21.694  1.00  0.00     0.172 C 
HETATM   31  O6  UNL     1      21.525  23.035  22.059  1.00  0.00    -0.648 OA
HETATM   32  O7  UNL     1      21.994  25.175  21.534  1.00  0.00    -0.648 OA
ENDBRANCH  29  30
ENDBRANCH  28  29
ENDBRANCH  27  28
BRANCH  27  33
HETATM   33  C26 UNL     1      18.465  22.055  19.917  1.00  0.00     0.223 C 
HETATM   34  O8  UNL     1      17.219  21.837  20.129  1.00  0.00    -0.643 OA
HETATM   35  O9  UNL     1      19.279  21.015  20.419  1.00  0.00    -0.643 OA
ENDBRANCH  27  33
ENDBRANCH  16  27
BRANCH  10  36
HETATM   36  O3  UNL     1      13.816  19.846  17.152  1.00  0.00    -0.353 OA
HETATM   37  C19 UNL     1      14.306  19.177  18.286  1.00  0.00     0.210 C 
ENDBRANCH  10  36
BRANCH   9  38
HETATM   38  O2  UNL     1      12.251  21.683  15.815  1.00  0.00    -0.353 OA
HETATM   39  C17 UNL     1      11.830  21.255  14.524  1.00  0.00     0.210 C 
ENDBRANCH   9  38
TORSDOF 11
ENDMDL
MODEL 4
REMARK VINA RESULT: -7.838051541      2.402      8.663
REMARK  11 active torsions:
REMARK  status: ('A' for Active; 'I' for Inactive)
REMARK    1  A    between atoms: C3_3  and  C4_4 
REMARK    2  A    between atoms: C5_5  and  C6_6 
REMARK    3  A    between atoms: C7_7  and  C8_8 
REMARK    4  A    between atoms: C10_10  and  C11_11 
REMARK    5  A    between atoms: C16_19  and  O2_20 
REMARK    6  A    between atoms: C18_22  and  O3_23 
REMARK    7  A    between atoms: N2_30  and  C22_31 
REMARK    8  A    between atoms: C22_31  and  C23_32 
REMARK    9  A    between atoms: C22_31  and  C26_37 
REMARK   10  A    between atoms: C23_32  and  C24_33 
REMARK   11  A    between atoms: C24_33  and  C25_34 
ROOT
HETATM    1  C11 UNL     1      18.860  25.250  17.268  1.00  0.00     0.196 C 
HETATM    2  C12 UNL     1      17.847  25.282  16.190  1.00  0.00     0.171 C 
HETATM    3  O1  UNL     1      16.855  25.968  16.476  1.00  0.00    -0.294 OA
HETATM    4  C13 UNL     1      17.612  24.739  14.810  1.00  0.00     0.200 C 
HETATM    5  N1  UNL     1      16.619  23.683  14.933  1.00  0.00    -0.382 N 
ATOM      6  H1  UNL     1      16.075  23.543  14.081  1.00  0.00     0.160 HD
HETATM    7  C14 UNL     1      16.240  22.792  16.001  1.00  0.00     0.054 A 
HETATM    8  C15 UNL     1      14.958  22.378  15.705  1.00  0.00     0.070 A 
HETATM    9  C16 UNL     1      14.319  21.514  16.556  1.00  0.00     0.103 A 
HETATM   10  C18 UNL     1      14.960  21.069  17.693  1.00  0.00     0.103 A 
HETATM   11  C20 UNL     1      16.239  21.503  17.958  1.00  0.00     0.067 A 
HETATM   12  C21 UNL     1      16.913  22.371  17.124  1.00  0.00     0.109 A 
HETATM   13  S1  UNL     1      18.498  22.664  17.792  1.00  0.00     0.268 S 
HETATM   14  O4  UNL     1      18.709  21.683  18.904  1.00  0.00    -0.200 OA
HETATM   15  O5  UNL     1      19.564  22.299  16.760  1.00  0.00    -0.200 OA
HETATM   16  N2  UNL     1      18.665  24.245  18.229  1.00  0.00    -0.253 N 
ENDROOT
BRANCH   1  17
HETATM   17  C10 UNL     1      20.210  25.297  16.653  1.00  0.00     0.014 C 
HETATM   18  C8  UNL     1      21.004  26.354  16.782  1.00  0.00    -0.063 C 
HETATM   19  C9  UNL     1      20.558  27.528  17.557  1.00  0.00     0.048 C 
BRANCH  18  20
HETATM   20  C7  UNL     1      22.318  26.363  16.167  1.00  0.00     0.006 C 
HETATM   21  C6  UNL     1      23.438  26.754  16.739  1.00  0.00     0.001 C 
BRANCH  21  22
HETATM   22  C5  UNL     1      24.702  26.714  16.003  1.00  0.00     0.000 C 
HETATM   23  C4  UNL     1      25.542  27.705  15.881  1.00  0.00    -0.000 C 
BRANCH  23  24
HETATM   24  C3  UNL     1      25.319  28.983  16.467  1.00  0.00    -0.004 C 
HETATM   25  C2  UNL     1      24.784  29.987  15.753  1.00  0.00    -0.031 C 
HETATM   26  C1  UNL     1      24.420  29.753  14.327  1.00  0.00     0.036 C 
ENDBRANCH  23  24
ENDBRANCH  21  22
ENDBRANCH  18  20
ENDBRANCH   1  17
BRANCH  16  27
HETATM   27  C22 UNL     1      19.021  24.583  19.582  1.00  0.00     0.100 C 
BRANCH  27  28
HETATM   28  C23 UNL     1      18.193  23.786  20.526  1.00  0.00     0.075 C 
BRANCH  28  29
HETATM   29  C24 UNL     1      18.681  23.489  21.885  1.00  0.00     0.119 C 
BRANCH  29  30
HETATM   30  C25 UNL     1      19.452  22.258  22.086  1.00  0.00     0.172 C 
HETATM   31  O6  UNL     1      18.932  21.124  22.018  1.00  0.00    -0.648 OA
HETATM   32  O7  UNL     1      20.816  22.310  22.367  1.00  0.00    -0.648 OA
ENDBRANCH  29  30
ENDBRANCH  28  29
ENDBRANCH  27  28
BRANCH  27  33
HETATM   33  C26 UNL     1      20.405  24.750  19.875  1.00  0.00     0.223 C 
HETATM   34  O8  UNL     1      21.314  23.897  19.573  1.00  0.00    -0.643 OA
HETATM   35  O9  UNL     1      20.937  25.884  20.527  1.00  0.00    -0.643 OA
ENDBRANCH  27  33
ENDBRANCH  16  27
BRANCH  10  36
HETATM   36  O3  UNL     1      14.329  20.198  18.563  1.00  0.00    -0.353 OA
HETATM   37  C19 UNL     1      14.319  18.809  18.351  1.00  0.00     0.210 C 
ENDBRANCH  10  36
BRANCH   9  38
HETATM   38  O2  UNL     1      13.011  21.063  16.298  1.00  0.00    -0.353 OA
HETATM   39  C17 UNL     1      12.728  20.501  15.020  1.00  0.00     0.210 C 
ENDBRANCH   9  38
TORSDOF 11
ENDMDL
MODEL 5
REMARK VINA RESULT: -7.779959217      2.425      8.511
REMARK  11 active torsions:
REMARK  status: ('A' for Active; 'I' for Inactive)
REMARK    1  A    between atoms: C3_3  and  C4_4 
REMARK    2  A    between atoms: C5_5  and  C6_6 
REMARK    3  A    between atoms: C7_7  and  C8_8 
REMARK    4  A    between atoms: C10_10  and  C11_11 
REMARK    5  A    between atoms: C16_19  and  O2_20 
REMARK    6  A    between atoms: C18_22  and  O3_23 
REMARK    7  A    between atoms: N2_30  and  C22_31 
REMARK    8  A    between atoms: C22_31  and  C23_32 
REMARK    9  A    between atoms: C22_31  and  C26_37 
REMARK   10  A    between atoms: C23_32  and  C24_33 
REMARK   11  A    between atoms: C24_33  and  C25_34 
ROOT
HETATM    1  C11 UNL     1      18.622  24.690  17.568  1.00  0.00     0.196 C 
HETATM    2  C12 UNL     1      17.543  25.344  16.794  1.00  0.00     0.171 C 
HETATM    3  O1  UNL     1      16.695  25.894  17.512  1.00  0.00    -0.294 OA
HETATM    4  C13 UNL     1      17.116  25.571  15.372  1.00  0.00     0.200 C 
HETATM    5  N1  UNL     1      15.985  24.692  15.122  1.00  0.00    -0.382 N 
ATOM      6  H1  UNL     1      15.360  25.040  14.395  1.00  0.00     0.160 HD
HETATM    7  C14 UNL     1      15.559  23.433  15.682  1.00  0.00     0.054 A 
HETATM    8  C15 UNL     1      14.209  23.343  15.414  1.00  0.00     0.070 A 
HETATM    9  C16 UNL     1      13.513  22.239  15.837  1.00  0.00     0.103 A 
HETATM   10  C18 UNL     1      14.167  21.235  16.520  1.00  0.00     0.103 A 
HETATM   11  C20 UNL     1      15.515  21.357  16.770  1.00  0.00     0.067 A 
HETATM   12  C21 UNL     1      16.246  22.453  16.360  1.00  0.00     0.109 A 
HETATM   13  S1  UNL     1      17.906  22.227  16.848  1.00  0.00     0.268 S 
HETATM   14  O4  UNL     1      18.050  20.812  17.317  1.00  0.00    -0.200 OA
HETATM   15  O5  UNL     1      18.816  22.314  15.624  1.00  0.00    -0.200 OA
HETATM   16  N2  UNL     1      18.350  23.367  17.954  1.00  0.00    -0.253 N 
ENDROOT
BRANCH   1  17
HETATM   17  C10 UNL     1      19.908  24.902  16.860  1.00  0.00     0.014 C 
HETATM   18  C8  UNL     1      20.662  25.973  17.078  1.00  0.00    -0.063 C 
HETATM   19  C9  UNL     1      20.232  26.997  18.051  1.00  0.00     0.048 C 
BRANCH  18  20
HETATM   20  C7  UNL     1      21.915  26.146  16.368  1.00  0.00     0.006 C 
HETATM   21  C6  UNL     1      23.007  26.702  16.849  1.00  0.00     0.001 C 
BRANCH  21  22
HETATM   22  C5  UNL     1      24.210  26.816  16.023  1.00  0.00     0.000 C 
HETATM   23  C4  UNL     1      24.701  27.925  15.544  1.00  0.00    -0.000 C 
BRANCH  23  24
HETATM   24  C3  UNL     1      24.104  29.198  15.775  1.00  0.00    -0.004 C 
HETATM   25  C2  UNL     1      24.857  30.304  15.885  1.00  0.00    -0.031 C 
HETATM   26  C1  UNL     1      26.338  30.194  15.761  1.00  0.00     0.036 C 
ENDBRANCH  23  24
ENDBRANCH  21  22
ENDBRANCH  18  20
ENDBRANCH   1  17
BRANCH  16  27
HETATM   27  C22 UNL     1      18.862  22.963  19.237  1.00  0.00     0.100 C 
BRANCH  27  28
HETATM   28  C23 UNL     1      19.662  24.070  19.823  1.00  0.00     0.075 C 
BRANCH  28  29
HETATM   29  C24 UNL     1      21.044  23.836  20.279  1.00  0.00     0.119 C 
BRANCH  29  30
HETATM   30  C25 UNL     1      21.628  24.792  21.225  1.00  0.00     0.172 C 
HETATM   31  O6  UNL     1      20.971  25.294  22.161  1.00  0.00    -0.648 OA
HETATM   32  O7  UNL     1      22.961  25.183  21.110  1.00  0.00    -0.648 OA
ENDBRANCH  29  30
ENDBRANCH  28  29
ENDBRANCH  27  28
BRANCH  27  33
HETATM   33  C26 UNL     1      17.986  22.237  20.094  1.00  0.00     0.223 C 
HETATM   34  O8  UNL     1      16.706  22.293  20.031  1.00  0.00    -0.643 OA
HETATM   35  O9  UNL     1      18.430  21.361  21.109  1.00  0.00    -0.643 OA
ENDBRANCH  27  33
ENDBRANCH  16  27
BRANCH  10  36
HETATM   36  O3  UNL     1      13.480  20.115  16.953  1.00  0.00    -0.353 OA
HETATM   37  C19 UNL     1      13.101  19.946  18.295  1.00  0.00     0.210 C 
ENDBRANCH  10  36
BRANCH   9  38
HETATM   38  O2  UNL     1      12.135  22.101  15.588  1.00  0.00    -0.353 OA
HETATM   39  C17 UNL     1      11.724  21.397  14.421  1.00  0.00     0.210 C 
ENDBRANCH   9  38
TORSDOF 11
ENDMDL
