MODEL 1
REMARK VINA RESULT: -5.586709846      0.000      0.000
REMARK  3 active torsions:
REMARK  status: ('A' for Active; 'I' for Inactive)
REMARK    1  A    between atoms: C2_5  and  N3_6 
REMARK    2  A    between atoms: N3_6  and  S1_8 
REMARK    3  A    between atoms: S1_8  and  N4_9 
ROOT
HETATM    1  N1  UNL     1      28.297  65.853   7.175  1.00  0.00    -0.080 NA
HETATM    2  C1  UNL     1      29.236  65.695   8.272  1.00  0.00     0.149 A 
HETATM    3  N2  UNL     1      28.906  65.300   9.470  1.00  0.00    -0.322 N 
ATOM      4  H2  UNL     1      27.935  65.078   9.691  1.00  0.00     0.169 HD
HETATM    5  C2  UNL     1      29.849  65.191  10.398  1.00  0.00     0.162 A 
HETATM    6  S2  UNL     1      31.262  65.661   9.562  1.00  0.00    -0.035 SA
HETATM    7  C3  UNL     1      30.560  65.978   8.040  1.00  0.00     0.131 A 
HETATM    8  N5  UNL     1      31.189  66.428   6.824  1.00  0.00    -0.091 NA
ENDROOT
BRANCH   5   9
HETATM    9  N3  UNL     1      29.701  64.810  11.655  1.00  0.00    -0.247 N 
ATOM     10  H3  UNL     1      30.366  65.092  12.375  1.00  0.00     0.182 HD
BRANCH   9  11
HETATM   11  S1  UNL     1      28.345  63.821  12.032  1.00  0.00     0.318 S 
HETATM   12  O1  UNL     1      27.078  64.610  12.071  1.00  0.00    -0.183 OA
HETATM   13  O2  UNL     1      28.201  62.745  10.991  1.00  0.00    -0.183 OA
BRANCH  11  14
HETATM   14  N4  UNL     1      28.668  63.077  13.557  1.00  0.00    -0.311 N 
ATOM     15  H42 UNL     1      29.591  62.852  13.925  1.00  0.00     0.170 HD
ATOM     16  H41 UNL     1      27.767  62.912  14.006  1.00  0.00     0.170 HD
ENDBRANCH  11  14
ENDBRANCH   9  11
ENDBRANCH   5   9
TORSDOF 3
ENDMDL
MODEL 2
REMARK VINA RESULT: -5.494113123      1.285      1.857
REMARK  3 active torsions:
REMARK  status: ('A' for Active; 'I' for Inactive)
REMARK    1  A    between atoms: C2_5  and  N3_6 
REMARK    2  A    between atoms: N3_6  and  S1_8 
REMARK    3  A    between atoms: S1_8  and  N4_9 
ROOT
HETATM    1  N1  UNL     1      32.823  65.853   8.717  1.00  0.00    -0.080 NA
HETATM    2  C1  UNL     1      31.447  65.803   9.177  1.00  0.00     0.149 A 
HETATM    3  N2  UNL     1      31.093  65.613  10.417  1.00  0.00    -0.322 N 
ATOM      4  H2  UNL     1      31.800  65.486  11.142  1.00  0.00     0.169 HD
HETATM    5  C2  UNL     1      29.802  65.586  10.726  1.00  0.00     0.162 A 
HETATM    6  S2  UNL     1      29.045  65.838   9.216  1.00  0.00    -0.035 SA
HETATM    7  C3  UNL     1      30.446  65.967   8.250  1.00  0.00     0.131 A 
HETATM    8  N5  UNL     1      30.554  66.190   6.831  1.00  0.00    -0.091 NA
ENDROOT
BRANCH   5   9
HETATM    9  N3  UNL     1      29.263  65.406  11.919  1.00  0.00    -0.247 N 
ATOM     10  H3  UNL     1      29.389  66.090  12.665  1.00  0.00     0.182 HD
BRANCH   9  11
HETATM   11  S1  UNL     1      28.342  63.975  12.168  1.00  0.00     0.318 S 
HETATM   12  O1  UNL     1      26.885  64.271  12.309  1.00  0.00    -0.183 OA
HETATM   13  O2  UNL     1      28.524  63.048  10.999  1.00  0.00    -0.183 OA
BRANCH  11  14
HETATM   14  N4  UNL     1      28.966  63.209  13.585  1.00  0.00    -0.311 N 
ATOM     15  H42 UNL     1      28.655  62.316  13.965  1.00  0.00     0.170 HD
ATOM     16  H41 UNL     1      29.693  63.819  13.960  1.00  0.00     0.170 HD
ENDBRANCH  11  14
ENDBRANCH   9  11
ENDBRANCH   5   9
TORSDOF 3
ENDMDL
MODEL 3
REMARK VINA RESULT: -5.370885925      2.855      4.932
REMARK  3 active torsions:
REMARK  status: ('A' for Active; 'I' for Inactive)
REMARK    1  A    between atoms: C2_5  and  N3_6 
REMARK    2  A    between atoms: N3_6  and  S1_8 
REMARK    3  A    between atoms: S1_8  and  N4_9 
ROOT
HETATM    1  N1  UNL     1      27.600  62.360  11.123  1.00  0.00    -0.080 NA
HETATM    2  C1  UNL     1      28.317  63.617  11.005  1.00  0.00     0.149 A 
HETATM    3  N2  UNL     1      29.324  63.815  10.201  1.00  0.00    -0.322 N 
ATOM      4  H2  UNL     1      29.661  63.062   9.600  1.00  0.00     0.169 HD
HETATM    5  C2  UNL     1      29.907  65.008  10.175  1.00  0.00     0.162 A 
HETATM    6  S2  UNL     1      29.008  65.895  11.325  1.00  0.00    -0.035 SA
HETATM    7  C3  UNL     1      27.914  64.671  11.788  1.00  0.00     0.131 A 
HETATM    8  N5  UNL     1      26.843  64.726  12.750  1.00  0.00    -0.091 NA
ENDROOT
BRANCH   5   9
HETATM    9  N3  UNL     1      30.931  65.387   9.431  1.00  0.00    -0.247 N 
ATOM     10  H3  UNL     1      31.855  65.533   9.837  1.00  0.00     0.182 HD
BRANCH   9  11
HETATM   11  S1  UNL     1      30.649  65.626   7.751  1.00  0.00     0.318 S 
HETATM   12  O1  UNL     1      29.790  64.549   7.174  1.00  0.00    -0.183 OA
HETATM   13  O2  UNL     1      29.959  66.945   7.538  1.00  0.00    -0.183 OA
BRANCH  11  14
HETATM   14  N4  UNL     1      32.193  65.677   6.979  1.00  0.00    -0.311 N 
ATOM     15  H42 UNL     1      32.618  66.499   6.551  1.00  0.00     0.170 HD
ATOM     16  H41 UNL     1      32.588  64.738   7.036  1.00  0.00     0.170 HD
ENDBRANCH  11  14
ENDBRANCH   9  11
ENDBRANCH   5   9
TORSDOF 3
ENDMDL
MODEL 4
REMARK VINA RESULT: -5.323059387      3.066      5.328
REMARK  3 active torsions:
REMARK  status: ('A' for Active; 'I' for Inactive)
REMARK    1  A    between atoms: C2_5  and  N3_6 
REMARK    2  A    between atoms: N3_6  and  S1_8 
REMARK    3  A    between atoms: S1_8  and  N4_9 
ROOT
HETATM    1  N1  UNL     1      27.805  61.738  13.657  1.00  0.00    -0.080 NA
HETATM    2  C1  UNL     1      27.818  63.109  13.178  1.00  0.00     0.149 A 
HETATM    3  N2  UNL     1      28.840  63.675  12.599  1.00  0.00    -0.322 N 
ATOM      4  H2  UNL     1      29.705  63.154  12.455  1.00  0.00     0.169 HD
HETATM    5  C2  UNL     1      28.740  64.938  12.199  1.00  0.00     0.162 A 
HETATM    6  S2  UNL     1      27.148  65.355  12.652  1.00  0.00    -0.035 SA
HETATM    7  C3  UNL     1      26.683  63.865  13.342  1.00  0.00     0.131 A 
HETATM    8  N5  UNL     1      25.427  63.494  13.942  1.00  0.00    -0.091 NA
ENDROOT
BRANCH   5   9
HETATM    9  N3  UNL     1      29.665  65.667  11.600  1.00  0.00    -0.247 N 
ATOM     10  H3  UNL     1      29.930  66.585  11.960  1.00  0.00     0.182 HD
BRANCH   9  11
HETATM   11  S1  UNL     1      30.407  65.014  10.193  1.00  0.00     0.318 S 
HETATM   12  O1  UNL     1      29.740  63.753   9.749  1.00  0.00    -0.183 OA
HETATM   13  O2  UNL     1      30.326  66.011   9.071  1.00  0.00    -0.183 OA
BRANCH  11  14
HETATM   14  N4  UNL     1      32.069  64.742  10.574  1.00  0.00    -0.311 N 
ATOM     15  H42 UNL     1      32.672  65.380  11.093  1.00  0.00     0.170 HD
ATOM     16  H41 UNL     1      32.322  63.834  10.185  1.00  0.00     0.170 HD
ENDBRANCH  11  14
ENDBRANCH   9  11
ENDBRANCH   5   9
TORSDOF 3
ENDMDL
MODEL 5
REMARK VINA RESULT: -5.266348503      4.870      5.279
REMARK  3 active torsions:
REMARK  status: ('A' for Active; 'I' for Inactive)
REMARK    1  A    between atoms: C2_5  and  N3_6 
REMARK    2  A    between atoms: N3_6  and  S1_8 
REMARK    3  A    between atoms: S1_8  and  N4_9 
ROOT
HETATM    1  N1  UNL     1      26.264  60.264   9.639  1.00  0.00    -0.080 NA
HETATM    2  C1  UNL     1      25.817  61.490  10.278  1.00  0.00     0.149 A 
HETATM    3  N2  UNL     1      26.361  62.002  11.346  1.00  0.00    -0.322 N 
ATOM      4  H2  UNL     1      27.154  61.541  11.793  1.00  0.00     0.169 HD
HETATM    5  C2  UNL     1      25.871  63.131  11.844  1.00  0.00     0.162 A 
HETATM    6  S2  UNL     1      24.591  63.494  10.774  1.00  0.00    -0.035 SA
HETATM    7  C3  UNL     1      24.753  62.159   9.725  1.00  0.00     0.131 A 
HETATM    8  N5  UNL     1      23.976  61.819   8.560  1.00  0.00    -0.091 NA
ENDROOT
BRANCH   5   9
HETATM    9  N3  UNL     1      26.291  63.788  12.911  1.00  0.00    -0.247 N 
ATOM     10  H3  UNL     1      25.785  64.601  13.265  1.00  0.00     0.182 HD
BRANCH   9  11
HETATM   11  S1  UNL     1      27.722  63.225  13.681  1.00  0.00     0.318 S 
HETATM   12  O1  UNL     1      27.685  61.750  13.908  1.00  0.00    -0.183 OA
HETATM   13  O2  UNL     1      28.914  63.541  12.822  1.00  0.00    -0.183 OA
BRANCH  11  14
HETATM   14  N4  UNL     1      27.868  64.086  15.172  1.00  0.00    -0.311 N 
ATOM     15  H42 UNL     1      27.374  64.944  15.414  1.00  0.00     0.170 HD
ATOM     16  H41 UNL     1      28.535  63.574  15.749  1.00  0.00     0.170 HD
ENDBRANCH  11  14
ENDBRANCH   9  11
ENDBRANCH   5   9
TORSDOF 3
ENDMDL
