MODEL 1
REMARK VINA RESULT: -7.238196199      0.000      0.000
REMARK  5 active torsions:
REMARK  status: ('A' for Active; 'I' for Inactive)
REMARK    1  A    between atoms: C2_2  and  N2_5 
REMARK    2  A    between atoms: C2_2  and  O1_9 
REMARK    3  A    between atoms: N2_5  and  N3_6 
REMARK    4  A    between atoms: O1_9  and  C4_10 
REMARK    5  A    between atoms: C5_11  and  C6_12 
ROOT
HETATM    1  C1  UNL     1      26.310  64.216  10.560  1.00  0.00     0.086 C 
HETATM    2  C2  UNL     1      27.259  63.523  11.540  1.00  0.00     0.249 C 
HETATM    3  C3  UNL     1      26.470  63.066  12.659  1.00  0.00     0.119 C 
HETATM    4  N1  UNL     1      25.851  62.697  13.561  1.00  0.00    -0.192 NA
ENDROOT
BRANCH   2   5
HETATM    5  N2  UNL     1      27.861  62.421  10.808  1.00  0.00    -0.093 NA
BRANCH   5   6
HETATM    6  N3  UNL     1      27.091  61.293  10.974  1.00  0.00    -0.345 N 
ATOM      7  H32 UNL     1      27.446  60.390  11.287  1.00  0.00     0.172 HD
ATOM      8  H31 UNL     1      26.123  61.509  10.735  1.00  0.00     0.172 HD
ENDBRANCH   5   6
ENDBRANCH   2   5
BRANCH   2   9
HETATM    9  O1  UNL     1      28.310  64.388  11.917  1.00  0.00    -0.258 OA
BRANCH   9  10
HETATM   10  C4  UNL     1      29.259  64.820  11.025  1.00  0.00     0.064 C 
HETATM   11  C5  UNL     1      30.105  65.185  10.239  1.00  0.00    -0.013 C 
BRANCH  11  12
HETATM   12  C6  UNL     1      31.126  65.614   9.324  1.00  0.00     0.147 A 
HETATM   13  N4  UNL     1      32.456  65.544   9.516  1.00  0.00    -0.275 N 
HETATM   14  N5  UNL     1      33.100  66.021   8.484  1.00  0.00    -0.240 N 
ATOM     15  H4  UNL     1      32.902  65.169  10.354  1.00  0.00     0.189 HD
HETATM   16  N6  UNL     1      32.225  66.418   7.587  1.00  0.00    -0.271 N 
ATOM     17  H5  UNL     1      34.114  66.076   8.391  1.00  0.00     0.208 HD
HETATM   18  C7  UNL     1      30.981  66.185   8.067  1.00  0.00     0.169 A 
ATOM     19  H6  UNL     1      32.446  66.832   6.682  1.00  0.00     0.190 HD
HETATM   20  N7  UNL     1      29.744  66.454   7.442  1.00  0.00    -0.078 NA
ENDBRANCH  11  12
ENDBRANCH   9  10
ENDBRANCH   2   9
TORSDOF 5
ENDMDL
MODEL 2
REMARK VINA RESULT: -7.099478421      0.845      1.803
REMARK  5 active torsions:
REMARK  status: ('A' for Active; 'I' for Inactive)
REMARK    1  A    between atoms: C2_2  and  N2_5 
REMARK    2  A    between atoms: C2_2  and  O1_9 
REMARK    3  A    between atoms: N2_5  and  N3_6 
REMARK    4  A    between atoms: O1_9  and  C4_10 
REMARK    5  A    between atoms: C5_11  and  C6_12 
ROOT
HETATM    1  C1  UNL     1      28.613  63.610  13.297  1.00  0.00     0.086 C 
HETATM    2  C2  UNL     1      27.472  63.755  12.288  1.00  0.00     0.249 C 
HETATM    3  C3  UNL     1      27.432  62.545  11.502  1.00  0.00     0.119 C 
HETATM    4  N1  UNL     1      27.391  61.582  10.864  1.00  0.00    -0.192 NA
ENDROOT
BRANCH   2   5
HETATM    5  N2  UNL     1      26.261  63.940  13.070  1.00  0.00    -0.093 NA
BRANCH   5   6
HETATM    6  N3  UNL     1      25.715  62.710  13.356  1.00  0.00    -0.345 N 
ATOM      7  H32 UNL     1      24.844  62.357  12.960  1.00  0.00     0.172 HD
ATOM      8  H31 UNL     1      26.317  62.220  14.018  1.00  0.00     0.172 HD
ENDBRANCH   5   6
ENDBRANCH   2   5
BRANCH   2   9
HETATM    9  O1  UNL     1      27.638  64.920  11.506  1.00  0.00    -0.258 OA
BRANCH   9  10
HETATM   10  C4  UNL     1      28.773  65.152  10.770  1.00  0.00     0.064 C 
HETATM   11  C5  UNL     1      29.768  65.373  10.117  1.00  0.00    -0.013 C 
BRANCH  11  12
HETATM   12  C6  UNL     1      30.934  65.639   9.321  1.00  0.00     0.147 A 
HETATM   13  N4  UNL     1      32.216  65.536   9.719  1.00  0.00    -0.275 N 
HETATM   14  N5  UNL     1      33.031  65.851   8.746  1.00  0.00    -0.240 N 
ATOM     15  H4  UNL     1      32.513  65.252  10.652  1.00  0.00     0.189 HD
HETATM   16  N6  UNL     1      32.320  66.169   7.686  1.00  0.00    -0.271 N 
ATOM     17  H5  UNL     1      34.049  65.850   8.801  1.00  0.00     0.208 HD
HETATM   18  C7  UNL     1      31.007  66.051   7.998  1.00  0.00     0.169 A 
ATOM     19  H6  UNL     1      32.694  66.455   6.782  1.00  0.00     0.190 HD
HETATM   20  N7  UNL     1      29.893  66.292   7.167  1.00  0.00    -0.078 NA
ENDBRANCH  11  12
ENDBRANCH   9  10
ENDBRANCH   2   9
TORSDOF 5
ENDMDL
MODEL 3
REMARK VINA RESULT: -7.087716300      1.439      1.653
REMARK  5 active torsions:
REMARK  status: ('A' for Active; 'I' for Inactive)
REMARK    1  A    between atoms: C2_2  and  N2_5 
REMARK    2  A    between atoms: C2_2  and  O1_9 
REMARK    3  A    between atoms: N2_5  and  N3_6 
REMARK    4  A    between atoms: O1_9  and  C4_10 
REMARK    5  A    between atoms: C5_11  and  C6_12 
ROOT
HETATM    1  C1  UNL     1      27.654  62.552  11.444  1.00  0.00     0.086 C 
HETATM    2  C2  UNL     1      27.749  63.751  12.389  1.00  0.00     0.249 C 
HETATM    3  C3  UNL     1      26.570  63.741  13.222  1.00  0.00     0.119 C 
HETATM    4  N1  UNL     1      25.631  63.745  13.894  1.00  0.00    -0.192 NA
ENDROOT
BRANCH   2   5
HETATM    5  N2  UNL     1      28.966  63.563  13.160  1.00  0.00    -0.093 NA
BRANCH   5   6
HETATM    6  N3  UNL     1      28.874  64.276  14.333  1.00  0.00    -0.345 N 
ATOM      7  H32 UNL     1      28.886  63.862  15.265  1.00  0.00     0.172 HD
ATOM      8  H31 UNL     1      28.794  65.270  14.116  1.00  0.00     0.172 HD
ENDBRANCH   5   6
ENDBRANCH   2   5
BRANCH   2   9
HETATM    9  O1  UNL     1      27.904  64.953  11.662  1.00  0.00    -0.258 OA
BRANCH   9  10
HETATM   10  C4  UNL     1      28.981  65.178  10.842  1.00  0.00     0.064 C 
HETATM   11  C5  UNL     1      29.933  65.394  10.124  1.00  0.00    -0.013 C 
BRANCH  11  12
HETATM   12  C6  UNL     1      31.048  65.668   9.262  1.00  0.00     0.147 A 
HETATM   13  N4  UNL     1      32.352  65.599   9.590  1.00  0.00    -0.275 N 
HETATM   14  N5  UNL     1      33.105  65.912   8.570  1.00  0.00    -0.240 N 
ATOM     15  H4  UNL     1      32.704  65.337  10.511  1.00  0.00     0.189 HD
HETATM   16  N6  UNL     1      32.331  66.196   7.545  1.00  0.00    -0.271 N 
ATOM     17  H5  UNL     1      34.124  65.933   8.568  1.00  0.00     0.208 HD
HETATM   18  C7  UNL     1      31.040  66.058   7.929  1.00  0.00     0.169 A 
ATOM     19  H6  UNL     1      32.649  66.473   6.617  1.00  0.00     0.190 HD
HETATM   20  N7  UNL     1      29.877  66.262   7.157  1.00  0.00    -0.078 NA
ENDBRANCH  11  12
ENDBRANCH   9  10
ENDBRANCH   2   9
TORSDOF 5
ENDMDL
MODEL 4
REMARK VINA RESULT: -7.044768178      1.118      1.220
REMARK  5 active torsions:
REMARK  status: ('A' for Active; 'I' for Inactive)
REMARK    1  A    between atoms: C2_2  and  N2_5 
REMARK    2  A    between atoms: C2_2  and  O1_9 
REMARK    3  A    between atoms: N2_5  and  N3_6 
REMARK    4  A    between atoms: O1_9  and  C4_10 
REMARK    5  A    between atoms: C5_11  and  C6_12 
ROOT
HETATM    1  C1  UNL     1      25.780  64.020  12.343  1.00  0.00     0.086 C 
HETATM    2  C2  UNL     1      27.147  63.917  11.663  1.00  0.00     0.249 C 
HETATM    3  C3  UNL     1      28.110  63.562  12.678  1.00  0.00     0.119 C 
HETATM    4  N1  UNL     1      28.891  63.281  13.481  1.00  0.00    -0.192 NA
ENDROOT
BRANCH   2   5
HETATM    5  N2  UNL     1      27.016  62.885  10.648  1.00  0.00    -0.093 NA
BRANCH   5   6
HETATM    6  N3  UNL     1      27.216  61.652  11.227  1.00  0.00    -0.345 N 
ATOM      7  H32 UNL     1      26.718  61.312  12.049  1.00  0.00     0.172 HD
ATOM      8  H31 UNL     1      27.932  61.148  10.704  1.00  0.00     0.172 HD
ENDBRANCH   5   6
ENDBRANCH   2   5
BRANCH   2   9
HETATM    9  O1  UNL     1      27.466  65.117  10.990  1.00  0.00    -0.258 OA
BRANCH   9  10
HETATM   10  C4  UNL     1      28.664  65.300  10.347  1.00  0.00     0.064 C 
HETATM   11  C5  UNL     1      29.718  65.478   9.776  1.00  0.00    -0.013 C 
BRANCH  11  12
HETATM   12  C6  UNL     1      30.955  65.698   9.081  1.00  0.00     0.147 A 
HETATM   13  N4  UNL     1      32.190  65.685   9.617  1.00  0.00    -0.275 N 
HETATM   14  N5  UNL     1      33.094  65.923   8.705  1.00  0.00    -0.240 N 
ATOM     15  H4  UNL     1      32.392  65.513  10.602  1.00  0.00     0.189 HD
HETATM   16  N6  UNL     1      32.493  66.100   7.549  1.00  0.00    -0.271 N 
ATOM     17  H5  UNL     1      34.101  65.965   8.863  1.00  0.00     0.208 HD
HETATM   18  C7  UNL     1      31.158  65.970   7.735  1.00  0.00     0.169 A 
ATOM     19  H6  UNL     1      32.954  66.301   6.662  1.00  0.00     0.190 HD
HETATM   20  N7  UNL     1      30.132  66.080   6.772  1.00  0.00    -0.078 NA
ENDBRANCH  11  12
ENDBRANCH   9  10
ENDBRANCH   2   9
TORSDOF 5
ENDMDL
MODEL 5
REMARK VINA RESULT: -7.012675545      2.396      2.797
REMARK  5 active torsions:
REMARK  status: ('A' for Active; 'I' for Inactive)
REMARK    1  A    between atoms: C2_2  and  N2_5 
REMARK    2  A    between atoms: C2_2  and  O1_9 
REMARK    3  A    between atoms: N2_5  and  N3_6 
REMARK    4  A    between atoms: O1_9  and  C4_10 
REMARK    5  A    between atoms: C5_11  and  C6_12 
ROOT
HETATM    1  C1  UNL     1      25.774  65.207  11.249  1.00  0.00     0.086 C 
HETATM    2  C2  UNL     1      25.506  64.712   9.827  1.00  0.00     0.249 C 
HETATM    3  C3  UNL     1      25.604  63.272   9.844  1.00  0.00     0.119 C 
HETATM    4  N1  UNL     1      25.681  62.119   9.843  1.00  0.00    -0.192 NA
ENDROOT
BRANCH   2   5
HETATM    5  N2  UNL     1      24.168  65.166   9.486  1.00  0.00    -0.093 NA
BRANCH   5   6
HETATM    6  N3  UNL     1      23.535  64.195   8.745  1.00  0.00    -0.345 N 
ATOM      7  H32 UNL     1      22.533  64.008   8.770  1.00  0.00     0.172 HD
ATOM      8  H31 UNL     1      24.225  63.703   8.176  1.00  0.00     0.172 HD
ENDBRANCH   5   6
ENDBRANCH   2   5
BRANCH   2   9
HETATM    9  O1  UNL     1      26.392  65.317   8.908  1.00  0.00    -0.258 OA
BRANCH   9  10
HETATM   10  C4  UNL     1      27.749  65.352   9.114  1.00  0.00     0.064 C 
HETATM   11  C5  UNL     1      28.948  65.390   9.279  1.00  0.00    -0.013 C 
BRANCH  11  12
HETATM   12  C6  UNL     1      30.373  65.420   9.454  1.00  0.00     0.147 A 
HETATM   13  N4  UNL     1      31.061  64.949  10.511  1.00  0.00    -0.275 N 
HETATM   14  N5  UNL     1      32.344  65.136  10.350  1.00  0.00    -0.240 N 
ATOM     15  H4  UNL     1      30.638  64.507  11.327  1.00  0.00     0.189 HD
HETATM   16  N6  UNL     1      32.543  65.731   9.194  1.00  0.00    -0.271 N 
ATOM     17  H5  UNL     1      33.071  64.865  11.012  1.00  0.00     0.208 HD
HETATM   18  C7  UNL     1      31.342  65.928   8.600  1.00  0.00     0.169 A 
ATOM     19  H6  UNL     1      33.449  65.998   8.810  1.00  0.00     0.190 HD
HETATM   20  N7  UNL     1      31.080  66.532   7.352  1.00  0.00    -0.078 NA
ENDBRANCH  11  12
ENDBRANCH   9  10
ENDBRANCH   2   9
TORSDOF 5
ENDMDL
