MODEL 1
REMARK VINA RESULT: -6.811518761      0.000      0.000
REMARK  3 active torsions:
REMARK  status: ('A' for Active; 'I' for Inactive)
REMARK    1  A    between atoms: C2_7  and  C3_8 
REMARK    2  A    between atoms: N3_9  and  N4_11 
REMARK    3  A    between atoms: N4_11  and  C4_13 
ROOT
HETATM    1  C3  UNL     1      28.531  65.771  11.868  1.00  0.00     0.157 C 
HETATM    2  N3  UNL     1      29.603  66.236  11.324  1.00  0.00    -0.306 N 
ATOM      3  H3  UNL     1      29.798  67.233  11.422  1.00  0.00     0.186 HD
ENDROOT
BRANCH   2   4
HETATM    4  N4  UNL     1      30.513  65.455  10.607  1.00  0.00    -0.272 N 
ATOM      5  H4  UNL     1      30.895  64.617  11.044  1.00  0.00     0.190 HD
BRANCH   4   6
HETATM    6  C4  UNL     1      30.926  65.794   9.283  1.00  0.00     0.190 C 
HETATM    7  N5  UNL     1      30.172  66.130   8.311  1.00  0.00    -0.360 N 
HETATM    8  C5  UNL     1      30.949  66.397   7.133  1.00  0.00     0.142 C 
ATOM      9  H5  UNL     1      29.155  66.199   8.363  1.00  0.00     0.162 HD
HETATM   10  C6  UNL     1      32.348  66.572   7.675  1.00  0.00     0.142 C 
HETATM   11  N6  UNL     1      32.291  65.795   8.891  1.00  0.00    -0.360 N 
ATOM     12  H6  UNL     1      33.069  65.341   9.369  1.00  0.00     0.162 HD
ENDBRANCH   4   6
ENDBRANCH   2   4
BRANCH   1  13
HETATM   13  C2  UNL     1      28.143  64.375  11.800  1.00  0.00     0.141 A 
HETATM   14  N2  UNL     1      28.325  63.430  12.733  1.00  0.00    -0.280 N 
HETATM   15  N1  UNL     1      27.829  62.297  12.283  1.00  0.00    -0.250 N 
ATOM     16  H2  UNL     1      28.772  63.566  13.639  1.00  0.00     0.188 HD
HETATM   17  C1  UNL     1      27.323  62.495  11.057  1.00  0.00     0.340 A 
ATOM     18  H1  UNL     1      27.830  61.409  12.786  1.00  0.00     0.192 HD
HETATM   19  O1  UNL     1      26.762  61.623  10.316  1.00  0.00    -0.245 OA
HETATM   20  N7  UNL     1      27.524  63.791  10.766  1.00  0.00    -0.291 N 
ATOM     21  H7  UNL     1      27.250  64.254   9.899  1.00  0.00     0.172 HD
ENDBRANCH   1  13
TORSDOF 3
ENDMDL
MODEL 2
REMARK VINA RESULT: -6.811101417      0.123      1.020
REMARK  3 active torsions:
REMARK  status: ('A' for Active; 'I' for Inactive)
REMARK    1  A    between atoms: C2_7  and  C3_8 
REMARK    2  A    between atoms: N3_9  and  N4_11 
REMARK    3  A    between atoms: N4_11  and  C4_13 
ROOT
HETATM    1  C3  UNL     1      28.546  65.745  11.900  1.00  0.00     0.157 C 
HETATM    2  N3  UNL     1      29.593  66.220  11.319  1.00  0.00    -0.306 N 
ATOM      3  H3  UNL     1      29.798  67.213  11.435  1.00  0.00     0.186 HD
ENDROOT
BRANCH   2   4
HETATM    4  N4  UNL     1      30.464  65.456  10.540  1.00  0.00    -0.272 N 
ATOM      5  H4  UNL     1      30.727  64.524  10.862  1.00  0.00     0.190 HD
BRANCH   4   6
HETATM    6  C4  UNL     1      30.998  65.936   9.305  1.00  0.00     0.190 C 
HETATM    7  N5  UNL     1      32.222  65.935   8.952  1.00  0.00    -0.360 N 
HETATM    8  C5  UNL     1      32.374  66.500   7.639  1.00  0.00     0.142 C 
ATOM      9  H5  UNL     1      32.990  65.581   9.523  1.00  0.00     0.162 HD
HETATM   10  C6  UNL     1      30.970  66.462   7.083  1.00  0.00     0.142 C 
HETATM   11  N6  UNL     1      30.176  66.492   8.289  1.00  0.00    -0.360 N 
ATOM     12  H6  UNL     1      29.223  66.841   8.390  1.00  0.00     0.162 HD
ENDBRANCH   4   6
ENDBRANCH   2   4
BRANCH   1  13
HETATM   13  C2  UNL     1      28.146  64.354  11.812  1.00  0.00     0.141 A 
HETATM   14  N2  UNL     1      28.320  63.394  12.733  1.00  0.00    -0.280 N 
HETATM   15  N1  UNL     1      27.816  62.271  12.266  1.00  0.00    -0.250 N 
ATOM     16  H2  UNL     1      28.767  63.514  13.641  1.00  0.00     0.188 HD
HETATM   17  C1  UNL     1      27.312  62.491  11.043  1.00  0.00     0.340 A 
ATOM     18  H1  UNL     1      27.809  61.377  12.756  1.00  0.00     0.192 HD
HETATM   19  O1  UNL     1      26.745  61.634  10.289  1.00  0.00    -0.245 OA
HETATM   20  N7  UNL     1      27.523  63.789  10.770  1.00  0.00    -0.291 N 
ATOM     21  H7  UNL     1      27.254  64.266   9.910  1.00  0.00     0.172 HD
ENDBRANCH   1  13
TORSDOF 3
ENDMDL
MODEL 3
REMARK VINA RESULT: -6.545413734      2.181      2.730
REMARK  3 active torsions:
REMARK  status: ('A' for Active; 'I' for Inactive)
REMARK    1  A    between atoms: C2_7  and  C3_8 
REMARK    2  A    between atoms: N3_9  and  N4_11 
REMARK    3  A    between atoms: N4_11  and  C4_13 
ROOT
HETATM    1  C3  UNL     1      28.337  65.672  10.897  1.00  0.00     0.157 C 
HETATM    2  N3  UNL     1      29.532  65.191  10.859  1.00  0.00    -0.306 N 
ATOM      3  H3  UNL     1      30.125  65.312  11.680  1.00  0.00     0.186 HD
ENDROOT
BRANCH   2   4
HETATM    4  N4  UNL     1      30.062  64.513   9.759  1.00  0.00    -0.272 N 
ATOM      5  H4  UNL     1      29.927  63.504   9.688  1.00  0.00     0.190 HD
BRANCH   4   6
HETATM    6  C4  UNL     1      30.788  65.187   8.730  1.00  0.00     0.190 C 
HETATM    7  N5  UNL     1      30.379  65.444   7.551  1.00  0.00    -0.360 N 
HETATM    8  C5  UNL     1      31.390  66.135   6.800  1.00  0.00     0.142 C 
ATOM      9  H5  UNL     1      29.458  65.193   7.189  1.00  0.00     0.162 HD
HETATM   10  C6  UNL     1      32.338  66.626   7.869  1.00  0.00     0.142 C 
HETATM   11  N6  UNL     1      32.110  65.668   8.926  1.00  0.00    -0.360 N 
ATOM     12  H6  UNL     1      32.763  65.393   9.660  1.00  0.00     0.162 HD
ENDBRANCH   4   6
ENDBRANCH   2   4
BRANCH   1  13
HETATM   13  C2  UNL     1      27.399  65.567   9.796  1.00  0.00     0.141 A 
HETATM   14  N2  UNL     1      27.236  66.422   8.776  1.00  0.00    -0.280 N 
HETATM   15  N1  UNL     1      26.283  65.962   7.993  1.00  0.00    -0.250 N 
ATOM     16  H2  UNL     1      27.762  67.283   8.631  1.00  0.00     0.188 HD
HETATM   17  C1  UNL     1      25.819  64.808   8.496  1.00  0.00     0.340 A 
ATOM     18  H1  UNL     1      25.950  66.411   7.140  1.00  0.00     0.192 HD
HETATM   19  O1  UNL     1      24.895  64.081   8.005  1.00  0.00    -0.245 OA
HETATM   20  N7  UNL     1      26.520  64.572   9.618  1.00  0.00    -0.291 N 
ATOM     21  H7  UNL     1      26.401  63.767  10.233  1.00  0.00     0.172 HD
ENDBRANCH   1  13
TORSDOF 3
ENDMDL
MODEL 4
REMARK VINA RESULT: -6.515390312      1.250      1.270
REMARK  3 active torsions:
REMARK  status: ('A' for Active; 'I' for Inactive)
REMARK    1  A    between atoms: C2_7  and  C3_8 
REMARK    2  A    between atoms: N3_9  and  N4_11 
REMARK    3  A    between atoms: N4_11  and  C4_13 
ROOT
HETATM    1  C3  UNL     1      28.796  66.399  12.317  1.00  0.00     0.157 C 
HETATM    2  N3  UNL     1      29.645  66.650  11.381  1.00  0.00    -0.306 N 
ATOM      3  H3  UNL     1      29.879  67.625  11.193  1.00  0.00     0.186 HD
ENDROOT
BRANCH   2   4
HETATM    4  N4  UNL     1      30.266  65.665  10.610  1.00  0.00    -0.272 N 
ATOM      5  H4  UNL     1      30.348  64.721  10.987  1.00  0.00     0.190 HD
BRANCH   4   6
HETATM    6  C4  UNL     1      30.789  65.938   9.309  1.00  0.00     0.190 C 
HETATM    7  N5  UNL     1      30.138  66.364   8.299  1.00  0.00    -0.360 N 
HETATM    8  C5  UNL     1      31.005  66.519   7.163  1.00  0.00     0.142 C 
ATOM      9  H5  UNL     1      29.138  66.569   8.297  1.00  0.00     0.162 HD
HETATM   10  C6  UNL     1      32.384  66.509   7.778  1.00  0.00     0.142 C 
HETATM   11  N6  UNL     1      32.160  65.754   8.989  1.00  0.00    -0.360 N 
ATOM     12  H6  UNL     1      32.845  65.204   9.507  1.00  0.00     0.162 HD
ENDBRANCH   4   6
ENDBRANCH   2   4
BRANCH   1  13
HETATM   13  C2  UNL     1      28.382  65.058  12.680  1.00  0.00     0.141 A 
HETATM   14  N2  UNL     1      29.140  64.080  13.198  1.00  0.00    -0.280 N 
HETATM   15  N1  UNL     1      28.385  63.019  13.384  1.00  0.00    -0.250 N 
ATOM     16  H2  UNL     1      30.134  64.148  13.412  1.00  0.00     0.188 HD
HETATM   17  C1  UNL     1      27.133  63.296  12.988  1.00  0.00     0.340 A 
ATOM     18  H1  UNL     1      28.700  62.128  13.766  1.00  0.00     0.192 HD
HETATM   19  O1  UNL     1      26.133  62.506  13.021  1.00  0.00    -0.245 OA
HETATM   20  N7  UNL     1      27.143  64.566  12.552  1.00  0.00    -0.291 N 
ATOM     21  H7  UNL     1      26.338  65.073  12.184  1.00  0.00     0.172 HD
ENDBRANCH   1  13
TORSDOF 3
ENDMDL
MODEL 5
REMARK VINA RESULT: -6.411476638      2.347      2.988
REMARK  3 active torsions:
REMARK  status: ('A' for Active; 'I' for Inactive)
REMARK    1  A    between atoms: C2_7  and  C3_8 
REMARK    2  A    between atoms: N3_9  and  N4_11 
REMARK    3  A    between atoms: N4_11  and  C4_13 
ROOT
HETATM    1  C3  UNL     1      28.271  64.262  11.150  1.00  0.00     0.157 C 
HETATM    2  N3  UNL     1      29.096  64.472  10.182  1.00  0.00    -0.306 N 
ATOM      3  H3  UNL     1      28.854  64.112   9.259  1.00  0.00     0.186 HD
ENDROOT
BRANCH   2   4
HETATM    4  N4  UNL     1      30.301  65.164  10.324  1.00  0.00    -0.272 N 
ATOM      5  H4  UNL     1      30.730  65.225  11.247  1.00  0.00     0.190 HD
BRANCH   4   6
HETATM    6  C4  UNL     1      30.952  65.788   9.217  1.00  0.00     0.190 C 
HETATM    7  N5  UNL     1      32.200  65.779   8.962  1.00  0.00    -0.360 N 
HETATM    8  C5  UNL     1      32.480  66.516   7.760  1.00  0.00     0.142 C 
ATOM      9  H5  UNL     1      32.905  65.312   9.533  1.00  0.00     0.162 HD
HETATM   10  C6  UNL     1      31.127  66.623   7.099  1.00  0.00     0.142 C 
HETATM   11  N6  UNL     1      30.237  66.520   8.232  1.00  0.00    -0.360 N 
ATOM     12  H6  UNL     1      29.292  66.896   8.308  1.00  0.00     0.162 HD
ENDBRANCH   4   6
ENDBRANCH   2   4
BRANCH   1  13
HETATM   13  C2  UNL     1      28.499  64.722  12.507  1.00  0.00     0.141 A 
HETATM   14  N2  UNL     1      29.156  64.084  13.487  1.00  0.00    -0.280 N 
HETATM   15  N1  UNL     1      29.138  64.840  14.563  1.00  0.00    -0.250 N 
ATOM     16  H2  UNL     1      29.595  63.167  13.410  1.00  0.00     0.188 HD
HETATM   17  C1  UNL     1      28.471  65.972  14.294  1.00  0.00     0.340 A 
ATOM     18  H1  UNL     1      29.563  64.604  15.460  1.00  0.00     0.192 HD
HETATM   19  O1  UNL     1      28.255  66.937  15.099  1.00  0.00    -0.245 OA
HETATM   20  N7  UNL     1      28.077  65.888  13.013  1.00  0.00    -0.291 N 
ATOM     21  H7  UNL     1      27.545  66.596  12.508  1.00  0.00     0.172 HD
ENDBRANCH   1  13
TORSDOF 3
ENDMDL
