MODEL 1
REMARK VINA RESULT: -6.810702772      0.000      0.000
REMARK  2 active torsions:
REMARK  status: ('A' for Active; 'I' for Inactive)
REMARK    1  A    between atoms: C3_4  and  C4_5 
REMARK       I    between atoms: C4_5  and  N2_7 
REMARK    2  A    between atoms: N2_7  and  N3_9 
ROOT
HETATM    1  N1  UNL     1      29.021  66.255   6.562  1.00  0.00    -0.191 NA
HETATM    2  C1  UNL     1      28.939  66.038   7.717  1.00  0.00     0.107 C 
HETATM    3  C2  UNL     1      28.807  65.777   9.117  1.00  0.00     0.144 A 
HETATM    4  C3  UNL     1      29.918  65.566   9.896  1.00  0.00     0.131 A 
HETATM    5  N4  UNL     1      29.683  65.328  11.208  1.00  0.00    -0.327 N 
ATOM      6  H4  UNL     1      30.489  65.167  11.814  1.00  0.00     0.168 HD
HETATM    7  C5  UNL     1      28.463  65.290  11.766  1.00  0.00     0.179 A 
HETATM    8  S1  UNL     1      28.249  64.995  13.365  1.00  0.00    -0.040 SA
HETATM    9  N5  UNL     1      27.385  65.492  11.026  1.00  0.00    -0.299 N 
ATOM     10  H5  UNL     1      26.455  65.465  11.444  1.00  0.00     0.171 HD
HETATM   11  C6  UNL     1      27.539  65.734   9.719  1.00  0.00     0.270 A 
HETATM   12  O2  UNL     1      26.557  65.937   8.946  1.00  0.00    -0.266 OA
ENDROOT
BRANCH   4  13
HETATM   13  C4  UNL     1      31.280  65.590   9.368  1.00  0.00     0.287 C 
HETATM   14  O1  UNL     1      32.150  64.868   9.916  1.00  0.00    -0.264 OA
HETATM   15  N2  UNL     1      31.691  66.375   8.275  1.00  0.00    -0.271 N 
ATOM     16  H2  UNL     1      31.018  66.977   7.800  1.00  0.00     0.189 HD
BRANCH  15  17
HETATM   17  N3  UNL     1      33.021  66.333   7.837  1.00  0.00    -0.342 N 
ATOM     18  H32 UNL     1      33.753  66.081   8.503  1.00  0.00     0.176 HD
ATOM     19  H31 UNL     1      33.250  66.553   6.867  1.00  0.00     0.176 HD
ENDBRANCH  15  17
ENDBRANCH   4  13
TORSDOF 2
ENDMDL
MODEL 2
REMARK VINA RESULT: -6.572098978      2.364      3.149
REMARK  2 active torsions:
REMARK  status: ('A' for Active; 'I' for Inactive)
REMARK    1  A    between atoms: C3_4  and  C4_5 
REMARK       I    between atoms: C4_5  and  N2_7 
REMARK    2  A    between atoms: N2_7  and  N3_9 
ROOT
HETATM    1  N1  UNL     1      31.814  64.912   9.878  1.00  0.00    -0.191 NA
HETATM    2  C1  UNL     1      30.667  65.155   9.766  1.00  0.00     0.107 C 
HETATM    3  C2  UNL     1      29.269  65.440   9.661  1.00  0.00     0.144 A 
HETATM    4  C3  UNL     1      28.745  65.945   8.496  1.00  0.00     0.131 A 
HETATM    5  N4  UNL     1      27.412  66.180   8.501  1.00  0.00    -0.327 N 
ATOM      6  H4  UNL     1      26.992  66.556   7.650  1.00  0.00     0.168 HD
HETATM    7  C5  UNL     1      26.605  65.952   9.549  1.00  0.00     0.179 A 
HETATM    8  S1  UNL     1      24.995  66.259   9.487  1.00  0.00    -0.040 SA
HETATM    9  N5  UNL     1      27.097  65.464  10.676  1.00  0.00    -0.299 N 
ATOM     10  H5  UNL     1      26.489  65.288  11.476  1.00  0.00     0.171 HD
HETATM   11  C6  UNL     1      28.409  65.207  10.745  1.00  0.00     0.270 A 
HETATM   12  O2  UNL     1      28.955  64.741  11.789  1.00  0.00    -0.266 OA
ENDROOT
BRANCH   4  13
HETATM   13  C4  UNL     1      29.553  66.223   7.311  1.00  0.00     0.287 C 
HETATM   14  O1  UNL     1      29.165  65.782   6.201  1.00  0.00    -0.264 OA
HETATM   15  N2  UNL     1      30.751  66.961   7.326  1.00  0.00    -0.271 N 
ATOM     16  H2  UNL     1      31.105  67.339   8.205  1.00  0.00     0.189 HD
BRANCH  15  17
HETATM   17  N3  UNL     1      31.460  67.179   6.137  1.00  0.00    -0.342 N 
ATOM     18  H32 UNL     1      31.552  66.413   5.470  1.00  0.00     0.176 HD
ATOM     19  H31 UNL     1      31.876  68.092   5.947  1.00  0.00     0.176 HD
ENDBRANCH  15  17
ENDBRANCH   4  13
TORSDOF 2
ENDMDL
MODEL 3
REMARK VINA RESULT: -6.405852246      4.916      5.402
REMARK  2 active torsions:
REMARK  status: ('A' for Active; 'I' for Inactive)
REMARK    1  A    between atoms: C3_4  and  C4_5 
REMARK       I    between atoms: C4_5  and  N2_7 
REMARK    2  A    between atoms: N2_7  and  N3_9 
ROOT
HETATM    1  N1  UNL     1      26.976  60.713   9.865  1.00  0.00    -0.191 NA
HETATM    2  C1  UNL     1      26.349  61.692  10.053  1.00  0.00     0.107 C 
HETATM    3  C2  UNL     1      25.570  62.875  10.255  1.00  0.00     0.144 A 
HETATM    4  C3  UNL     1      25.836  63.715  11.308  1.00  0.00     0.131 A 
HETATM    5  N4  UNL     1      25.040  64.806  11.409  1.00  0.00    -0.327 N 
ATOM      6  H4  UNL     1      25.212  65.450  12.182  1.00  0.00     0.168 HD
HETATM    7  C5  UNL     1      24.041  65.098  10.562  1.00  0.00     0.179 A 
HETATM    8  S1  UNL     1      23.114  66.439  10.742  1.00  0.00    -0.040 SA
HETATM    9  N5  UNL     1      23.776  64.297   9.542  1.00  0.00    -0.299 N 
ATOM     10  H5  UNL     1      23.018  64.513   8.895  1.00  0.00     0.171 HD
HETATM   11  C6  UNL     1      24.521  63.198   9.379  1.00  0.00     0.270 A 
HETATM   12  O2  UNL     1      24.329  62.382   8.429  1.00  0.00    -0.266 OA
ENDROOT
BRANCH   4  13
HETATM   13  C4  UNL     1      26.903  63.471  12.276  1.00  0.00     0.287 C 
HETATM   14  O1  UNL     1      26.664  62.730  13.261  1.00  0.00    -0.264 OA
HETATM   15  N2  UNL     1      28.197  64.016  12.179  1.00  0.00    -0.271 N 
ATOM     16  H2  UNL     1      28.435  64.624  11.395  1.00  0.00     0.189 HD
BRANCH  15  17
HETATM   17  N3  UNL     1      29.159  63.727  13.156  1.00  0.00    -0.342 N 
ATOM     18  H32 UNL     1      29.123  64.224  14.047  1.00  0.00     0.176 HD
ATOM     19  H31 UNL     1      29.881  63.029  12.974  1.00  0.00     0.176 HD
ENDBRANCH  15  17
ENDBRANCH   4  13
TORSDOF 2
ENDMDL
MODEL 4
REMARK VINA RESULT: -6.344636711      5.222      5.755
REMARK  2 active torsions:
REMARK  status: ('A' for Active; 'I' for Inactive)
REMARK    1  A    between atoms: C3_4  and  C4_5 
REMARK       I    between atoms: C4_5  and  N2_7 
REMARK    2  A    between atoms: N2_7  and  N3_9 
ROOT
HETATM    1  N1  UNL     1      26.621  60.390   9.532  1.00  0.00    -0.191 NA
HETATM    2  C1  UNL     1      26.083  61.422   9.708  1.00  0.00     0.107 C 
HETATM    3  C2  UNL     1      25.412  62.671   9.895  1.00  0.00     0.144 A 
HETATM    4  C3  UNL     1      25.760  63.503  10.930  1.00  0.00     0.131 A 
HETATM    5  N4  UNL     1      25.063  64.661  11.018  1.00  0.00    -0.327 N 
ATOM      6  H4  UNL     1      25.298  65.301  11.778  1.00  0.00     0.168 HD
HETATM    7  C5  UNL     1      24.084  65.023  10.175  1.00  0.00     0.179 A 
HETATM    8  S1  UNL     1      23.278  66.443  10.339  1.00  0.00    -0.040 SA
HETATM    9  N5  UNL     1      23.740  64.231   9.172  1.00  0.00    -0.299 N 
ATOM     10  H5  UNL     1      22.997  64.501   8.528  1.00  0.00     0.171 HD
HETATM   11  C6  UNL     1      24.386  63.068   9.023  1.00  0.00     0.270 A 
HETATM   12  O2  UNL     1      24.113  62.256   8.089  1.00  0.00    -0.266 OA
ENDROOT
BRANCH   4  13
HETATM   13  C4  UNL     1      26.812  63.185  11.893  1.00  0.00     0.287 C 
HETATM   14  O1  UNL     1      28.005  63.423  11.581  1.00  0.00    -0.264 OA
HETATM   15  N2  UNL     1      26.578  62.623  13.162  1.00  0.00    -0.271 N 
ATOM     16  H2  UNL     1      25.625  62.413  13.457  1.00  0.00     0.189 HD
BRANCH  15  17
HETATM   17  N3  UNL     1      27.651  62.352  14.021  1.00  0.00    -0.342 N 
ATOM     18  H32 UNL     1      27.975  63.084  14.654  1.00  0.00     0.176 HD
ATOM     19  H31 UNL     1      28.099  61.434  14.009  1.00  0.00     0.176 HD
ENDBRANCH  15  17
ENDBRANCH   4  13
TORSDOF 2
ENDMDL
MODEL 5
REMARK VINA RESULT: -6.305331237      2.738      3.787
REMARK  2 active torsions:
REMARK  status: ('A' for Active; 'I' for Inactive)
REMARK    1  A    between atoms: C3_4  and  C4_5 
REMARK       I    between atoms: C4_5  and  N2_7 
REMARK    2  A    between atoms: N2_7  and  N3_9 
ROOT
HETATM    1  N1  UNL     1      27.089  61.738  10.282  1.00  0.00    -0.191 NA
HETATM    2  C1  UNL     1      27.432  62.566  11.046  1.00  0.00     0.107 C 
HETATM    3  C2  UNL     1      27.834  63.555  11.997  1.00  0.00     0.144 A 
HETATM    4  C3  UNL     1      28.545  64.661  11.598  1.00  0.00     0.131 A 
HETATM    5  N4  UNL     1      28.876  65.536  12.578  1.00  0.00    -0.327 N 
ATOM      6  H4  UNL     1      29.404  66.368  12.313  1.00  0.00     0.168 HD
HETATM    7  C5  UNL     1      28.556  65.382  13.872  1.00  0.00     0.179 A 
HETATM    8  S1  UNL     1      28.990  66.482  15.009  1.00  0.00    -0.040 SA
HETATM    9  N5  UNL     1      27.871  64.322  14.269  1.00  0.00    -0.299 N 
ATOM     10  H5  UNL     1      27.625  64.200  15.251  1.00  0.00     0.171 HD
HETATM   11  C6  UNL     1      27.509  63.413  13.356  1.00  0.00     0.270 A 
HETATM   12  O2  UNL     1      26.854  62.372  13.658  1.00  0.00    -0.266 OA
ENDROOT
BRANCH   4  13
HETATM   13  C4  UNL     1      28.933  64.904  10.211  1.00  0.00     0.287 C 
HETATM   14  O1  UNL     1      28.069  65.338   9.411  1.00  0.00    -0.264 OA
HETATM   15  N2  UNL     1      30.227  64.681   9.703  1.00  0.00    -0.271 N 
ATOM     16  H2  UNL     1      30.961  64.328  10.317  1.00  0.00     0.189 HD
BRANCH  15  17
HETATM   17  N3  UNL     1      30.509  64.943   8.355  1.00  0.00    -0.342 N 
ATOM     18  H32 UNL     1      29.954  64.480   7.635  1.00  0.00     0.176 HD
ATOM     19  H31 UNL     1      31.259  65.589   8.104  1.00  0.00     0.176 HD
ENDBRANCH  15  17
ENDBRANCH   4  13
TORSDOF 2
ENDMDL
