MODEL 1
REMARK VINA RESULT: -6.790906149      0.000      0.000
REMARK  8 active torsions:
REMARK  status: ('A' for Active; 'I' for Inactive)
REMARK    1  A    between atoms: C2_2  and  N1_3 
REMARK       I    between atoms: N1_3  and  C3_5 
REMARK       I    between atoms: C3_5  and  N2_7 
REMARK    2  A    between atoms: N2_7  and  C4_9 
REMARK    3  A    between atoms: C4_9  and  C5_10 
REMARK       I    between atoms: N3_11  and  C6_13 
REMARK    4  A    between atoms: C6_13  and  C7_15 
REMARK    5  A    between atoms: C7_15  and  N4_16 
REMARK    6  A    between atoms: C7_15  and  C11_23 
REMARK    7  A    between atoms: N4_16  and  C8_18 
REMARK    8  A    between atoms: C8_18  and  C10_20 
ROOT
HETATM    1  C5  UNL     1      25.052  65.273  11.329  1.00  0.00     0.084 C 
HETATM    2  N3  UNL     1      26.282  65.837  11.161  1.00  0.00    -0.334 N 
ATOM      3  H3  UNL     1      26.801  65.875  12.038  1.00  0.00     0.168 HD
HETATM    4  C6  UNL     1      27.016  66.373  10.107  1.00  0.00     0.267 C 
HETATM    5  O2  UNL     1      26.551  66.407   8.938  1.00  0.00    -0.266 OA
ENDROOT
BRANCH   4   6
HETATM    6  C7  UNL     1      28.369  66.937  10.359  1.00  0.00     0.078 C 
BRANCH   6   7
HETATM    7  N4  UNL     1      29.058  67.216   9.181  1.00  0.00    -0.376 N 
ATOM      8  H4  UNL     1      28.815  68.104   8.741  1.00  0.00     0.160 HD
BRANCH   7   9
HETATM    9  C8  UNL     1      30.007  66.491   8.522  1.00  0.00     0.167 C 
HETATM   10  C9  UNL     1      31.420  66.747   9.105  1.00  0.00     0.042 C 
BRANCH   9  11
HETATM   11  C10 UNL     1      30.092  66.765   7.044  1.00  0.00     0.253 C 
HETATM   12  N5  UNL     1      31.063  67.594   6.455  1.00  0.00    -0.060 NA
HETATM   13  O3  UNL     1      29.227  66.214   6.272  1.00  0.00    -0.275 OA
ENDBRANCH   9  11
ENDBRANCH   7   9
ENDBRANCH   6   7
BRANCH   6  14
HETATM   14  C11 UNL     1      28.593  67.943  11.400  1.00  0.00     0.033 C 
HETATM   15  C12 UNL     1      27.528  68.880  11.816  1.00  0.00     0.016 C 
HETATM   16  C13 UNL     1      29.174  67.330  12.695  1.00  0.00     0.016 C 
ENDBRANCH   6  14
ENDBRANCH   4   6
BRANCH   1  17
HETATM   17  C4  UNL     1      24.434  64.057  10.834  1.00  0.00     0.169 C 
BRANCH  17  18
HETATM   18  N2  UNL     1      25.074  62.788  11.074  1.00  0.00    -0.338 N 
HETATM   19  C3  UNL     1      26.034  62.381  10.097  1.00  0.00     0.316 C 
HETATM   20  N1  UNL     1      26.744  61.171  10.253  1.00  0.00    -0.343 N 
HETATM   21  O1  UNL     1      26.214  63.117   9.100  1.00  0.00    -0.247 OA
ATOM     22  H1  UNL     1      26.605  60.648  11.118  1.00  0.00     0.164 HD
ATOM     23  H2  UNL     1      24.856  62.217  11.891  1.00  0.00     0.164 HD
BRANCH  20  24
HETATM   24  C2  UNL     1      27.639  60.629   9.293  1.00  0.00     0.120 C 
HETATM   25  C1  UNL     1      27.002  59.604   8.388  1.00  0.00     0.026 C 
ENDBRANCH  20  24
ENDBRANCH  17  18
ENDBRANCH   1  17
TORSDOF 8
ENDMDL
MODEL 2
REMARK VINA RESULT: -6.640920008      2.302      2.754
REMARK  8 active torsions:
REMARK  status: ('A' for Active; 'I' for Inactive)
REMARK    1  A    between atoms: C2_2  and  N1_3 
REMARK       I    between atoms: N1_3  and  C3_5 
REMARK       I    between atoms: C3_5  and  N2_7 
REMARK    2  A    between atoms: N2_7  and  C4_9 
REMARK    3  A    between atoms: C4_9  and  C5_10 
REMARK       I    between atoms: N3_11  and  C6_13 
REMARK    4  A    between atoms: C6_13  and  C7_15 
REMARK    5  A    between atoms: C7_15  and  N4_16 
REMARK    6  A    between atoms: C7_15  and  C11_23 
REMARK    7  A    between atoms: N4_16  and  C8_18 
REMARK    8  A    between atoms: C8_18  and  C10_20 
ROOT
HETATM    1  C5  UNL     1      25.834  65.663   8.061  1.00  0.00     0.084 C 
HETATM    2  N3  UNL     1      26.843  66.145   8.840  1.00  0.00    -0.334 N 
ATOM      3  H3  UNL     1      26.886  67.164   8.812  1.00  0.00     0.168 HD
HETATM    4  C6  UNL     1      27.831  65.613   9.663  1.00  0.00     0.267 C 
HETATM    5  O2  UNL     1      27.936  64.370   9.837  1.00  0.00    -0.266 OA
ENDROOT
BRANCH   4   6
HETATM    6  C7  UNL     1      28.797  66.517  10.341  1.00  0.00     0.078 C 
BRANCH   6   7
HETATM    7  N4  UNL     1      29.699  67.097   9.452  1.00  0.00    -0.376 N 
ATOM      8  H4  UNL     1      29.761  68.114   9.505  1.00  0.00     0.160 HD
BRANCH   7   9
HETATM    9  C8  UNL     1      30.514  66.521   8.522  1.00  0.00     0.167 C 
HETATM   10  C9  UNL     1      31.997  66.907   8.753  1.00  0.00     0.042 C 
BRANCH   9  11
HETATM   11  C10 UNL     1      30.189  66.879   7.096  1.00  0.00     0.253 C 
HETATM   12  N5  UNL     1      29.056  66.410   6.408  1.00  0.00    -0.060 NA
HETATM   13  O3  UNL     1      30.993  67.658   6.466  1.00  0.00    -0.275 OA
ENDBRANCH   9  11
ENDBRANCH   7   9
ENDBRANCH   6   7
BRANCH   6  14
HETATM   14  C11 UNL     1      28.365  67.440  11.394  1.00  0.00     0.033 C 
HETATM   15  C12 UNL     1      27.167  67.173  12.217  1.00  0.00     0.016 C 
HETATM   16  C13 UNL     1      29.509  67.787  12.376  1.00  0.00     0.016 C 
ENDBRANCH   6  14
ENDBRANCH   4   6
BRANCH   1  17
HETATM   17  C4  UNL     1      24.611  64.935   8.346  1.00  0.00     0.169 C 
BRANCH  17  18
HETATM   18  N2  UNL     1      24.641  63.834   9.274  1.00  0.00    -0.338 N 
HETATM   19  C3  UNL     1      24.517  64.180  10.655  1.00  0.00     0.316 C 
HETATM   20  N1  UNL     1      24.500  63.174  11.646  1.00  0.00    -0.343 N 
HETATM   21  O1  UNL     1      24.438  65.393  10.958  1.00  0.00    -0.247 OA
ATOM     22  H1  UNL     1      24.500  62.203  11.335  1.00  0.00     0.164 HD
ATOM     23  H2  UNL     1      24.744  62.867   8.964  1.00  0.00     0.164 HD
BRANCH  20  24
HETATM   24  C2  UNL     1      24.484  63.419  13.045  1.00  0.00     0.120 C 
HETATM   25  C1  UNL     1      25.847  63.711  13.620  1.00  0.00     0.026 C 
ENDBRANCH  20  24
ENDBRANCH  17  18
ENDBRANCH   1  17
TORSDOF 8
ENDMDL
MODEL 3
REMARK VINA RESULT: -6.606289407      2.001      3.490
REMARK  8 active torsions:
REMARK  status: ('A' for Active; 'I' for Inactive)
REMARK    1  A    between atoms: C2_2  and  N1_3 
REMARK       I    between atoms: N1_3  and  C3_5 
REMARK       I    between atoms: C3_5  and  N2_7 
REMARK    2  A    between atoms: N2_7  and  C4_9 
REMARK    3  A    between atoms: C4_9  and  C5_10 
REMARK       I    between atoms: N3_11  and  C6_13 
REMARK    4  A    between atoms: C6_13  and  C7_15 
REMARK    5  A    between atoms: C7_15  and  N4_16 
REMARK    6  A    between atoms: C7_15  and  C11_23 
REMARK    7  A    between atoms: N4_16  and  C8_18 
REMARK    8  A    between atoms: C8_18  and  C10_20 
ROOT
HETATM    1  C5  UNL     1      25.222  66.976   9.585  1.00  0.00     0.084 C 
HETATM    2  N3  UNL     1      26.581  66.952   9.687  1.00  0.00    -0.334 N 
ATOM      3  H3  UNL     1      26.904  67.427  10.530  1.00  0.00     0.168 HD
HETATM    4  C6  UNL     1      27.644  66.448   8.943  1.00  0.00     0.267 C 
HETATM    5  O2  UNL     1      27.450  65.817   7.871  1.00  0.00    -0.266 OA
ENDROOT
BRANCH   4   6
HETATM    6  C7  UNL     1      29.040  66.669   9.404  1.00  0.00     0.078 C 
BRANCH   6   7
HETATM    7  N4  UNL     1      29.298  66.068  10.634  1.00  0.00    -0.376 N 
ATOM      8  H4  UNL     1      30.257  66.169  10.969  1.00  0.00     0.160 HD
BRANCH   7   9
HETATM    9  C8  UNL     1      28.473  65.365  11.461  1.00  0.00     0.167 C 
HETATM   10  C9  UNL     1      28.892  65.524  12.945  1.00  0.00     0.042 C 
BRANCH   9  11
HETATM   11  C10 UNL     1      28.415  63.887  11.183  1.00  0.00     0.253 C 
HETATM   12  N5  UNL     1      27.683  62.971  11.958  1.00  0.00    -0.060 NA
HETATM   13  O3  UNL     1      29.074  63.430  10.179  1.00  0.00    -0.275 OA
ENDBRANCH   9  11
ENDBRANCH   7   9
ENDBRANCH   6   7
BRANCH   6  14
HETATM   14  C11 UNL     1      30.171  66.574   8.478  1.00  0.00     0.033 C 
HETATM   15  C12 UNL     1      30.255  67.416   7.265  1.00  0.00     0.016 C 
HETATM   16  C13 UNL     1      31.534  66.699   9.199  1.00  0.00     0.016 C 
ENDBRANCH   6  14
ENDBRANCH   4   6
BRANCH   1  17
HETATM   17  C4  UNL     1      24.199  65.947   9.607  1.00  0.00     0.169 C 
BRANCH  17  18
HETATM   18  N2  UNL     1      24.474  64.688  10.250  1.00  0.00    -0.338 N 
HETATM   19  C3  UNL     1      24.919  63.635   9.391  1.00  0.00     0.316 C 
HETATM   20  N1  UNL     1      25.249  62.369   9.924  1.00  0.00    -0.343 N 
HETATM   21  O1  UNL     1      24.993  63.864   8.162  1.00  0.00    -0.247 OA
ATOM     22  H1  UNL     1      25.234  62.264  10.938  1.00  0.00     0.164 HD
ATOM     23  H2  UNL     1      24.358  64.556  11.255  1.00  0.00     0.164 HD
BRANCH  20  24
HETATM   24  C2  UNL     1      25.601  61.234   9.147  1.00  0.00     0.120 C 
HETATM   25  C1  UNL     1      26.985  60.711   9.440  1.00  0.00     0.026 C 
ENDBRANCH  20  24
ENDBRANCH  17  18
ENDBRANCH   1  17
TORSDOF 8
ENDMDL
MODEL 4
REMARK VINA RESULT: -6.562668605      2.127      6.018
REMARK  8 active torsions:
REMARK  status: ('A' for Active; 'I' for Inactive)
REMARK    1  A    between atoms: C2_2  and  N1_3 
REMARK       I    between atoms: N1_3  and  C3_5 
REMARK       I    between atoms: C3_5  and  N2_7 
REMARK    2  A    between atoms: N2_7  and  C4_9 
REMARK    3  A    between atoms: C4_9  and  C5_10 
REMARK       I    between atoms: N3_11  and  C6_13 
REMARK    4  A    between atoms: C6_13  and  C7_15 
REMARK    5  A    between atoms: C7_15  and  N4_16 
REMARK    6  A    between atoms: C7_15  and  C11_23 
REMARK    7  A    between atoms: N4_16  and  C8_18 
REMARK    8  A    between atoms: C8_18  and  C10_20 
ROOT
HETATM    1  C5  UNL     1      26.410  66.584   8.644  1.00  0.00     0.084 C 
HETATM    2  N3  UNL     1      26.215  65.694   9.658  1.00  0.00    -0.334 N 
ATOM      3  H3  UNL     1      25.224  65.512   9.814  1.00  0.00     0.168 HD
HETATM    4  C6  UNL     1      27.015  64.969  10.537  1.00  0.00     0.267 C 
HETATM    5  O2  UNL     1      28.270  65.049  10.495  1.00  0.00    -0.266 OA
ENDROOT
BRANCH   4   6
HETATM    6  C7  UNL     1      26.384  64.094  11.560  1.00  0.00     0.078 C 
BRANCH   6   7
HETATM    7  N4  UNL     1      26.018  62.851  11.048  1.00  0.00    -0.376 N 
ATOM      8  H4  UNL     1      25.764  62.155  11.749  1.00  0.00     0.160 HD
BRANCH   7   9
HETATM    9  C8  UNL     1      25.945  62.418   9.757  1.00  0.00     0.167 C 
HETATM   10  C9  UNL     1      24.473  62.251   9.299  1.00  0.00     0.042 C 
BRANCH   9  11
HETATM   11  C10 UNL     1      26.631  61.103   9.497  1.00  0.00     0.253 C 
HETATM   12  N5  UNL     1      27.603  60.545  10.346  1.00  0.00    -0.060 NA
HETATM   13  O3  UNL     1      26.314  60.449   8.438  1.00  0.00    -0.275 OA
ENDBRANCH   9  11
ENDBRANCH   7   9
ENDBRANCH   6   7
BRANCH   6  14
HETATM   14  C11 UNL     1      26.916  64.011  12.923  1.00  0.00     0.033 C 
HETATM   15  C12 UNL     1      26.026  63.905  14.099  1.00  0.00     0.016 C 
HETATM   16  C13 UNL     1      27.981  62.900  13.072  1.00  0.00     0.016 C 
ENDBRANCH   6  14
ENDBRANCH   4   6
BRANCH   1  17
HETATM   17  C4  UNL     1      27.029  66.488   7.335  1.00  0.00     0.169 C 
BRANCH  17  18
HETATM   18  N2  UNL     1      28.136  67.350   7.009  1.00  0.00    -0.338 N 
HETATM   19  C3  UNL     1      29.437  66.810   7.247  1.00  0.00     0.316 C 
HETATM   20  N1  UNL     1      30.592  67.559   6.930  1.00  0.00    -0.343 N 
HETATM   21  O1  UNL     1      29.521  65.667   7.752  1.00  0.00    -0.247 OA
ATOM     22  H1  UNL     1      30.461  68.453   6.458  1.00  0.00     0.164 HD
ATOM     23  H2  UNL     1      27.999  68.289   6.631  1.00  0.00     0.164 HD
BRANCH  20  24
HETATM   24  C2  UNL     1      31.921  67.155   7.220  1.00  0.00     0.120 C 
HETATM   25  C1  UNL     1      32.173  66.929   8.690  1.00  0.00     0.026 C 
ENDBRANCH  20  24
ENDBRANCH  17  18
ENDBRANCH   1  17
TORSDOF 8
ENDMDL
MODEL 5
REMARK VINA RESULT: -6.551773206      2.273      3.430
REMARK  8 active torsions:
REMARK  status: ('A' for Active; 'I' for Inactive)
REMARK    1  A    between atoms: C2_2  and  N1_3 
REMARK       I    between atoms: N1_3  and  C3_5 
REMARK       I    between atoms: C3_5  and  N2_7 
REMARK    2  A    between atoms: N2_7  and  C4_9 
REMARK    3  A    between atoms: C4_9  and  C5_10 
REMARK       I    between atoms: N3_11  and  C6_13 
REMARK    4  A    between atoms: C6_13  and  C7_15 
REMARK    5  A    between atoms: C7_15  and  N4_16 
REMARK    6  A    between atoms: C7_15  and  C11_23 
REMARK    7  A    between atoms: N4_16  and  C8_18 
REMARK    8  A    between atoms: C8_18  and  C10_20 
ROOT
HETATM    1  C5  UNL     1      26.124  64.198   9.623  1.00  0.00     0.084 C 
HETATM    2  N3  UNL     1      27.212  64.950   9.954  1.00  0.00    -0.334 N 
ATOM      3  H3  UNL     1      26.981  65.942  10.007  1.00  0.00     0.168 HD
HETATM    4  C6  UNL     1      28.555  64.720  10.239  1.00  0.00     0.267 C 
HETATM    5  O2  UNL     1      29.032  63.555  10.236  1.00  0.00    -0.266 OA
ENDROOT
BRANCH   4   6
HETATM    6  C7  UNL     1      29.455  65.865  10.536  1.00  0.00     0.078 C 
BRANCH   6   7
HETATM    7  N4  UNL     1      29.785  66.594   9.396  1.00  0.00    -0.376 N 
ATOM      8  H4  UNL     1      29.290  67.480   9.294  1.00  0.00     0.160 HD
BRANCH   7   9
HETATM    9  C8  UNL     1      30.666  66.312   8.394  1.00  0.00     0.167 C 
HETATM   10  C9  UNL     1      32.058  66.932   8.673  1.00  0.00     0.042 C 
BRANCH   9  11
HETATM   11  C10 UNL     1      30.241  66.793   7.032  1.00  0.00     0.253 C 
HETATM   12  N5  UNL     1      29.043  66.410   6.403  1.00  0.00    -0.060 NA
HETATM   13  O3  UNL     1      31.017  67.600   6.402  1.00  0.00    -0.275 OA
ENDBRANCH   9  11
ENDBRANCH   7   9
ENDBRANCH   6   7
BRANCH   6  14
HETATM   14  C11 UNL     1      29.245  66.714  11.711  1.00  0.00     0.033 C 
HETATM   15  C12 UNL     1      28.370  67.904  11.663  1.00  0.00     0.016 C 
HETATM   16  C13 UNL     1      28.818  65.900  12.955  1.00  0.00     0.016 C 
ENDBRANCH   6  14
ENDBRANCH   4   6
BRANCH   1  17
HETATM   17  C4  UNL     1      25.365  63.177  10.320  1.00  0.00     0.169 C 
BRANCH  17  18
HETATM   18  N2  UNL     1      25.449  63.087  11.756  1.00  0.00    -0.338 N 
HETATM   19  C3  UNL     1      24.370  63.682  12.481  1.00  0.00     0.316 C 
HETATM   20  N1  UNL     1      24.337  63.620  13.891  1.00  0.00    -0.343 N 
HETATM   21  O1  UNL     1      23.471  64.265  11.833  1.00  0.00    -0.247 OA
ATOM     22  H1  UNL     1      25.060  63.075  14.359  1.00  0.00     0.164 HD
ATOM     23  H2  UNL     1      26.230  62.628  12.225  1.00  0.00     0.164 HD
BRANCH  20  24
HETATM   24  C2  UNL     1      23.367  64.265  14.705  1.00  0.00     0.120 C 
HETATM   25  C1  UNL     1      22.192  63.385  15.050  1.00  0.00     0.026 C 
ENDBRANCH  20  24
ENDBRANCH  17  18
ENDBRANCH   1  17
TORSDOF 8
ENDMDL
