MODEL 1
REMARK VINA RESULT: -6.542347482      0.000      0.000
REMARK  9 active torsions:
REMARK  status: ('A' for Active; 'I' for Inactive)
REMARK    1  A    between atoms: C2_2  and  C3_3 
REMARK    2  A    between atoms: C3_3  and  C4_4 
REMARK    3  A    between atoms: C5_8  and  C6_9 
REMARK    4  A    between atoms: C5_8  and  C9_12 
REMARK    5  A    between atoms: C6_9  and  C7_10 
REMARK       I    between atoms: C9_12  and  N2_14 
REMARK    6  A    between atoms: N2_14  and  C10_16 
REMARK    7  A    between atoms: C10_16  and  C11_17 
REMARK    8  A    between atoms: C10_16  and  C13_20 
REMARK    9  A    between atoms: C11_17  and  C12_18 
ROOT
HETATM    1  C4  UNL     1      30.689  65.618   9.018  1.00  0.00     0.236 A 
HETATM    2  N1  UNL     1      31.356  65.088  10.146  1.00  0.00    -0.048 N 
ATOM      3  H11 UNL     1      32.285  65.204  10.553  1.00  0.00     0.279 HD
ATOM      4  H12 UNL     1      31.730  64.173  10.396  1.00  0.00     0.279 HD
HETATM    5  C5  UNL     1      30.001  65.789  10.324  1.00  0.00     0.236 A 
ENDROOT
BRANCH   5   6
HETATM    6  C6  UNL     1      30.127  67.053  11.076  1.00  0.00     0.077 C 
BRANCH   6   7
HETATM    7  C7  UNL     1      28.814  67.656  11.394  1.00  0.00    -0.034 C 
HETATM    8  C8  UNL     1      28.671  68.321  12.561  1.00  0.00     0.007 C 
ENDBRANCH   6   7
ENDBRANCH   5   6
BRANCH   5   9
HETATM    9  C9  UNL     1      29.005  64.757  10.745  1.00  0.00     0.257 C 
HETATM   10  O1  UNL     1      29.151  64.137  11.847  1.00  0.00    -0.271 OA
HETATM   11  N2  UNL     1      27.863  64.387  10.001  1.00  0.00    -0.346 N 
ATOM     12  H2  UNL     1      27.694  64.852   9.108  1.00  0.00     0.163 HD
BRANCH  11  13
HETATM   13  C10 UNL     1      26.918  63.381  10.441  1.00  0.00     0.174 C 
BRANCH  13  14
HETATM   14  C11 UNL     1      27.440  61.989  10.329  1.00  0.00     0.045 C 
BRANCH  14  15
HETATM   15  C12 UNL     1      26.626  61.067   9.495  1.00  0.00     0.088 C 
HETATM   16  S1  UNL     1      27.533  59.726   8.729  1.00  0.00    -0.098 SA
ENDBRANCH  14  15
ENDBRANCH  13  14
BRANCH  13  17
HETATM   17  C13 UNL     1      25.632  63.624   9.789  1.00  0.00     0.254 C 
HETATM   18  N3  UNL     1      25.580  64.117   8.443  1.00  0.00    -0.060 NA
HETATM   19  O2  UNL     1      24.522  63.422  10.353  1.00  0.00    -0.275 OA
ENDBRANCH  13  17
ENDBRANCH  11  13
ENDBRANCH   5   9
BRANCH   1  20
HETATM   20  C3  UNL     1      31.217  66.812   8.316  1.00  0.00     0.062 C 
BRANCH  20  21
HETATM   21  C2  UNL     1      30.456  67.202   7.086  1.00  0.00    -0.035 C 
HETATM   22  C1  UNL     1      29.230  66.838   6.821  1.00  0.00     0.007 C 
ENDBRANCH  20  21
ENDBRANCH   1  20
TORSDOF 9
ENDMDL
MODEL 2
REMARK VINA RESULT: -6.452827872      1.969      2.528
REMARK  9 active torsions:
REMARK  status: ('A' for Active; 'I' for Inactive)
REMARK    1  A    between atoms: C2_2  and  C3_3 
REMARK    2  A    between atoms: C3_3  and  C4_4 
REMARK    3  A    between atoms: C5_8  and  C6_9 
REMARK    4  A    between atoms: C5_8  and  C9_12 
REMARK    5  A    between atoms: C6_9  and  C7_10 
REMARK       I    between atoms: C9_12  and  N2_14 
REMARK    6  A    between atoms: N2_14  and  C10_16 
REMARK    7  A    between atoms: C10_16  and  C11_17 
REMARK    8  A    between atoms: C10_16  and  C13_20 
REMARK    9  A    between atoms: C11_17  and  C12_18 
ROOT
HETATM    1  C4  UNL     1      30.550  65.519   8.988  1.00  0.00     0.236 A 
HETATM    2  N1  UNL     1      31.218  65.094  10.159  1.00  0.00    -0.048 N 
ATOM      3  H11 UNL     1      32.112  65.316  10.597  1.00  0.00     0.279 HD
ATOM      4  H12 UNL     1      31.671  64.229  10.454  1.00  0.00     0.279 HD
HETATM    5  C5  UNL     1      29.793  65.659  10.259  1.00  0.00     0.236 A 
ENDROOT
BRANCH   5   6
HETATM    6  C6  UNL     1      29.760  66.951  10.972  1.00  0.00     0.077 C 
BRANCH   6   7
HETATM    7  C7  UNL     1      28.498  67.690  10.748  1.00  0.00    -0.034 C 
HETATM    8  C8  UNL     1      28.004  68.449  11.749  1.00  0.00     0.007 C 
ENDBRANCH   6   7
ENDBRANCH   5   6
BRANCH   5   9
HETATM    9  C9  UNL     1      28.888  64.545  10.676  1.00  0.00     0.257 C 
HETATM   10  O1  UNL     1      28.985  63.401  10.127  1.00  0.00    -0.271 OA
HETATM   11  N2  UNL     1      27.888  64.646  11.669  1.00  0.00    -0.346 N 
ATOM     12  H2  UNL     1      27.766  65.541  12.143  1.00  0.00     0.163 HD
BRANCH  11  13
HETATM   13  C10 UNL     1      27.029  63.544  12.048  1.00  0.00     0.174 C 
BRANCH  13  14
HETATM   14  C11 UNL     1      25.578  63.839  11.879  1.00  0.00     0.045 C 
BRANCH  14  15
HETATM   15  C12 UNL     1      25.020  63.554  10.532  1.00  0.00     0.088 C 
HETATM   16  S1  UNL     1      25.629  62.061   9.752  1.00  0.00    -0.098 SA
ENDBRANCH  14  15
ENDBRANCH  13  14
BRANCH  13  17
HETATM   17  C13 UNL     1      27.424  63.071  13.374  1.00  0.00     0.254 C 
HETATM   18  N3  UNL     1      27.056  63.808  14.549  1.00  0.00    -0.060 NA
HETATM   19  O2  UNL     1      28.093  62.019  13.562  1.00  0.00    -0.275 OA
ENDBRANCH  13  17
ENDBRANCH  11  13
ENDBRANCH   5   9
BRANCH   1  20
HETATM   20  C3  UNL     1      30.985  66.738   8.266  1.00  0.00     0.062 C 
BRANCH  20  21
HETATM   21  C2  UNL     1      30.256  67.001   6.984  1.00  0.00    -0.035 C 
HETATM   22  C1  UNL     1      28.958  66.978   6.847  1.00  0.00     0.007 C 
ENDBRANCH  20  21
ENDBRANCH   1  20
TORSDOF 9
ENDMDL
MODEL 3
REMARK VINA RESULT: -6.414540128      1.852      2.606
REMARK  9 active torsions:
REMARK  status: ('A' for Active; 'I' for Inactive)
REMARK    1  A    between atoms: C2_2  and  C3_3 
REMARK    2  A    between atoms: C3_3  and  C4_4 
REMARK    3  A    between atoms: C5_8  and  C6_9 
REMARK    4  A    between atoms: C5_8  and  C9_12 
REMARK    5  A    between atoms: C6_9  and  C7_10 
REMARK       I    between atoms: C9_12  and  N2_14 
REMARK    6  A    between atoms: N2_14  and  C10_16 
REMARK    7  A    between atoms: C10_16  and  C11_17 
REMARK    8  A    between atoms: C10_16  and  C13_20 
REMARK    9  A    between atoms: C11_17  and  C12_18 
ROOT
HETATM    1  C4  UNL     1      30.811  65.974   9.941  1.00  0.00     0.236 A 
HETATM    2  N1  UNL     1      30.129  66.383  11.110  1.00  0.00    -0.048 N 
ATOM      3  H11 UNL     1      30.115  67.233  11.673  1.00  0.00     0.279 HD
ATOM      4  H12 UNL     1      30.180  66.132  12.097  1.00  0.00     0.279 HD
HETATM    5  C5  UNL     1      29.329  65.871   9.902  1.00  0.00     0.236 A 
ENDROOT
BRANCH   5   6
HETATM    6  C6  UNL     1      28.520  66.939   9.282  1.00  0.00     0.077 C 
BRANCH   6   7
HETATM    7  C7  UNL     1      27.906  66.515   8.005  1.00  0.00    -0.034 C 
HETATM    8  C8  UNL     1      26.561  66.423   7.931  1.00  0.00     0.007 C 
ENDBRANCH   6   7
ENDBRANCH   5   6
BRANCH   5   9
HETATM    9  C9  UNL     1      28.695  64.575  10.292  1.00  0.00     0.257 C 
HETATM   10  O1  UNL     1      29.311  63.477  10.102  1.00  0.00    -0.271 OA
HETATM   11  N2  UNL     1      27.416  64.446  10.878  1.00  0.00    -0.346 N 
ATOM     12  H2  UNL     1      26.876  65.294  11.054  1.00  0.00     0.163 HD
BRANCH  11  13
HETATM   13  C10 UNL     1      26.832  63.172  11.243  1.00  0.00     0.174 C 
BRANCH  13  14
HETATM   14  C11 UNL     1      25.539  62.895  10.556  1.00  0.00     0.045 C 
BRANCH  14  15
HETATM   15  C12 UNL     1      25.563  61.778   9.576  1.00  0.00     0.088 C 
HETATM   16  S1  UNL     1      27.076  60.820   9.545  1.00  0.00    -0.098 SA
ENDBRANCH  14  15
ENDBRANCH  13  14
BRANCH  13  17
HETATM   17  C13 UNL     1      26.804  63.066  12.701  1.00  0.00     0.254 C 
HETATM   18  N3  UNL     1      27.984  62.690  13.427  1.00  0.00    -0.060 NA
HETATM   19  O2  UNL     1      25.773  63.291  13.391  1.00  0.00    -0.275 OA
ENDBRANCH  13  17
ENDBRANCH  11  13
ENDBRANCH   5   9
BRANCH   1  20
HETATM   20  C3  UNL     1      31.490  66.965   9.073  1.00  0.00     0.062 C 
BRANCH  20  21
HETATM   21  C2  UNL     1      31.654  66.540   7.646  1.00  0.00    -0.035 C 
HETATM   22  C1  UNL     1      31.226  67.215   6.613  1.00  0.00     0.007 C 
ENDBRANCH  20  21
ENDBRANCH   1  20
TORSDOF 9
ENDMDL
MODEL 4
REMARK VINA RESULT: -6.400176198      2.268      2.634
REMARK  9 active torsions:
REMARK  status: ('A' for Active; 'I' for Inactive)
REMARK    1  A    between atoms: C2_2  and  C3_3 
REMARK    2  A    between atoms: C3_3  and  C4_4 
REMARK    3  A    between atoms: C5_8  and  C6_9 
REMARK    4  A    between atoms: C5_8  and  C9_12 
REMARK    5  A    between atoms: C6_9  and  C7_10 
REMARK       I    between atoms: C9_12  and  N2_14 
REMARK    6  A    between atoms: N2_14  and  C10_16 
REMARK    7  A    between atoms: C10_16  and  C11_17 
REMARK    8  A    between atoms: C10_16  and  C13_20 
REMARK    9  A    between atoms: C11_17  and  C12_18 
ROOT
HETATM    1  C4  UNL     1      30.371  65.581   9.160  1.00  0.00     0.236 A 
HETATM    2  N1  UNL     1      30.440  64.359   9.866  1.00  0.00    -0.048 N 
ATOM      3  H11 UNL     1      31.178  63.852  10.355  1.00  0.00     0.279 HD
ATOM      4  H12 UNL     1      30.400  63.374   9.605  1.00  0.00     0.279 HD
HETATM    5  C5  UNL     1      29.400  65.415  10.271  1.00  0.00     0.236 A 
ENDROOT
BRANCH   5   6
HETATM    6  C6  UNL     1      29.682  65.985  11.603  1.00  0.00     0.077 C 
BRANCH   6   7
HETATM    7  C7  UNL     1      28.993  67.275  11.824  1.00  0.00    -0.034 C 
HETATM    8  C8  UNL     1      29.462  68.107  12.778  1.00  0.00     0.007 C 
ENDBRANCH   6   7
ENDBRANCH   5   6
BRANCH   5   9
HETATM    9  C9  UNL     1      28.046  64.864   9.958  1.00  0.00     0.257 C 
HETATM   10  O1  UNL     1      27.428  65.240   8.911  1.00  0.00    -0.271 OA
HETATM   11  N2  UNL     1      27.354  63.922  10.752  1.00  0.00    -0.346 N 
ATOM     12  H2  UNL     1      27.802  63.586  11.605  1.00  0.00     0.163 HD
BRANCH  11  13
HETATM   13  C10 UNL     1      26.042  63.411  10.417  1.00  0.00     0.174 C 
BRANCH  13  14
HETATM   14  C11 UNL     1      25.072  63.483  11.547  1.00  0.00     0.045 C 
BRANCH  14  15
HETATM   15  C12 UNL     1      24.088  64.595  11.475  1.00  0.00     0.088 C 
HETATM   16  S1  UNL     1      24.068  65.498   9.928  1.00  0.00    -0.098 SA
ENDBRANCH  14  15
ENDBRANCH  13  14
BRANCH  13  17
HETATM   17  C13 UNL     1      26.191  62.093   9.802  1.00  0.00     0.254 C 
HETATM   18  N3  UNL     1      27.235  61.205  10.228  1.00  0.00    -0.060 NA
HETATM   19  O2  UNL     1      25.437  61.668   8.886  1.00  0.00    -0.275 OA
ENDBRANCH  13  17
ENDBRANCH  11  13
ENDBRANCH   5   9
BRANCH   1  20
HETATM   20  C3  UNL     1      31.448  66.592   9.284  1.00  0.00     0.062 C 
BRANCH  20  21
HETATM   21  C2  UNL     1      32.011  67.071   7.982  1.00  0.00    -0.035 C 
HETATM   22  C1  UNL     1      31.328  67.201   6.877  1.00  0.00     0.007 C 
ENDBRANCH  20  21
ENDBRANCH   1  20
TORSDOF 9
ENDMDL
MODEL 5
REMARK VINA RESULT: -6.343515130      2.033      2.437
REMARK  9 active torsions:
REMARK  status: ('A' for Active; 'I' for Inactive)
REMARK    1  A    between atoms: C2_2  and  C3_3 
REMARK    2  A    between atoms: C3_3  and  C4_4 
REMARK    3  A    between atoms: C5_8  and  C6_9 
REMARK    4  A    between atoms: C5_8  and  C9_12 
REMARK    5  A    between atoms: C6_9  and  C7_10 
REMARK       I    between atoms: C9_12  and  N2_14 
REMARK    6  A    between atoms: N2_14  and  C10_16 
REMARK    7  A    between atoms: C10_16  and  C11_17 
REMARK    8  A    between atoms: C10_16  and  C13_20 
REMARK    9  A    between atoms: C11_17  and  C12_18 
ROOT
HETATM    1  C4  UNL     1      30.760  65.586   9.183  1.00  0.00     0.236 A 
HETATM    2  N1  UNL     1      31.231  65.082  10.416  1.00  0.00    -0.048 N 
ATOM      3  H11 UNL     1      32.043  65.267  11.006  1.00  0.00     0.279 HD
ATOM      4  H12 UNL     1      31.629  64.196  10.726  1.00  0.00     0.279 HD
HETATM    5  C5  UNL     1      29.809  65.656  10.321  1.00  0.00     0.236 A 
ENDROOT
BRANCH   5   6
HETATM    6  C6  UNL     1      29.662  66.901  11.099  1.00  0.00     0.077 C 
BRANCH   6   7
HETATM    7  C7  UNL     1      28.470  67.681  10.701  1.00  0.00    -0.034 C 
HETATM    8  C8  UNL     1      27.880  68.479  11.616  1.00  0.00     0.007 C 
ENDBRANCH   6   7
ENDBRANCH   5   6
BRANCH   5   9
HETATM    9  C9  UNL     1      28.848  64.527  10.516  1.00  0.00     0.257 C 
HETATM   10  O1  UNL     1      29.080  63.390   9.994  1.00  0.00    -0.271 OA
HETATM   11  N2  UNL     1      27.650  64.607  11.261  1.00  0.00    -0.346 N 
ATOM     12  H2  UNL     1      27.413  65.495  11.703  1.00  0.00     0.163 HD
BRANCH  11  13
HETATM   13  C10 UNL     1      26.742  63.491  11.429  1.00  0.00     0.174 C 
BRANCH  13  14
HETATM   14  C11 UNL     1      25.418  63.703  10.778  1.00  0.00     0.045 C 
BRANCH  14  15
HETATM   15  C12 UNL     1      25.388  63.489   9.307  1.00  0.00     0.088 C 
HETATM   16  S1  UNL     1      25.239  64.978   8.322  1.00  0.00    -0.098 SA
ENDBRANCH  14  15
ENDBRANCH  13  14
BRANCH  13  17
HETATM   17  C13 UNL     1      26.695  63.130  12.846  1.00  0.00     0.254 C 
HETATM   18  N3  UNL     1      27.867  62.639  13.511  1.00  0.00    -0.060 NA
HETATM   19  O2  UNL     1      25.653  63.225  13.549  1.00  0.00    -0.275 OA
ENDBRANCH  13  17
ENDBRANCH  11  13
ENDBRANCH   5   9
BRANCH   1  20
HETATM   20  C3  UNL     1      31.307  66.843   8.618  1.00  0.00     0.062 C 
BRANCH  20  21
HETATM   21  C2  UNL     1      30.829  67.169   7.236  1.00  0.00    -0.035 C 
HETATM   22  C1  UNL     1      29.672  66.818   6.745  1.00  0.00     0.007 C 
ENDBRANCH  20  21
ENDBRANCH   1  20
TORSDOF 9
ENDMDL
