MODEL 1
REMARK VINA RESULT: -6.833486326      0.000      0.000
REMARK  9 active torsions:
REMARK  status: ('A' for Active; 'I' for Inactive)
REMARK    1  A    between atoms: N1_2  and  C2_5 
REMARK    2  A    between atoms: C2_5  and  C3_6 
REMARK    3  A    between atoms: C3_6  and  N2_7 
REMARK    4  A    between atoms: N2_7  and  C4_10 
REMARK    5  A    between atoms: C4_10  and  C5_11 
REMARK    6  A    between atoms: C4_10  and  C10_22 
REMARK    7  A    between atoms: C5_11  and  C6_12 
REMARK    8  A    between atoms: C6_12  and  C7_13 
REMARK    9  A    between atoms: C7_13  and  N3_15 
REMARK       I    between atoms: N3_15  and  C9_17 
REMARK       I    between atoms: C10_22  and  N6_24 
ROOT
HETATM    1  C4  UNL     1      29.208  65.019  10.595  1.00  0.00     0.277 C 
ENDROOT
BRANCH   1   2
HETATM    2  N2  UNL     1      28.949  63.605  10.391  1.00  0.00    -0.061 N 
ATOM      3  H22 UNL     1      29.700  63.036  10.782  1.00  0.00     0.278 HD
ATOM      4  H21 UNL     1      29.047  63.355   9.407  1.00  0.00     0.278 HD
BRANCH   2   5
HETATM    5  C3  UNL     1      27.670  63.192  10.902  1.00  0.00     0.260 C 
BRANCH   5   6
HETATM    6  C2  UNL     1      26.969  62.208  10.006  1.00  0.00     0.259 C 
BRANCH   6   7
HETATM    7  N1  UNL     1      27.353  60.842  10.199  1.00  0.00    -0.077 N 
HETATM    8  C1  UNL     1      27.366  60.076   8.970  1.00  0.00     0.267 C 
ATOM      9  H12 UNL     1      26.763  60.395  10.900  1.00  0.00     0.276 HD
ATOM     10  H11 UNL     1      28.253  60.782  10.675  1.00  0.00     0.276 HD
ENDBRANCH   6   7
ENDBRANCH   5   6
ENDBRANCH   2   5
ENDBRANCH   1   2
BRANCH   1  11
HETATM   11  C5  UNL     1      28.185  65.457  11.648  1.00  0.00     0.045 C 
BRANCH  11  12
HETATM   12  C6  UNL     1      28.938  66.193  12.705  1.00  0.00     0.027 C 
BRANCH  12  13
HETATM   13  C7  UNL     1      28.787  65.670  14.089  1.00  0.00     0.080 C 
HETATM   14  C8  UNL     1      29.515  66.497  15.122  1.00  0.00     0.032 C 
BRANCH  13  15
HETATM   15  N3  UNL     1      27.451  65.472  14.548  1.00  0.00    -0.361 N 
HETATM   16  C9  UNL     1      27.097  64.166  14.984  1.00  0.00     0.182 C 
HETATM   17  N4  UNL     1      26.672  64.038  16.189  1.00  0.00    -0.374 N 
HETATM   18  N5  UNL     1      27.189  63.025  14.166  1.00  0.00    -0.064 NA
ATOM     19  H42 UNL     1      26.606  64.866  16.782  1.00  0.00     0.158 HD
ATOM     20  H41 UNL     1      26.418  63.100  16.502  1.00  0.00     0.158 HD
ATOM     21  H3  UNL     1      26.777  66.236  14.563  1.00  0.00     0.162 HD
ENDBRANCH  13  15
ENDBRANCH  12  13
ENDBRANCH  11  12
ENDBRANCH   1  11
BRANCH   1  22
HETATM   22  C10 UNL     1      29.070  65.788   9.359  1.00  0.00     0.250 C 
HETATM   23  O1  UNL     1      27.985  65.746   8.712  1.00  0.00    -0.271 OA
HETATM   24  N6  UNL     1      30.101  66.589   8.837  1.00  0.00    -0.350 N 
HETATM   25  C11 UNL     1      31.459  66.841   9.326  1.00  0.00     0.126 C 
HETATM   26  C14 UNL     1      30.054  67.403   7.609  1.00  0.00     0.126 C 
HETATM   27  C12 UNL     1      32.303  66.784   8.044  1.00  0.00     0.021 C 
HETATM   28  C13 UNL     1      31.342  66.972   6.896  1.00  0.00     0.021 C 
ENDBRANCH   1  22
TORSDOF 9
ENDMDL
MODEL 2
REMARK VINA RESULT: -6.786842558      2.359      5.764
REMARK  9 active torsions:
REMARK  status: ('A' for Active; 'I' for Inactive)
REMARK    1  A    between atoms: N1_2  and  C2_5 
REMARK    2  A    between atoms: C2_5  and  C3_6 
REMARK    3  A    between atoms: C3_6  and  N2_7 
REMARK    4  A    between atoms: N2_7  and  C4_10 
REMARK    5  A    between atoms: C4_10  and  C5_11 
REMARK    6  A    between atoms: C4_10  and  C10_22 
REMARK    7  A    between atoms: C5_11  and  C6_12 
REMARK    8  A    between atoms: C6_12  and  C7_13 
REMARK    9  A    between atoms: C7_13  and  N3_15 
REMARK       I    between atoms: N3_15  and  C9_17 
REMARK       I    between atoms: C10_22  and  N6_24 
ROOT
HETATM    1  C4  UNL     1      28.103  62.961  10.826  1.00  0.00     0.277 C 
ENDROOT
BRANCH   1   2
HETATM    2  N2  UNL     1      27.763  62.619  12.195  1.00  0.00    -0.061 N 
ATOM      3  H22 UNL     1      28.378  61.888  12.552  1.00  0.00     0.278 HD
ATOM      4  H21 UNL     1      26.873  62.123  12.237  1.00  0.00     0.278 HD
BRANCH   2   5
HETATM    5  C3  UNL     1      27.759  63.760  13.070  1.00  0.00     0.260 C 
BRANCH   5   6
HETATM    6  C2  UNL     1      26.518  63.846  13.917  1.00  0.00     0.259 C 
BRANCH   6   7
HETATM    7  N1  UNL     1      25.459  62.969  13.518  1.00  0.00    -0.077 N 
HETATM    8  C1  UNL     1      24.346  63.663  12.905  1.00  0.00     0.267 C 
ATOM      9  H12 UNL     1      25.143  62.400  14.303  1.00  0.00     0.276 HD
ATOM     10  H11 UNL     1      25.809  62.231  12.907  1.00  0.00     0.276 HD
ENDBRANCH   6   7
ENDBRANCH   5   6
ENDBRANCH   2   5
ENDBRANCH   1   2
BRANCH   1  11
HETATM   11  C5  UNL     1      28.688  64.375  10.908  1.00  0.00     0.045 C 
BRANCH  11  12
HETATM   12  C6  UNL     1      29.807  64.440   9.922  1.00  0.00     0.027 C 
BRANCH  12  13
HETATM   13  C7  UNL     1      29.985  65.745   9.233  1.00  0.00     0.080 C 
HETATM   14  C8  UNL     1      30.491  66.837  10.144  1.00  0.00     0.032 C 
BRANCH  13  15
HETATM   15  N3  UNL     1      30.802  65.736   8.063  1.00  0.00    -0.361 N 
HETATM   16  C9  UNL     1      30.389  66.546   6.971  1.00  0.00     0.182 C 
HETATM   17  N4  UNL     1      31.208  67.444   6.555  1.00  0.00    -0.374 N 
HETATM   18  N5  UNL     1      29.142  66.410   6.333  1.00  0.00    -0.064 NA
ATOM     19  H42 UNL     1      32.112  67.542   7.018  1.00  0.00     0.158 HD
ATOM     20  H41 UNL     1      30.911  68.025   5.771  1.00  0.00     0.158 HD
ATOM     21  H3  UNL     1      31.649  65.170   8.013  1.00  0.00     0.162 HD
ENDBRANCH  13  15
ENDBRANCH  12  13
ENDBRANCH  11  12
ENDBRANCH   1  11
BRANCH   1  22
HETATM   22  C10 UNL     1      26.940  62.911   9.941  1.00  0.00     0.250 C 
HETATM   23  O1  UNL     1      26.636  61.828   9.364  1.00  0.00    -0.271 OA
HETATM   24  N6  UNL     1      26.121  64.028   9.689  1.00  0.00    -0.350 N 
HETATM   25  C11 UNL     1      26.203  65.406  10.180  1.00  0.00     0.126 C 
HETATM   26  C14 UNL     1      24.929  64.073   8.824  1.00  0.00     0.126 C 
HETATM   27  C12 UNL     1      25.898  66.237   8.925  1.00  0.00     0.021 C 
HETATM   28  C13 UNL     1      25.219  65.304   7.954  1.00  0.00     0.021 C 
ENDBRANCH   1  22
TORSDOF 9
ENDMDL
MODEL 3
REMARK VINA RESULT: -6.736583494      2.126      6.416
REMARK  9 active torsions:
REMARK  status: ('A' for Active; 'I' for Inactive)
REMARK    1  A    between atoms: N1_2  and  C2_5 
REMARK    2  A    between atoms: C2_5  and  C3_6 
REMARK    3  A    between atoms: C3_6  and  N2_7 
REMARK    4  A    between atoms: N2_7  and  C4_10 
REMARK    5  A    between atoms: C4_10  and  C5_11 
REMARK    6  A    between atoms: C4_10  and  C10_22 
REMARK    7  A    between atoms: C5_11  and  C6_12 
REMARK    8  A    between atoms: C6_12  and  C7_13 
REMARK    9  A    between atoms: C7_13  and  N3_15 
REMARK       I    between atoms: N3_15  and  C9_17 
REMARK       I    between atoms: C10_22  and  N6_24 
ROOT
HETATM    1  C4  UNL     1      28.138  62.781  11.065  1.00  0.00     0.277 C 
ENDROOT
BRANCH   1   2
HETATM    2  N2  UNL     1      27.712  62.711  12.451  1.00  0.00    -0.061 N 
ATOM      3  H22 UNL     1      28.153  61.924  12.929  1.00  0.00     0.278 HD
ATOM      4  H21 UNL     1      26.737  62.420  12.519  1.00  0.00     0.278 HD
BRANCH   2   5
HETATM    5  C3  UNL     1      27.935  63.938  13.167  1.00  0.00     0.260 C 
BRANCH   5   6
HETATM    6  C2  UNL     1      26.834  64.256  14.142  1.00  0.00     0.259 C 
BRANCH   6   7
HETATM    7  N1  UNL     1      27.097  63.861  15.493  1.00  0.00    -0.077 N 
HETATM    8  C1  UNL     1      26.552  64.781  16.470  1.00  0.00     0.267 C 
ATOM      9  H12 UNL     1      28.096  63.722  15.643  1.00  0.00     0.276 HD
ATOM     10  H11 UNL     1      26.769  62.911  15.664  1.00  0.00     0.276 HD
ENDBRANCH   6   7
ENDBRANCH   5   6
ENDBRANCH   2   5
ENDBRANCH   1   2
BRANCH   1  11
HETATM   11  C5  UNL     1      28.344  64.275  10.794  1.00  0.00     0.045 C 
BRANCH  11  12
HETATM   12  C6  UNL     1      29.601  64.403   9.999  1.00  0.00     0.027 C 
BRANCH  12  13
HETATM   13  C7  UNL     1      29.811  65.714   9.329  1.00  0.00     0.080 C 
HETATM   14  C8  UNL     1      30.229  66.810  10.280  1.00  0.00     0.032 C 
BRANCH  13  15
HETATM   15  N3  UNL     1      30.714  65.722   8.225  1.00  0.00    -0.361 N 
HETATM   16  C9  UNL     1      30.370  66.528   7.106  1.00  0.00     0.182 C 
HETATM   17  N4  UNL     1      31.203  67.442   6.755  1.00  0.00    -0.374 N 
HETATM   18  N5  UNL     1      29.178  66.373   6.375  1.00  0.00    -0.064 NA
ATOM     19  H42 UNL     1      32.068  67.554   7.285  1.00  0.00     0.158 HD
ATOM     20  H41 UNL     1      30.957  68.020   5.952  1.00  0.00     0.158 HD
ATOM     21  H3  UNL     1      31.572  65.171   8.238  1.00  0.00     0.162 HD
ENDBRANCH  13  15
ENDBRANCH  12  13
ENDBRANCH  11  12
ENDBRANCH   1  11
BRANCH   1  22
HETATM   22  C10 UNL     1      27.152  62.201  10.156  1.00  0.00     0.250 C 
HETATM   23  O1  UNL     1      27.482  61.241   9.402  1.00  0.00    -0.271 OA
HETATM   24  N6  UNL     1      25.826  62.662  10.070  1.00  0.00    -0.350 N 
HETATM   25  C11 UNL     1      25.139  63.744  10.781  1.00  0.00     0.126 C 
HETATM   26  C14 UNL     1      24.762  62.139   9.193  1.00  0.00     0.126 C 
HETATM   27  C12 UNL     1      24.321  64.420   9.672  1.00  0.00     0.021 C 
HETATM   28  C13 UNL     1      24.229  63.423   8.544  1.00  0.00     0.021 C 
ENDBRANCH   1  22
TORSDOF 9
ENDMDL
MODEL 4
REMARK VINA RESULT: -6.709342826      2.734      6.311
REMARK  9 active torsions:
REMARK  status: ('A' for Active; 'I' for Inactive)
REMARK    1  A    between atoms: N1_2  and  C2_5 
REMARK    2  A    between atoms: C2_5  and  C3_6 
REMARK    3  A    between atoms: C3_6  and  N2_7 
REMARK    4  A    between atoms: N2_7  and  C4_10 
REMARK    5  A    between atoms: C4_10  and  C5_11 
REMARK    6  A    between atoms: C4_10  and  C10_22 
REMARK    7  A    between atoms: C5_11  and  C6_12 
REMARK    8  A    between atoms: C6_12  and  C7_13 
REMARK    9  A    between atoms: C7_13  and  N3_15 
REMARK       I    between atoms: N3_15  and  C9_17 
REMARK       I    between atoms: C10_22  and  N6_24 
ROOT
HETATM    1  C4  UNL     1      27.766  65.448  10.393  1.00  0.00     0.277 C 
ENDROOT
BRANCH   1   2
HETATM    2  N2  UNL     1      27.433  66.041   9.111  1.00  0.00    -0.061 N 
ATOM      3  H22 UNL     1      27.826  65.496   8.344  1.00  0.00     0.278 HD
ATOM      4  H21 UNL     1      27.939  66.915   8.971  1.00  0.00     0.278 HD
BRANCH   2   5
HETATM    5  C3  UNL     1      26.018  66.231   8.935  1.00  0.00     0.260 C 
BRANCH   5   6
HETATM    6  C2  UNL     1      25.419  65.282   7.933  1.00  0.00     0.259 C 
BRANCH   6   7
HETATM    7  N1  UNL     1      24.042  64.960   8.161  1.00  0.00    -0.077 N 
HETATM    8  C1  UNL     1      23.410  65.827   9.134  1.00  0.00     0.267 C 
ATOM      9  H12 UNL     1      23.936  63.981   8.423  1.00  0.00     0.276 HD
ATOM     10  H11 UNL     1      23.520  64.956   7.284  1.00  0.00     0.276 HD
ENDBRANCH   6   7
ENDBRANCH   5   6
ENDBRANCH   2   5
ENDBRANCH   1   2
BRANCH   1  11
HETATM   11  C5  UNL     1      28.932  66.288  10.923  1.00  0.00     0.045 C 
BRANCH  11  12
HETATM   12  C6  UNL     1      29.440  67.098   9.777  1.00  0.00     0.027 C 
BRANCH  12  13
HETATM   13  C7  UNL     1      30.839  66.817   9.357  1.00  0.00     0.080 C 
HETATM   14  C8  UNL     1      31.695  66.261  10.470  1.00  0.00     0.032 C 
BRANCH  13  15
HETATM   15  N3  UNL     1      31.001  65.976   8.217  1.00  0.00    -0.361 N 
HETATM   16  C9  UNL     1      31.537  66.566   7.041  1.00  0.00     0.182 C 
HETATM   17  N4  UNL     1      32.616  66.059   6.561  1.00  0.00    -0.374 N 
HETATM   18  N5  UNL     1      30.947  67.662   6.385  1.00  0.00    -0.064 NA
ATOM     19  H42 UNL     1      33.043  65.264   7.037  1.00  0.00     0.158 HD
ATOM     20  H41 UNL     1      33.001  66.482   5.717  1.00  0.00     0.158 HD
ATOM     21  H3  UNL     1      30.741  64.990   8.245  1.00  0.00     0.162 HD
ENDBRANCH  13  15
ENDBRANCH  12  13
ENDBRANCH  11  12
ENDBRANCH   1  11
BRANCH   1  22
HETATM   22  C10 UNL     1      28.133  64.038  10.269  1.00  0.00     0.250 C 
HETATM   23  O1  UNL     1      29.327  63.722  10.001  1.00  0.00    -0.271 OA
HETATM   24  N6  UNL     1      27.209  62.989  10.434  1.00  0.00    -0.350 N 
HETATM   25  C11 UNL     1      25.775  63.014  10.731  1.00  0.00     0.126 C 
HETATM   26  C14 UNL     1      27.485  61.545  10.336  1.00  0.00     0.126 C 
HETATM   27  C12 UNL     1      25.210  61.940   9.791  1.00  0.00     0.021 C 
HETATM   28  C13 UNL     1      26.377  61.077   9.382  1.00  0.00     0.021 C 
ENDBRANCH   1  22
TORSDOF 9
ENDMDL
MODEL 5
REMARK VINA RESULT: -6.663369478      2.778      5.505
REMARK  9 active torsions:
REMARK  status: ('A' for Active; 'I' for Inactive)
REMARK    1  A    between atoms: N1_2  and  C2_5 
REMARK    2  A    between atoms: C2_5  and  C3_6 
REMARK    3  A    between atoms: C3_6  and  N2_7 
REMARK    4  A    between atoms: N2_7  and  C4_10 
REMARK    5  A    between atoms: C4_10  and  C5_11 
REMARK    6  A    between atoms: C4_10  and  C10_22 
REMARK    7  A    between atoms: C5_11  and  C6_12 
REMARK    8  A    between atoms: C6_12  and  C7_13 
REMARK    9  A    between atoms: C7_13  and  N3_15 
REMARK       I    between atoms: N3_15  and  C9_17 
REMARK       I    between atoms: C10_22  and  N6_24 
ROOT
HETATM    1  C4  UNL     1      28.357  66.619  10.303  1.00  0.00     0.277 C 
ENDROOT
BRANCH   1   2
HETATM    2  N2  UNL     1      28.935  67.297   9.158  1.00  0.00    -0.061 N 
ATOM      3  H22 UNL     1      29.420  68.148   9.444  1.00  0.00     0.278 HD
ATOM      4  H21 UNL     1      28.208  67.709   8.573  1.00  0.00     0.278 HD
BRANCH   2   5
HETATM    5  C3  UNL     1      29.799  66.448   8.383  1.00  0.00     0.260 C 
BRANCH   5   6
HETATM    6  C2  UNL     1      30.032  66.962   6.989  1.00  0.00     0.259 C 
BRANCH   6   7
HETATM    7  N1  UNL     1      31.346  67.480   6.752  1.00  0.00    -0.077 N 
HETATM    8  C1  UNL     1      32.316  67.037   7.732  1.00  0.00     0.267 C 
ATOM      9  H12 UNL     1      31.330  68.497   6.691  1.00  0.00     0.276 HD
ATOM     10  H11 UNL     1      31.658  67.260   5.806  1.00  0.00     0.276 HD
ENDBRANCH   6   7
ENDBRANCH   5   6
ENDBRANCH   2   5
ENDBRANCH   1   2
BRANCH   1  11
HETATM   11  C5  UNL     1      28.636  65.132  10.060  1.00  0.00     0.045 C 
BRANCH  11  12
HETATM   12  C6  UNL     1      28.351  64.421  11.342  1.00  0.00     0.027 C 
BRANCH  12  13
HETATM   13  C7  UNL     1      27.294  63.377  11.281  1.00  0.00     0.080 C 
HETATM   14  C8  UNL     1      26.078  63.709  12.112  1.00  0.00     0.032 C 
BRANCH  13  15
HETATM   15  N3  UNL     1      26.847  63.005   9.978  1.00  0.00    -0.361 N 
HETATM   16  C9  UNL     1      26.453  61.654   9.784  1.00  0.00     0.182 C 
HETATM   17  N4  UNL     1      25.254  61.438   9.376  1.00  0.00    -0.374 N 
HETATM   18  N5  UNL     1      27.305  60.558  10.012  1.00  0.00    -0.064 NA
ATOM     19  H42 UNL     1      24.636  62.233   9.211  1.00  0.00     0.158 HD
ATOM     20  H41 UNL     1      24.972  60.467   9.237  1.00  0.00     0.158 HD
ATOM     21  H3  UNL     1      26.812  63.682   9.217  1.00  0.00     0.162 HD
ENDBRANCH  13  15
ENDBRANCH  12  13
ENDBRANCH  11  12
ENDBRANCH   1  11
BRANCH   1  22
HETATM   22  C10 UNL     1      26.925  66.882  10.434  1.00  0.00     0.250 C 
HETATM   23  O1  UNL     1      26.471  67.362  11.512  1.00  0.00    -0.271 OA
HETATM   24  N6  UNL     1      26.002  66.625   9.404  1.00  0.00    -0.350 N 
HETATM   25  C11 UNL     1      26.194  66.069   8.062  1.00  0.00     0.126 C 
HETATM   26  C14 UNL     1      24.548  66.863   9.439  1.00  0.00     0.126 C 
HETATM   27  C12 UNL     1      25.009  65.104   7.916  1.00  0.00     0.021 C 
HETATM   28  C13 UNL     1      23.996  65.516   8.955  1.00  0.00     0.021 C 
ENDBRANCH   1  22
TORSDOF 9
ENDMDL
