MODEL 1
REMARK VINA RESULT: -6.540579456      0.000      0.000
REMARK  3 active torsions:
REMARK  status: ('A' for Active; 'I' for Inactive)
REMARK       I    between atoms: N2_3  and  C2_5 
REMARK       I    between atoms: C2_5  and  N4_9 
REMARK    1  A    between atoms: N4_9  and  N5_11 
REMARK    2  A    between atoms: C5_16  and  N7_17 
REMARK    3  A    between atoms: N7_17  and  N8_19 
ROOT
HETATM    1  N1  UNL     1      24.794  62.555  13.227  1.00  0.00    -0.171 NA
HETATM    2  C1  UNL     1      25.498  63.243  12.608  1.00  0.00     0.196 C 
HETATM    3  N2  UNL     1      26.356  64.081  11.874  1.00  0.00    -0.125 N 
ATOM      4  H2  UNL     1      26.009  64.998  11.594  1.00  0.00     0.197 HD
HETATM    5  C2  UNL     1      27.666  63.727  11.504  1.00  0.00     0.700 C 
HETATM    6  N3  UNL     1      27.895  62.639  10.885  1.00  0.00    -0.233 N 
ATOM      7  H31 UNL     1      28.845  62.381  10.617  1.00  0.00     0.174 HD
ATOM      8  H32 UNL     1      27.113  62.025  10.660  1.00  0.00     0.174 HD
HETATM    9  N4  UNL     1      28.750  64.577  11.816  1.00  0.00    -0.115 N 
ATOM     10  H4  UNL     1      29.097  64.584  12.775  1.00  0.00     0.207 HD
ENDROOT
BRANCH   9  11
HETATM   11  N5  UNL     1      29.372  65.410  10.879  1.00  0.00    -0.204 N 
HETATM   12  C3  UNL     1      28.593  66.376  10.129  1.00  0.00     0.191 C 
HETATM   13  C4  UNL     1      28.821  66.036   8.662  1.00  0.00     0.161 C 
HETATM   14  N6  UNL     1      30.244  65.947   8.416  1.00  0.00    -0.222 N 
HETATM   15  C5  UNL     1      31.193  65.630   9.425  1.00  0.00     0.708 C 
ATOM     16  H6  UNL     1      30.584  66.123   7.471  1.00  0.00     0.177 HD
HETATM   17  N9  UNL     1      30.741  65.374  10.606  1.00  0.00    -0.114 N 
ATOM     18  H9  UNL     1      31.395  65.142  11.353  1.00  0.00     0.207 HD
BRANCH  15  19
HETATM   19  N7  UNL     1      32.560  65.614   9.076  1.00  0.00    -0.138 N 
ATOM     20  H7  UNL     1      33.221  65.237   9.755  1.00  0.00     0.205 HD
BRANCH  19  21
HETATM   21  N8  UNL     1      33.066  66.080   7.863  1.00  0.00    -0.331 N 
ATOM     22  H82 UNL     1      32.749  66.999   7.555  1.00  0.00     0.177 HD
ATOM     23  H81 UNL     1      33.723  65.563   7.278  1.00  0.00     0.177 HD
ENDBRANCH  19  21
ENDBRANCH  15  19
ENDBRANCH   9  11
TORSDOF 3
ENDMDL
MODEL 2
REMARK VINA RESULT: -6.249535550      2.164      2.781
REMARK  3 active torsions:
REMARK  status: ('A' for Active; 'I' for Inactive)
REMARK       I    between atoms: N2_3  and  C2_5 
REMARK       I    between atoms: C2_5  and  N4_9 
REMARK    1  A    between atoms: N4_9  and  N5_11 
REMARK    2  A    between atoms: C5_16  and  N7_17 
REMARK    3  A    between atoms: N7_17  and  N8_19 
ROOT
HETATM    1  N1  UNL     1      23.552  64.134  11.123  1.00  0.00    -0.171 NA
HETATM    2  C1  UNL     1      24.625  64.382  10.749  1.00  0.00     0.196 C 
HETATM    3  N2  UNL     1      25.918  64.676  10.283  1.00  0.00    -0.125 N 
ATOM      4  H2  UNL     1      26.654  63.988  10.440  1.00  0.00     0.197 HD
HETATM    5  C2  UNL     1      26.255  65.865   9.611  1.00  0.00     0.700 C 
HETATM    6  N3  UNL     1      25.978  66.999  10.118  1.00  0.00    -0.233 N 
ATOM      7  H31 UNL     1      26.222  67.862   9.631  1.00  0.00     0.174 HD
ATOM      8  H32 UNL     1      25.507  67.034  11.022  1.00  0.00     0.174 HD
HETATM    9  N4  UNL     1      26.908  65.817   8.359  1.00  0.00    -0.115 N 
ATOM     10  H4  UNL     1      26.353  65.590   7.534  1.00  0.00     0.207 HD
ENDROOT
BRANCH   9  11
HETATM   11  N5  UNL     1      28.275  66.063   8.191  1.00  0.00    -0.204 N 
HETATM   12  C3  UNL     1      28.815  66.314   6.869  1.00  0.00     0.191 C 
HETATM   13  C4  UNL     1      29.882  65.248   6.654  1.00  0.00     0.161 C 
HETATM   14  N6  UNL     1      30.783  65.251   7.786  1.00  0.00    -0.222 N 
HETATM   15  C5  UNL     1      30.409  65.699   9.082  1.00  0.00     0.708 C 
ATOM     16  H6  UNL     1      31.736  64.914   7.648  1.00  0.00     0.177 HD
HETATM   17  N9  UNL     1      29.189  66.085   9.247  1.00  0.00    -0.114 N 
ATOM     18  H9  UNL     1      28.887  66.412  10.165  1.00  0.00     0.207 HD
BRANCH  15  19
HETATM   19  N7  UNL     1      31.387  65.694  10.099  1.00  0.00    -0.138 N 
ATOM     20  H7  UNL     1      31.238  66.301  10.906  1.00  0.00     0.205 HD
BRANCH  19  21
HETATM   21  N8  UNL     1      32.542  64.914  10.075  1.00  0.00    -0.331 N 
ATOM     22  H82 UNL     1      32.597  64.196   9.352  1.00  0.00     0.177 HD
ATOM     23  H81 UNL     1      33.320  65.019  10.725  1.00  0.00     0.177 HD
ENDBRANCH  19  21
ENDBRANCH  15  19
ENDBRANCH   9  11
TORSDOF 3
ENDMDL
MODEL 3
REMARK VINA RESULT: -6.222095098      1.369      1.391
REMARK  3 active torsions:
REMARK  status: ('A' for Active; 'I' for Inactive)
REMARK       I    between atoms: N2_3  and  C2_5 
REMARK       I    between atoms: C2_5  and  N4_9 
REMARK    1  A    between atoms: N4_9  and  N5_11 
REMARK    2  A    between atoms: C5_16  and  N7_17 
REMARK    3  A    between atoms: N7_17  and  N8_19 
ROOT
HETATM    1  N1  UNL     1      26.635  63.699  15.332  1.00  0.00    -0.171 NA
HETATM    2  C1  UNL     1      27.053  64.255  14.401  1.00  0.00     0.196 C 
HETATM    3  N2  UNL     1      27.572  64.931  13.283  1.00  0.00    -0.125 N 
ATOM      4  H2  UNL     1      27.338  65.917  13.165  1.00  0.00     0.197 HD
HETATM    5  C2  UNL     1      28.395  64.325  12.315  1.00  0.00     0.700 C 
HETATM    6  N3  UNL     1      28.032  63.253  11.733  1.00  0.00    -0.233 N 
ATOM      7  H31 UNL     1      28.629  62.813  11.032  1.00  0.00     0.174 HD
ATOM      8  H32 UNL     1      27.134  62.838  11.978  1.00  0.00     0.174 HD
HETATM    9  N4  UNL     1      29.639  64.900  11.977  1.00  0.00    -0.115 N 
ATOM     10  H4  UNL     1      30.420  64.773  12.620  1.00  0.00     0.207 HD
ENDROOT
BRANCH   9  11
HETATM   11  N5  UNL     1      29.857  65.634  10.805  1.00  0.00    -0.204 N 
HETATM   12  C3  UNL     1      28.757  66.326  10.161  1.00  0.00     0.191 C 
HETATM   13  C4  UNL     1      28.694  65.767   8.746  1.00  0.00     0.161 C 
HETATM   14  N6  UNL     1      30.010  65.845   8.151  1.00  0.00    -0.222 N 
HETATM   15  C5  UNL     1      31.212  65.855   8.910  1.00  0.00     0.708 C 
ATOM     16  H6  UNL     1      30.080  65.896   7.135  1.00  0.00     0.177 HD
HETATM   17  N9  UNL     1      31.106  65.751  10.191  1.00  0.00    -0.114 N 
ATOM     18  H9  UNL     1      31.948  65.755  10.765  1.00  0.00     0.207 HD
BRANCH  15  19
HETATM   19  N7  UNL     1      32.437  65.978   8.220  1.00  0.00    -0.138 N 
ATOM     20  H7  UNL     1      33.275  66.172   8.768  1.00  0.00     0.205 HD
BRANCH  19  21
HETATM   21  N8  UNL     1      32.577  65.851   6.839  1.00  0.00    -0.331 N 
ATOM     22  H82 UNL     1      31.849  65.331   6.348  1.00  0.00     0.177 HD
ATOM     23  H81 UNL     1      33.351  66.241   6.301  1.00  0.00     0.177 HD
ENDBRANCH  19  21
ENDBRANCH  15  19
ENDBRANCH   9  11
TORSDOF 3
ENDMDL
MODEL 4
REMARK VINA RESULT: -6.080027907      1.760      6.071
REMARK  3 active torsions:
REMARK  status: ('A' for Active; 'I' for Inactive)
REMARK       I    between atoms: N2_3  and  C2_5 
REMARK       I    between atoms: C2_5  and  N4_9 
REMARK    1  A    between atoms: N4_9  and  N5_11 
REMARK    2  A    between atoms: C5_16  and  N7_17 
REMARK    3  A    between atoms: N7_17  and  N8_19 
ROOT
HETATM    1  N1  UNL     1      32.162  66.628   7.683  1.00  0.00    -0.171 NA
HETATM    2  C1  UNL     1      31.444  65.943   8.290  1.00  0.00     0.196 C 
HETATM    3  N2  UNL     1      30.587  65.114   9.035  1.00  0.00    -0.125 N 
ATOM      4  H2  UNL     1      30.640  64.107   8.884  1.00  0.00     0.197 HD
HETATM    5  C2  UNL     1      29.660  65.596   9.979  1.00  0.00     0.700 C 
HETATM    6  N3  UNL     1      28.819  66.496   9.662  1.00  0.00    -0.233 N 
ATOM      7  H31 UNL     1      28.147  66.846  10.345  1.00  0.00     0.174 HD
ATOM      8  H32 UNL     1      28.826  66.866   8.712  1.00  0.00     0.174 HD
HETATM    9  N4  UNL     1      29.651  65.083  11.294  1.00  0.00    -0.115 N 
ATOM     10  H4  UNL     1      30.371  65.404  11.942  1.00  0.00     0.207 HD
ENDROOT
BRANCH   9  11
HETATM   11  N5  UNL     1      28.707  64.160  11.757  1.00  0.00    -0.204 N 
HETATM   12  C3  UNL     1      27.712  63.617  10.853  1.00  0.00     0.191 C 
HETATM   13  C4  UNL     1      26.364  63.969  11.469  1.00  0.00     0.161 C 
HETATM   14  N6  UNL     1      26.354  63.543  12.851  1.00  0.00    -0.222 N 
HETATM   15  C5  UNL     1      27.532  63.402  13.634  1.00  0.00     0.708 C 
ATOM     16  H6  UNL     1      25.456  63.334  13.287  1.00  0.00     0.177 HD
HETATM   17  N9  UNL     1      28.655  63.708  13.077  1.00  0.00    -0.114 N 
ATOM     18  H9  UNL     1      29.519  63.618  13.611  1.00  0.00     0.207 HD
BRANCH  15  19
HETATM   19  N7  UNL     1      27.402  62.938  14.960  1.00  0.00    -0.138 N 
ATOM     20  H7  UNL     1      27.646  61.966  15.152  1.00  0.00     0.205 HD
BRANCH  19  21
HETATM   21  N8  UNL     1      26.961  63.721  16.026  1.00  0.00    -0.331 N 
ATOM     22  H82 UNL     1      26.551  63.229  16.820  1.00  0.00     0.177 HD
ATOM     23  H81 UNL     1      27.024  64.739  16.057  1.00  0.00     0.177 HD
ENDBRANCH  19  21
ENDBRANCH  15  19
ENDBRANCH   9  11
TORSDOF 3
ENDMDL
MODEL 5
REMARK VINA RESULT: -6.037226839      1.631      2.172
REMARK  3 active torsions:
REMARK  status: ('A' for Active; 'I' for Inactive)
REMARK       I    between atoms: N2_3  and  C2_5 
REMARK       I    between atoms: C2_5  and  N4_9 
REMARK    1  A    between atoms: N4_9  and  N5_11 
REMARK    2  A    between atoms: C5_16  and  N7_17 
REMARK    3  A    between atoms: N7_17  and  N8_19 
ROOT
HETATM    1  N1  UNL     1      25.527  62.876  12.547  1.00  0.00    -0.171 NA
HETATM    2  C1  UNL     1      26.347  63.329  11.857  1.00  0.00     0.196 C 
HETATM    3  N2  UNL     1      27.329  63.871  11.010  1.00  0.00    -0.125 N 
ATOM      4  H2  UNL     1      28.129  63.288  10.766  1.00  0.00     0.197 HD
HETATM    5  C2  UNL     1      27.271  65.174  10.481  1.00  0.00     0.700 C 
HETATM    6  N3  UNL     1      27.108  66.179  11.244  1.00  0.00    -0.233 N 
ATOM      7  H31 UNL     1      27.065  67.124  10.860  1.00  0.00     0.174 HD
ATOM      8  H32 UNL     1      27.019  66.028  12.248  1.00  0.00     0.174 HD
HETATM    9  N4  UNL     1      27.395  65.384   9.090  1.00  0.00    -0.115 N 
ATOM     10  H4  UNL     1      26.589  65.183   8.498  1.00  0.00     0.207 HD
ENDROOT
BRANCH   9  11
HETATM   11  N5  UNL     1      28.564  65.854   8.481  1.00  0.00    -0.204 N 
HETATM   12  C3  UNL     1      28.531  66.341   7.115  1.00  0.00     0.191 C 
HETATM   13  C4  UNL     1      29.531  65.484   6.350  1.00  0.00     0.161 C 
HETATM   14  N6  UNL     1      30.791  65.487   7.061  1.00  0.00    -0.222 N 
HETATM   15  C5  UNL     1      30.900  65.713   8.459  1.00  0.00     0.708 C 
ATOM     16  H6  UNL     1      31.646  65.318   6.531  1.00  0.00     0.177 HD
HETATM   17  N9  UNL     1      29.805  65.887   9.120  1.00  0.00    -0.114 N 
ATOM     18  H9  UNL     1      29.847  66.052  10.125  1.00  0.00     0.207 HD
BRANCH  15  19
HETATM   19  N7  UNL     1      32.188  65.735   9.035  1.00  0.00    -0.138 N 
ATOM     20  H7  UNL     1      32.889  66.345   8.613  1.00  0.00     0.205 HD
BRANCH  19  21
HETATM   21  N8  UNL     1      32.566  64.977  10.143  1.00  0.00    -0.331 N 
ATOM     22  H82 UNL     1      32.533  65.442  11.051  1.00  0.00     0.177 HD
ATOM     23  H81 UNL     1      32.867  64.004  10.098  1.00  0.00     0.177 HD
ENDBRANCH  19  21
ENDBRANCH  15  19
ENDBRANCH   9  11
TORSDOF 3
ENDMDL
