MODEL 1
REMARK VINA RESULT: -8.157748392      0.000      0.000
REMARK  6 active torsions:
REMARK  status: ('A' for Active; 'I' for Inactive)
REMARK    1  A    between atoms: C2_2  and  N1_5 
REMARK       I    between atoms: N1_5  and  C5_7 
REMARK    2  A    between atoms: C5_7  and  C6_9 
REMARK       I    between atoms: C6_9  and  N2_11 
REMARK    3  A    between atoms: N2_11  and  N3_13 
REMARK    4  A    between atoms: N3_13  and  C7_15 
REMARK    5  A    between atoms: C8_18  and  N5_19 
REMARK    6  A    between atoms: C13_26  and  N7_27 
ROOT
HETATM    1  C7  UNL     1      28.379  63.540  13.387  1.00  0.00     0.163 A 
HETATM    2  N4  UNL     1      29.045  64.244  12.435  1.00  0.00    -0.173 N 
ATOM      3  H4  UNL     1      29.570  65.064  12.740  1.00  0.00     0.186 HD
HETATM    4  C8  UNL     1      29.068  63.950  11.137  1.00  0.00     0.683 A 
HETATM    5  N6  UNL     1      28.375  62.869  10.742  1.00  0.00    -0.175 N 
ATOM      6  H6  UNL     1      28.375  62.622   9.752  1.00  0.00     0.186 HD
HETATM    7  C13 UNL     1      27.684  62.102  11.598  1.00  0.00     0.143 A 
HETATM    8  C14 UNL     1      27.685  62.445  12.962  1.00  0.00     0.136 A 
HETATM    9  N8  UNL     1      26.967  61.574  13.845  1.00  0.00    -0.094 NA
ENDROOT
BRANCH   1  10
HETATM   10  N3  UNL     1      28.408  63.929  14.730  1.00  0.00    -0.280 N 
ATOM     11  H3  UNL     1      27.639  63.627  15.328  1.00  0.00     0.188 HD
BRANCH  10  12
HETATM   12  N2  UNL     1      29.405  64.692  15.304  1.00  0.00    -0.260 N 
HETATM   13  C6  UNL     1      29.371  66.125  15.235  1.00  0.00     0.327 C 
HETATM   14  O2  UNL     1      28.384  66.651  14.640  1.00  0.00    -0.261 OA
ATOM     15  H2  UNL     1      30.178  64.230  15.784  1.00  0.00     0.190 HD
BRANCH  13  16
HETATM   16  C5  UNL     1      30.401  66.973  15.809  1.00  0.00     0.311 C 
HETATM   17  N1  UNL     1      31.549  67.350  15.011  1.00  0.00    -0.345 N 
ATOM     18  H1  UNL     1      31.622  67.020  14.049  1.00  0.00     0.163 HD
HETATM   19  O1  UNL     1      30.367  67.413  16.972  1.00  0.00    -0.262 OA
BRANCH  17  20
HETATM   20  C2  UNL     1      32.588  68.186  15.558  1.00  0.00     0.022 C 
HETATM   21  C1  UNL     1      32.046  69.552  15.953  1.00  0.00     0.037 C 
HETATM   22  C3  UNL     1      33.243  67.574  16.761  1.00  0.00     0.037 C 
HETATM   23  C4  UNL     1      33.603  68.432  14.430  1.00  0.00     0.037 C 
ENDBRANCH  17  20
ENDBRANCH  13  16
ENDBRANCH  10  12
ENDBRANCH   1  10
BRANCH   4  24
HETATM   24  N5  UNL     1      29.766  64.723  10.179  1.00  0.00    -0.217 N 
HETATM   25  C9  UNL     1      31.206  64.924  10.135  1.00  0.00     0.141 C 
HETATM   26  C10 UNL     1      31.471  65.328   8.725  1.00  0.00     0.022 C 
HETATM   27  C11 UNL     1      30.187  65.576   8.015  1.00  0.00     0.022 C 
HETATM   28  C12 UNL     1      29.141  65.438   9.091  1.00  0.00     0.141 C 
ENDBRANCH   4  24
BRANCH   7  29
HETATM   29  N7  UNL     1      27.023  61.069  11.178  1.00  0.00    -0.383 N 
ATOM     30  H72 UNL     1      26.677  61.029  10.219  1.00  0.00     0.157 HD
ATOM     31  H71 UNL     1      26.841  60.278  11.797  1.00  0.00     0.157 HD
ENDBRANCH   7  29
TORSDOF 6
ENDMDL
MODEL 2
REMARK VINA RESULT: -7.922726364      3.236      3.845
REMARK  6 active torsions:
REMARK  status: ('A' for Active; 'I' for Inactive)
REMARK    1  A    between atoms: C2_2  and  N1_5 
REMARK       I    between atoms: N1_5  and  C5_7 
REMARK    2  A    between atoms: C5_7  and  C6_9 
REMARK       I    between atoms: C6_9  and  N2_11 
REMARK    3  A    between atoms: N2_11  and  N3_13 
REMARK    4  A    between atoms: N3_13  and  C7_15 
REMARK    5  A    between atoms: C8_18  and  N5_19 
REMARK    6  A    between atoms: C13_26  and  N7_27 
ROOT
HETATM    1  C7  UNL     1      28.445  64.371  12.315  1.00  0.00     0.163 A 
HETATM    2  N4  UNL     1      29.377  64.414  11.326  1.00  0.00    -0.173 N 
ATOM      3  H4  UNL     1      30.273  63.963  11.507  1.00  0.00     0.186 HD
HETATM    4  C8  UNL     1      29.212  64.996  10.141  1.00  0.00     0.683 A 
HETATM    5  N6  UNL     1      28.028  65.587   9.908  1.00  0.00    -0.175 N 
ATOM      6  H6  UNL     1      27.876  66.042   9.007  1.00  0.00     0.186 HD
HETATM    7  C13 UNL     1      27.039  65.602  10.813  1.00  0.00     0.143 A 
HETATM    8  C14 UNL     1      27.250  64.976  12.054  1.00  0.00     0.136 A 
HETATM    9  N8  UNL     1      26.152  64.981  12.974  1.00  0.00    -0.094 NA
ENDROOT
BRANCH   1  10
HETATM   10  N3  UNL     1      28.711  63.740  13.534  1.00  0.00    -0.280 N 
ATOM     11  H3  UNL     1      28.947  62.747  13.513  1.00  0.00     0.188 HD
BRANCH  10  12
HETATM   12  N2  UNL     1      28.676  64.364  14.764  1.00  0.00    -0.260 N 
HETATM   13  C6  UNL     1      27.729  63.970  15.768  1.00  0.00     0.327 C 
HETATM   14  O2  UNL     1      26.943  63.020  15.477  1.00  0.00    -0.261 OA
ATOM     15  H2  UNL     1      29.334  65.119  14.963  1.00  0.00     0.190 HD
BRANCH  13  16
HETATM   16  C5  UNL     1      27.641  64.604  17.071  1.00  0.00     0.311 C 
HETATM   17  N1  UNL     1      28.786  64.586  17.958  1.00  0.00    -0.345 N 
ATOM     18  H1  UNL     1      29.647  64.131  17.658  1.00  0.00     0.163 HD
HETATM   19  O1  UNL     1      26.623  65.180  17.493  1.00  0.00    -0.262 OA
BRANCH  17  20
HETATM   20  C2  UNL     1      28.724  65.203  19.259  1.00  0.00     0.022 C 
HETATM   21  C1  UNL     1      28.430  66.692  19.149  1.00  0.00     0.037 C 
HETATM   22  C3  UNL     1      27.680  64.582  20.140  1.00  0.00     0.037 C 
HETATM   23  C4  UNL     1      30.125  65.082  19.878  1.00  0.00     0.037 C 
ENDBRANCH  17  20
ENDBRANCH  13  16
ENDBRANCH  10  12
ENDBRANCH   1  10
BRANCH   4  24
HETATM   24  N5  UNL     1      30.217  65.027   9.146  1.00  0.00    -0.217 N 
HETATM   25  C9  UNL     1      29.990  65.068   7.709  1.00  0.00     0.141 C 
HETATM   26  C10 UNL     1      31.266  65.607   7.157  1.00  0.00     0.022 C 
HETATM   27  C11 UNL     1      32.299  65.669   8.227  1.00  0.00     0.022 C 
HETATM   28  C12 UNL     1      31.636  65.018   9.414  1.00  0.00     0.141 C 
ENDBRANCH   4  24
BRANCH   7  29
HETATM   29  N7  UNL     1      25.911  66.188  10.554  1.00  0.00    -0.383 N 
ATOM     30  H72 UNL     1      25.861  66.933   9.859  1.00  0.00     0.157 HD
ATOM     31  H71 UNL     1      25.055  65.911  11.036  1.00  0.00     0.157 HD
ENDBRANCH   7  29
TORSDOF 6
ENDMDL
MODEL 3
REMARK VINA RESULT: -7.854600276      2.689      3.299
REMARK  6 active torsions:
REMARK  status: ('A' for Active; 'I' for Inactive)
REMARK    1  A    between atoms: C2_2  and  N1_5 
REMARK       I    between atoms: N1_5  and  C5_7 
REMARK    2  A    between atoms: C5_7  and  C6_9 
REMARK       I    between atoms: C6_9  and  N2_11 
REMARK    3  A    between atoms: N2_11  and  N3_13 
REMARK    4  A    between atoms: N3_13  and  C7_15 
REMARK    5  A    between atoms: C8_18  and  N5_19 
REMARK    6  A    between atoms: C13_26  and  N7_27 
ROOT
HETATM    1  C7  UNL     1      28.171  63.439  11.748  1.00  0.00     0.163 A 
HETATM    2  N4  UNL     1      29.154  63.999  10.995  1.00  0.00    -0.173 N 
ATOM      3  H4  UNL     1      30.108  63.940  11.350  1.00  0.00     0.186 HD
HETATM    4  C8  UNL     1      28.971  64.618   9.831  1.00  0.00     0.683 A 
HETATM    5  N6  UNL     1      27.712  64.691   9.368  1.00  0.00    -0.175 N 
ATOM      6  H6  UNL     1      27.544  65.161   8.478  1.00  0.00     0.186 HD
HETATM    7  C13 UNL     1      26.668  64.171  10.028  1.00  0.00     0.143 A 
HETATM    8  C14 UNL     1      26.902  63.524  11.255  1.00  0.00     0.136 A 
HETATM    9  N8  UNL     1      25.762  62.948  11.907  1.00  0.00    -0.094 NA
ENDROOT
BRANCH   1  10
HETATM   10  N3  UNL     1      28.458  62.813  12.966  1.00  0.00    -0.280 N 
ATOM     11  H3  UNL     1      28.190  61.835  13.070  1.00  0.00     0.188 HD
BRANCH  10  12
HETATM   12  N2  UNL     1      29.078  63.426  14.035  1.00  0.00    -0.260 N 
HETATM   13  C6  UNL     1      28.332  64.230  14.961  1.00  0.00     0.327 C 
HETATM   14  O2  UNL     1      27.086  64.337  14.759  1.00  0.00    -0.261 OA
ATOM     15  H2  UNL     1      30.083  63.307  14.169  1.00  0.00     0.190 HD
BRANCH  13  16
HETATM   16  C5  UNL     1      28.939  64.908  16.093  1.00  0.00     0.311 C 
HETATM   17  N1  UNL     1      28.542  64.554  17.440  1.00  0.00    -0.345 N 
ATOM     18  H1  UNL     1      27.841  63.827  17.583  1.00  0.00     0.163 HD
HETATM   19  O1  UNL     1      29.802  65.797  15.986  1.00  0.00    -0.262 OA
BRANCH  17  20
HETATM   20  C2  UNL     1      29.124  65.215  18.581  1.00  0.00     0.022 C 
HETATM   21  C1  UNL     1      30.570  64.791  18.785  1.00  0.00     0.037 C 
HETATM   22  C3  UNL     1      29.085  66.710  18.460  1.00  0.00     0.037 C 
HETATM   23  C4  UNL     1      28.351  64.732  19.819  1.00  0.00     0.037 C 
ENDBRANCH  17  20
ENDBRANCH  13  16
ENDBRANCH  10  12
ENDBRANCH   1  10
BRANCH   4  24
HETATM   24  N5  UNL     1      30.025  65.199   9.087  1.00  0.00    -0.217 N 
HETATM   25  C9  UNL     1      31.424  65.237   9.484  1.00  0.00     0.141 C 
HETATM   26  C10 UNL     1      32.157  65.450   8.202  1.00  0.00     0.022 C 
HETATM   27  C11 UNL     1      31.194  65.755   7.109  1.00  0.00     0.022 C 
HETATM   28  C12 UNL     1      29.863  65.852   7.810  1.00  0.00     0.141 C 
ENDBRANCH   4  24
BRANCH   7  29
HETATM   29  N7  UNL     1      25.466  64.266   9.552  1.00  0.00    -0.383 N 
ATOM     30  H72 UNL     1      24.737  64.749  10.078  1.00  0.00     0.157 HD
ATOM     31  H71 UNL     1      25.230  63.866   8.644  1.00  0.00     0.157 HD
ENDBRANCH   7  29
TORSDOF 6
ENDMDL
MODEL 4
REMARK VINA RESULT: -7.782583812      3.003      4.102
REMARK  6 active torsions:
REMARK  status: ('A' for Active; 'I' for Inactive)
REMARK    1  A    between atoms: C2_2  and  N1_5 
REMARK       I    between atoms: N1_5  and  C5_7 
REMARK    2  A    between atoms: C5_7  and  C6_9 
REMARK       I    between atoms: C6_9  and  N2_11 
REMARK    3  A    between atoms: N2_11  and  N3_13 
REMARK    4  A    between atoms: N3_13  and  C7_15 
REMARK    5  A    between atoms: C8_18  and  N5_19 
REMARK    6  A    between atoms: C13_26  and  N7_27 
ROOT
HETATM    1  C7  UNL     1      28.665  63.510  13.335  1.00  0.00     0.163 A 
HETATM    2  N4  UNL     1      29.256  64.219  12.338  1.00  0.00    -0.173 N 
ATOM      3  H4  UNL     1      29.866  64.991  12.609  1.00  0.00     0.186 HD
HETATM    4  C8  UNL     1      29.103  63.988  11.036  1.00  0.00     0.683 A 
HETATM    5  N6  UNL     1      28.300  62.970  10.686  1.00  0.00    -0.175 N 
ATOM      6  H6  UNL     1      28.165  62.771   9.694  1.00  0.00     0.186 HD
HETATM    7  C13 UNL     1      27.669  62.204  11.587  1.00  0.00     0.143 A 
HETATM    8  C14 UNL     1      27.856  62.479  12.954  1.00  0.00     0.136 A 
HETATM    9  N8  UNL     1      27.195  61.611  13.883  1.00  0.00    -0.094 NA
ENDROOT
BRANCH   1  10
HETATM   10  N3  UNL     1      28.880  63.831  14.680  1.00  0.00    -0.280 N 
ATOM     11  H3  UNL     1      29.844  63.963  14.987  1.00  0.00     0.188 HD
BRANCH  10  12
HETATM   12  N2  UNL     1      27.881  63.982  15.619  1.00  0.00    -0.260 N 
HETATM   13  C6  UNL     1      28.126  64.663  16.858  1.00  0.00     0.327 C 
HETATM   14  O2  UNL     1      29.292  65.125  17.041  1.00  0.00    -0.261 OA
ATOM     15  H2  UNL     1      26.952  63.604  15.429  1.00  0.00     0.190 HD
BRANCH  13  16
HETATM   16  C5  UNL     1      27.114  64.836  17.885  1.00  0.00     0.311 C 
HETATM   17  N1  UNL     1      26.924  66.134  18.495  1.00  0.00    -0.345 N 
ATOM     18  H1  UNL     1      27.501  66.920  18.196  1.00  0.00     0.163 HD
HETATM   19  O1  UNL     1      26.375  63.920  18.289  1.00  0.00    -0.262 OA
BRANCH  17  20
HETATM   20  C2  UNL     1      25.930  66.332  19.520  1.00  0.00     0.022 C 
HETATM   21  C1  UNL     1      24.532  66.038  18.996  1.00  0.00     0.037 C 
HETATM   22  C3  UNL     1      26.170  65.473  20.726  1.00  0.00     0.037 C 
HETATM   23  C4  UNL     1      25.952  67.826  19.881  1.00  0.00     0.037 C 
ENDBRANCH  17  20
ENDBRANCH  13  16
ENDBRANCH  10  12
ENDBRANCH   1  10
BRANCH   4  24
HETATM   24  N5  UNL     1      29.729  64.763  10.032  1.00  0.00    -0.217 N 
HETATM   25  C9  UNL     1      31.156  65.025   9.927  1.00  0.00     0.141 C 
HETATM   26  C10 UNL     1      31.350  65.401   8.497  1.00  0.00     0.022 C 
HETATM   27  C11 UNL     1      30.030  65.574   7.832  1.00  0.00     0.022 C 
HETATM   28  C12 UNL     1      29.032  65.420   8.952  1.00  0.00     0.141 C 
ENDBRANCH   4  24
BRANCH   7  29
HETATM   29  N7  UNL     1      26.897  61.233  11.211  1.00  0.00    -0.383 N 
ATOM     30  H72 UNL     1      26.977  60.842  10.272  1.00  0.00     0.157 HD
ATOM     31  H71 UNL     1      26.202  60.841  11.846  1.00  0.00     0.157 HD
ENDBRANCH   7  29
TORSDOF 6
ENDMDL
MODEL 5
REMARK VINA RESULT: -7.779273913      3.510      5.357
REMARK  6 active torsions:
REMARK  status: ('A' for Active; 'I' for Inactive)
REMARK    1  A    between atoms: C2_2  and  N1_5 
REMARK       I    between atoms: N1_5  and  C5_7 
REMARK    2  A    between atoms: C5_7  and  C6_9 
REMARK       I    between atoms: C6_9  and  N2_11 
REMARK    3  A    between atoms: N2_11  and  N3_13 
REMARK    4  A    between atoms: N3_13  and  C7_15 
REMARK    5  A    between atoms: C8_18  and  N5_19 
REMARK    6  A    between atoms: C13_26  and  N7_27 
ROOT
HETATM    1  C7  UNL     1      28.417  63.411  13.424  1.00  0.00     0.163 A 
HETATM    2  N4  UNL     1      29.074  64.140  12.484  1.00  0.00    -0.173 N 
ATOM      3  H4  UNL     1      29.622  64.936  12.807  1.00  0.00     0.186 HD
HETATM    4  C8  UNL     1      29.059  63.897  11.175  1.00  0.00     0.683 A 
HETATM    5  N6  UNL     1      28.336  62.846  10.756  1.00  0.00    -0.175 N 
ATOM      6  H6  UNL     1      28.307  62.638   9.757  1.00  0.00     0.186 HD
HETATM    7  C13 UNL     1      27.651  62.058  11.598  1.00  0.00     0.143 A 
HETATM    8  C14 UNL     1      27.692  62.346  12.974  1.00  0.00     0.136 A 
HETATM    9  N8  UNL     1      26.978  61.455  13.840  1.00  0.00    -0.094 NA
ENDROOT
BRANCH   1  10
HETATM   10  N3  UNL     1      28.486  63.746  14.780  1.00  0.00    -0.280 N 
ATOM     11  H3  UNL     1      29.318  64.238  15.106  1.00  0.00     0.188 HD
BRANCH  10  12
HETATM   12  N2  UNL     1      27.508  63.457  15.709  1.00  0.00    -0.260 N 
HETATM   13  C6  UNL     1      26.445  64.384  15.976  1.00  0.00     0.327 C 
HETATM   14  O2  UNL     1      26.442  65.465  15.315  1.00  0.00    -0.261 OA
ATOM     15  H2  UNL     1      27.540  62.571  16.214  1.00  0.00     0.190 HD
BRANCH  13  16
HETATM   16  C5  UNL     1      25.400  64.136  16.954  1.00  0.00     0.311 C 
HETATM   17  N1  UNL     1      24.019  64.402  16.612  1.00  0.00    -0.345 N 
ATOM     18  H1  UNL     1      23.790  64.759  15.685  1.00  0.00     0.163 HD
HETATM   19  O1  UNL     1      25.613  63.695  18.098  1.00  0.00    -0.262 OA
BRANCH  17  20
HETATM   20  C2  UNL     1      22.962  64.170  17.565  1.00  0.00     0.022 C 
HETATM   21  C1  UNL     1      22.932  62.715  18.010  1.00  0.00     0.037 C 
HETATM   22  C3  UNL     1      23.090  65.032  18.786  1.00  0.00     0.037 C 
HETATM   23  C4  UNL     1      21.636  64.426  16.833  1.00  0.00     0.037 C 
ENDBRANCH  17  20
ENDBRANCH  13  16
ENDBRANCH  10  12
ENDBRANCH   1  10
BRANCH   4  24
HETATM   24  N5  UNL     1      29.749  64.693  10.231  1.00  0.00    -0.217 N 
HETATM   25  C9  UNL     1      31.188  64.896  10.180  1.00  0.00     0.141 C 
HETATM   26  C10 UNL     1      31.442  65.335   8.778  1.00  0.00     0.022 C 
HETATM   27  C11 UNL     1      30.151  65.601   8.085  1.00  0.00     0.022 C 
HETATM   28  C12 UNL     1      29.115  65.436   9.168  1.00  0.00     0.141 C 
ENDBRANCH   4  24
BRANCH   7  29
HETATM   29  N7  UNL     1      26.959  61.055  11.155  1.00  0.00    -0.383 N 
ATOM     30  H72 UNL     1      26.041  61.203  10.736  1.00  0.00     0.157 HD
ATOM     31  H71 UNL     1      27.322  60.103  11.213  1.00  0.00     0.157 HD
ENDBRANCH   7  29
TORSDOF 6
ENDMDL
