MODEL 1
REMARK VINA RESULT: -8.446967536      0.000      0.000
REMARK  6 active torsions:
REMARK  status: ('A' for Active; 'I' for Inactive)
REMARK    1  A    between atoms: N1_1  and  C1_4 
REMARK    2  A    between atoms: C2_9  and  N4_10 
REMARK    3  A    between atoms: C4_12  and  N5_13 
REMARK    4  A    between atoms: C4_12  and  C5_17 
REMARK    5  A    between atoms: C5_17  and  N6_18 
REMARK    6  A    between atoms: C14_31  and  N9_32 
ROOT
HETATM    1  N4  UNL     1      28.793  64.334  11.372  1.00  0.00    -0.300 N 
HETATM    2  C3  UNL     1      28.024  63.087  11.577  1.00  0.00     0.196 C 
HETATM    3  C4  UNL     1      27.777  63.143  13.038  1.00  0.00     0.240 C 
HETATM    4  N7  UNL     1      27.706  64.586  13.309  1.00  0.00    -0.329 N 
ATOM      5  H7  UNL     1      27.270  65.016  14.124  1.00  0.00     0.164 HD
HETATM    6  C12 UNL     1      28.279  65.211  12.360  1.00  0.00     0.194 C 
HETATM    7  N8  UNL     1      28.329  66.653  12.376  1.00  0.00    -0.063 NA
ENDROOT
BRANCH   1   8
HETATM    8  C2  UNL     1      29.768  64.646  10.413  1.00  0.00     0.166 A 
HETATM    9  N3  UNL     1      31.080  64.404  10.722  1.00  0.00    -0.281 N 
HETATM   10  N2  UNL     1      32.065  64.676   9.883  1.00  0.00    -0.282 N 
ATOM     11  H3  UNL     1      31.304  64.001  11.631  1.00  0.00     0.188 HD
HETATM   12  C1  UNL     1      31.861  65.208   8.669  1.00  0.00     0.143 A 
ATOM     13  H2  UNL     1      33.021  64.472  10.172  1.00  0.00     0.188 HD
HETATM   14  C14 UNL     1      30.576  65.488   8.269  1.00  0.00     0.114 A 
HETATM   15  C13 UNL     1      29.544  65.193   9.171  1.00  0.00     0.191 A 
HETATM   16  F1  UNL     1      28.266  65.472   8.822  1.00  0.00    -0.199 F 
BRANCH  12  17
HETATM   17  N1  UNL     1      32.863  65.449   7.887  1.00  0.00    -0.383 N 
ATOM     18  H12 UNL     1      33.552  66.161   8.130  1.00  0.00     0.157 HD
ATOM     19  H11 UNL     1      32.971  64.930   7.016  1.00  0.00     0.157 HD
ENDBRANCH  12  17
BRANCH  14  20
HETATM   20  N9  UNL     1      30.299  66.006   7.120  1.00  0.00    -0.393 N 
ATOM     21  H92 UNL     1      31.047  66.382   6.538  1.00  0.00     0.156 HD
ATOM     22  H91 UNL     1      29.350  66.058   6.752  1.00  0.00     0.156 HD
ENDBRANCH  14  20
ENDBRANCH   1   8
BRANCH   3  23
HETATM   23  N5  UNL     1      28.917  62.687  13.785  1.00  0.00    -0.049 N 
ATOM     24  H53 UNL     1      29.407  61.936  13.296  1.00  0.00     0.277 HD
ATOM     25  H52 UNL     1      29.662  63.384  13.792  1.00  0.00     0.277 HD
ATOM     26  H51 UNL     1      28.659  62.408  14.732  1.00  0.00     0.277 HD
ENDBRANCH   3  23
BRANCH   3  27
HETATM   27  C5  UNL     1      26.476  62.596  13.503  1.00  0.00     0.335 C 
BRANCH  27  28
HETATM   28  N6  UNL     1      25.313  63.380  13.468  1.00  0.00     0.092 N 
HETATM   29  C6  UNL     1      24.304  63.000  12.536  1.00  0.00     0.272 C 
HETATM   30  C7  UNL     1      22.919  63.486  12.927  1.00  0.00     0.030 C 
HETATM   31  C8  UNL     1      22.937  64.955  13.339  1.00  0.00     0.002 C 
HETATM   32  C9  UNL     1      22.935  64.984  14.844  1.00  0.00     0.002 C 
HETATM   33  C10 UNL     1      24.387  64.804  15.269  1.00  0.00     0.030 C 
HETATM   34  C11 UNL     1      24.791  63.422  14.848  1.00  0.00     0.272 C 
ENDBRANCH  27  28
ENDBRANCH   3  27
TORSDOF 6
ENDMDL
MODEL 2
REMARK VINA RESULT: -8.426063228      1.038      1.532
REMARK  6 active torsions:
REMARK  status: ('A' for Active; 'I' for Inactive)
REMARK    1  A    between atoms: N1_1  and  C1_4 
REMARK    2  A    between atoms: C2_9  and  N4_10 
REMARK    3  A    between atoms: C4_12  and  N5_13 
REMARK    4  A    between atoms: C4_12  and  C5_17 
REMARK    5  A    between atoms: C5_17  and  N6_18 
REMARK    6  A    between atoms: C14_31  and  N9_32 
ROOT
HETATM    1  N4  UNL     1      28.933  64.425  11.464  1.00  0.00    -0.300 N 
HETATM    2  C3  UNL     1      28.169  63.189  11.739  1.00  0.00     0.196 C 
HETATM    3  C4  UNL     1      27.980  63.292  13.206  1.00  0.00     0.240 C 
HETATM    4  N7  UNL     1      27.923  64.742  13.433  1.00  0.00    -0.329 N 
ATOM      5  H7  UNL     1      27.520  65.200  14.251  1.00  0.00     0.164 HD
HETATM    6  C12 UNL     1      28.460  65.335  12.443  1.00  0.00     0.194 C 
HETATM    7  N8  UNL     1      28.514  66.778  12.412  1.00  0.00    -0.063 NA
ENDROOT
BRANCH   1   8
HETATM    8  C2  UNL     1      29.870  64.704  10.458  1.00  0.00     0.166 A 
HETATM    9  N3  UNL     1      31.190  64.445  10.715  1.00  0.00    -0.281 N 
HETATM   10  N2  UNL     1      32.142  64.685   9.829  1.00  0.00    -0.282 N 
ATOM     11  H3  UNL     1      31.447  64.055  11.621  1.00  0.00     0.188 HD
HETATM   12  C1  UNL     1      31.894  65.198   8.616  1.00  0.00     0.143 A 
ATOM     13  H2  UNL     1      33.106  64.470  10.081  1.00  0.00     0.188 HD
HETATM   14  C14 UNL     1      30.598  65.493   8.266  1.00  0.00     0.114 A 
HETATM   15  C13 UNL     1      29.602  65.232   9.217  1.00  0.00     0.191 A 
HETATM   16  F1  UNL     1      28.314  65.526   8.919  1.00  0.00    -0.199 F 
BRANCH  12  17
HETATM   17  N1  UNL     1      32.865  65.408   7.786  1.00  0.00    -0.383 N 
ATOM     18  H12 UNL     1      33.762  65.764   8.117  1.00  0.00     0.157 HD
ATOM     19  H11 UNL     1      32.740  65.222   6.792  1.00  0.00     0.157 HD
ENDBRANCH  12  17
BRANCH  14  20
HETATM   20  N9  UNL     1      30.280  65.994   7.121  1.00  0.00    -0.393 N 
ATOM     21  H92 UNL     1      29.324  66.304   6.948  1.00  0.00     0.156 HD
ATOM     22  H91 UNL     1      30.950  66.104   6.360  1.00  0.00     0.156 HD
ENDBRANCH  14  20
ENDBRANCH   1   8
BRANCH   3  23
HETATM   23  N5  UNL     1      29.148  62.855  13.921  1.00  0.00    -0.049 N 
ATOM     24  H53 UNL     1      29.335  61.865  13.761  1.00  0.00     0.277 HD
ATOM     25  H52 UNL     1      30.000  63.245  13.518  1.00  0.00     0.277 HD
ATOM     26  H51 UNL     1      29.077  63.065  14.918  1.00  0.00     0.277 HD
ENDBRANCH   3  23
BRANCH   3  27
HETATM   27  C5  UNL     1      26.697  62.764  13.739  1.00  0.00     0.335 C 
BRANCH  27  28
HETATM   28  N6  UNL     1      25.964  63.487  14.692  1.00  0.00     0.092 N 
HETATM   29  C6  UNL     1      24.543  63.449  14.581  1.00  0.00     0.272 C 
HETATM   30  C7  UNL     1      23.836  63.736  15.894  1.00  0.00     0.030 C 
HETATM   31  C8  UNL     1      24.424  64.958  16.592  1.00  0.00     0.002 C 
HETATM   32  C9  UNL     1      25.348  64.444  17.664  1.00  0.00     0.002 C 
HETATM   33  C10 UNL     1      26.673  64.150  16.969  1.00  0.00     0.030 C 
HETATM   34  C11 UNL     1      26.418  63.020  16.017  1.00  0.00     0.272 C 
ENDBRANCH  27  28
ENDBRANCH   3  27
TORSDOF 6
ENDMDL
MODEL 3
REMARK VINA RESULT: -8.338197891      1.466      2.158
REMARK  6 active torsions:
REMARK  status: ('A' for Active; 'I' for Inactive)
REMARK    1  A    between atoms: N1_1  and  C1_4 
REMARK    2  A    between atoms: C2_9  and  N4_10 
REMARK    3  A    between atoms: C4_12  and  N5_13 
REMARK    4  A    between atoms: C4_12  and  C5_17 
REMARK    5  A    between atoms: C5_17  and  N6_18 
REMARK    6  A    between atoms: C14_31  and  N9_32 
ROOT
HETATM    1  N4  UNL     1      28.484  64.700  10.743  1.00  0.00    -0.300 N 
HETATM    2  C3  UNL     1      27.983  63.361  11.127  1.00  0.00     0.196 C 
HETATM    3  C4  UNL     1      27.877  63.509  12.599  1.00  0.00     0.240 C 
HETATM    4  N7  UNL     1      27.568  64.935  12.769  1.00  0.00    -0.329 N 
ATOM      5  H7  UNL     1      27.143  65.356  13.595  1.00  0.00     0.164 HD
HETATM    6  C12 UNL     1      27.917  65.560  11.718  1.00  0.00     0.194 C 
HETATM    7  N8  UNL     1      27.701  66.985  11.622  1.00  0.00    -0.063 NA
ENDROOT
BRANCH   1   8
HETATM    8  C2  UNL     1      29.284  65.088   9.659  1.00  0.00     0.166 A 
HETATM    9  N3  UNL     1      28.666  65.616   8.557  1.00  0.00    -0.281 N 
HETATM   10  N2  UNL     1      29.339  66.000   7.486  1.00  0.00    -0.282 N 
ATOM     11  H3  UNL     1      27.651  65.715   8.562  1.00  0.00     0.188 HD
HETATM   12  C1  UNL     1      30.673  65.904   7.392  1.00  0.00     0.143 A 
ATOM     13  H2  UNL     1      28.821  66.386   6.697  1.00  0.00     0.188 HD
HETATM   14  C14 UNL     1      31.382  65.384   8.448  1.00  0.00     0.114 A 
HETATM   15  C13 UNL     1      30.652  64.982   9.576  1.00  0.00     0.191 A 
HETATM   16  F1  UNL     1      31.312  64.447  10.631  1.00  0.00    -0.199 F 
BRANCH  12  17
HETATM   17  N1  UNL     1      31.282  66.300   6.321  1.00  0.00    -0.383 N 
ATOM     18  H12 UNL     1      30.773  66.793   5.587  1.00  0.00     0.157 HD
ATOM     19  H11 UNL     1      32.278  66.119   6.200  1.00  0.00     0.157 HD
ENDBRANCH  12  17
BRANCH  14  20
HETATM   20  N9  UNL     1      32.666  65.253   8.432  1.00  0.00    -0.393 N 
ATOM     21  H92 UNL     1      33.152  65.111   7.547  1.00  0.00     0.156 HD
ATOM     22  H91 UNL     1      33.236  65.288   9.277  1.00  0.00     0.156 HD
ENDBRANCH  14  20
ENDBRANCH   1   8
BRANCH   3  23
HETATM   23  N5  UNL     1      29.151  63.332  13.241  1.00  0.00    -0.049 N 
ATOM     24  H53 UNL     1      29.051  63.263  14.254  1.00  0.00     0.277 HD
ATOM     25  H52 UNL     1      29.535  62.405  13.056  1.00  0.00     0.277 HD
ATOM     26  H51 UNL     1      29.808  64.067  12.979  1.00  0.00     0.277 HD
ENDBRANCH   3  23
BRANCH   3  27
HETATM   27  C5  UNL     1      26.753  62.787  13.249  1.00  0.00     0.335 C 
BRANCH  27  28
HETATM   28  N6  UNL     1      25.993  63.400  14.257  1.00  0.00     0.092 N 
HETATM   29  C6  UNL     1      24.578  63.233  14.193  1.00  0.00     0.272 C 
HETATM   30  C7  UNL     1      23.899  63.401  15.541  1.00  0.00     0.030 C 
HETATM   31  C8  UNL     1      24.397  64.645  16.269  1.00  0.00     0.002 C 
HETATM   32  C9  UNL     1      25.405  64.179  17.286  1.00  0.00     0.002 C 
HETATM   33  C10 UNL     1      26.724  64.038  16.534  1.00  0.00     0.030 C 
HETATM   34  C11 UNL     1      26.538  62.926  15.544  1.00  0.00     0.272 C 
ENDBRANCH  27  28
ENDBRANCH   3  27
TORSDOF 6
ENDMDL
MODEL 4
REMARK VINA RESULT: -8.275407385      1.161      1.656
REMARK  6 active torsions:
REMARK  status: ('A' for Active; 'I' for Inactive)
REMARK    1  A    between atoms: N1_1  and  C1_4 
REMARK    2  A    between atoms: C2_9  and  N4_10 
REMARK    3  A    between atoms: C4_12  and  N5_13 
REMARK    4  A    between atoms: C4_12  and  C5_17 
REMARK    5  A    between atoms: C5_17  and  N6_18 
REMARK    6  A    between atoms: C14_31  and  N9_32 
ROOT
HETATM    1  N4  UNL     1      28.467  64.685  10.735  1.00  0.00    -0.300 N 
HETATM    2  C3  UNL     1      27.968  63.343  11.107  1.00  0.00     0.196 C 
HETATM    3  C4  UNL     1      27.842  63.485  12.578  1.00  0.00     0.240 C 
HETATM    4  N7  UNL     1      27.524  64.909  12.749  1.00  0.00    -0.329 N 
ATOM      5  H7  UNL     1      27.086  65.324  13.571  1.00  0.00     0.164 HD
HETATM    6  C12 UNL     1      27.884  65.540  11.704  1.00  0.00     0.194 C 
HETATM    7  N8  UNL     1      27.661  66.963  11.611  1.00  0.00    -0.063 NA
ENDROOT
BRANCH   1   8
HETATM    8  C2  UNL     1      29.279  65.081   9.661  1.00  0.00     0.166 A 
HETATM    9  N3  UNL     1      28.673  65.616   8.556  1.00  0.00    -0.281 N 
HETATM   10  N2  UNL     1      29.358  66.008   7.496  1.00  0.00    -0.282 N 
ATOM     11  H3  UNL     1      27.658  65.715   8.551  1.00  0.00     0.188 HD
HETATM   12  C1  UNL     1      30.693  65.914   7.417  1.00  0.00     0.143 A 
ATOM     13  H2  UNL     1      28.848  66.399   6.704  1.00  0.00     0.188 HD
HETATM   14  C14 UNL     1      31.391  65.387   8.477  1.00  0.00     0.114 A 
HETATM   15  C13 UNL     1      30.648  64.977   9.593  1.00  0.00     0.191 A 
HETATM   16  F1  UNL     1      31.296  64.435  10.652  1.00  0.00    -0.199 F 
BRANCH  12  17
HETATM   17  N1  UNL     1      31.313  66.317   6.355  1.00  0.00    -0.383 N 
ATOM     18  H12 UNL     1      31.074  65.938   5.438  1.00  0.00     0.157 HD
ATOM     19  H11 UNL     1      32.050  67.018   6.425  1.00  0.00     0.157 HD
ENDBRANCH  12  17
BRANCH  14  20
HETATM   20  N9  UNL     1      32.674  65.257   8.474  1.00  0.00    -0.393 N 
ATOM     21  H92 UNL     1      33.235  65.727   9.184  1.00  0.00     0.156 HD
ATOM     22  H91 UNL     1      33.172  64.694   7.784  1.00  0.00     0.156 HD
ENDBRANCH  14  20
ENDBRANCH   1   8
BRANCH   3  23
HETATM   23  N5  UNL     1      29.108  63.311  13.235  1.00  0.00    -0.049 N 
ATOM     24  H53 UNL     1      29.025  63.437  14.244  1.00  0.00     0.277 HD
ATOM     25  H52 UNL     1      29.406  62.336  13.221  1.00  0.00     0.277 HD
ATOM     26  H51 UNL     1      29.823  63.924  12.841  1.00  0.00     0.277 HD
ENDBRANCH   3  23
BRANCH   3  27
HETATM   27  C5  UNL     1      26.714  62.755  13.211  1.00  0.00     0.335 C 
BRANCH  27  28
HETATM   28  N6  UNL     1      25.459  63.366  13.365  1.00  0.00     0.092 N 
HETATM   29  C6  UNL     1      24.392  62.862  12.565  1.00  0.00     0.272 C 
HETATM   30  C7  UNL     1      23.022  63.138  13.160  1.00  0.00     0.030 C 
HETATM   31  C8  UNL     1      22.892  64.586  13.620  1.00  0.00     0.002 C 
HETATM   32  C9  UNL     1      23.098  64.589  15.112  1.00  0.00     0.002 C 
HETATM   33  C10 UNL     1      24.607  64.611  15.327  1.00  0.00     0.030 C 
HETATM   34  C11 UNL     1      25.135  63.308  14.803  1.00  0.00     0.272 C 
ENDBRANCH  27  28
ENDBRANCH   3  27
TORSDOF 6
ENDMDL
MODEL 5
REMARK VINA RESULT: -8.207792728      1.128      1.326
REMARK  6 active torsions:
REMARK  status: ('A' for Active; 'I' for Inactive)
REMARK    1  A    between atoms: N1_1  and  C1_4 
REMARK    2  A    between atoms: C2_9  and  N4_10 
REMARK    3  A    between atoms: C4_12  and  N5_13 
REMARK    4  A    between atoms: C4_12  and  C5_17 
REMARK    5  A    between atoms: C5_17  and  N6_18 
REMARK    6  A    between atoms: C14_31  and  N9_32 
ROOT
HETATM    1  N4  UNL     1      28.192  63.974  10.870  1.00  0.00    -0.300 N 
HETATM    2  C3  UNL     1      26.973  63.282  10.397  1.00  0.00     0.196 C 
HETATM    3  C4  UNL     1      26.579  62.536  11.616  1.00  0.00     0.240 C 
HETATM    4  N7  UNL     1      27.047  63.405  12.704  1.00  0.00    -0.329 N 
ATOM      5  H7  UNL     1      26.713  63.383  13.667  1.00  0.00     0.164 HD
HETATM    6  C12 UNL     1      27.940  64.189  12.249  1.00  0.00     0.194 C 
HETATM    7  N8  UNL     1      28.552  65.165  13.119  1.00  0.00    -0.063 NA
ENDROOT
BRANCH   1   8
HETATM    8  C2  UNL     1      29.328  64.390  10.160  1.00  0.00     0.166 A 
HETATM    9  N3  UNL     1      30.558  64.164  10.718  1.00  0.00    -0.281 N 
HETATM   10  N2  UNL     1      31.680  64.531  10.125  1.00  0.00    -0.282 N 
ATOM     11  H3  UNL     1      30.608  63.698  11.624  1.00  0.00     0.188 HD
HETATM   12  C1  UNL     1      31.707  65.150   8.936  1.00  0.00     0.143 A 
ATOM     13  H2  UNL     1      32.565  64.334  10.593  1.00  0.00     0.188 HD
HETATM   14  C14 UNL     1      30.521  65.423   8.298  1.00  0.00     0.114 A 
HETATM   15  C13 UNL     1      29.340  65.026   8.941  1.00  0.00     0.191 A 
HETATM   16  F1  UNL     1      28.149  65.293   8.354  1.00  0.00    -0.199 F 
BRANCH  12  17
HETATM   17  N1  UNL     1      32.836  65.482   8.399  1.00  0.00    -0.383 N 
ATOM     18  H12 UNL     1      33.238  66.405   8.564  1.00  0.00     0.157 HD
ATOM     19  H11 UNL     1      33.336  64.823   7.803  1.00  0.00     0.157 HD
ENDBRANCH  12  17
BRANCH  14  20
HETATM   20  N9  UNL     1      30.463  66.020   7.156  1.00  0.00    -0.393 N 
ATOM     21  H92 UNL     1      30.655  67.020   7.094  1.00  0.00     0.156 HD
ATOM     22  H91 UNL     1      30.234  65.535   6.289  1.00  0.00     0.156 HD
ENDBRANCH  14  20
ENDBRANCH   1   8
BRANCH   3  23
HETATM   23  N5  UNL     1      27.337  61.324  11.763  1.00  0.00    -0.049 N 
ATOM     24  H53 UNL     1      27.452  60.845  10.869  1.00  0.00     0.277 HD
ATOM     25  H52 UNL     1      28.317  61.520  11.965  1.00  0.00     0.277 HD
ATOM     26  H51 UNL     1      26.928  60.709  12.467  1.00  0.00     0.277 HD
ENDBRANCH   3  23
BRANCH   3  27
HETATM   27  C5  UNL     1      25.118  62.381  11.844  1.00  0.00     0.335 C 
BRANCH  27  28
HETATM   28  N6  UNL     1      24.397  63.347  12.563  1.00  0.00     0.092 N 
HETATM   29  C6  UNL     1      23.578  64.237  11.809  1.00  0.00     0.272 C 
HETATM   30  C7  UNL     1      22.440  64.830  12.622  1.00  0.00     0.030 C 
HETATM   31  C8  UNL     1      22.927  65.345  13.973  1.00  0.00     0.002 C 
HETATM   32  C9  UNL     1      22.573  64.294  14.992  1.00  0.00     0.002 C 
HETATM   33  C10 UNL     1      23.692  63.261  14.934  1.00  0.00     0.030 C 
HETATM   34  C11 UNL     1      23.616  62.618  13.581  1.00  0.00     0.272 C 
ENDBRANCH  27  28
ENDBRANCH   3  27
TORSDOF 6
ENDMDL
