MODEL 1
REMARK VINA RESULT: -7.332154598      0.000      0.000
REMARK  6 active torsions:
REMARK  status: ('A' for Active; 'I' for Inactive)
REMARK    1  A    between atoms: C2_2  and  N1_3 
REMARK    2  A    between atoms: C2_2  and  C11_26 
REMARK    3  A    between atoms: C4_8  and  N3_9 
REMARK    4  A    between atoms: C7_12  and  N4_13 
REMARK    5  A    between atoms: C10_20  and  N5_21 
REMARK    6  A    between atoms: C13_29  and  O1_30 
ROOT
HETATM    1  N1  UNL     1      28.417  66.248  14.536  1.00  0.00    -0.216 N 
ATOM      2  H1  UNL     1      28.971  67.048  14.228  1.00  0.00     0.178 HD
HETATM    3  C3  UNL     1      28.351  65.336  13.681  1.00  0.00     0.682 A 
HETATM    4  N2  UNL     1      29.022  65.550  12.503  1.00  0.00    -0.174 N 
ATOM      5  H2  UNL     1      29.533  66.424  12.380  1.00  0.00     0.186 HD
HETATM    6  C4  UNL     1      29.032  64.654  11.508  1.00  0.00     0.162 A 
HETATM    7  C9  UNL     1      28.347  63.453  11.638  1.00  0.00     0.204 A 
HETATM    8  F1  UNL     1      28.392  62.584  10.597  1.00  0.00    -0.198 F 
HETATM    9  C10 UNL     1      27.671  63.232  12.814  1.00  0.00     0.157 A 
HETATM   10  N6  UNL     1      27.696  64.179  13.798  1.00  0.00    -0.174 N 
ATOM     11  H6  UNL     1      27.191  63.992  14.664  1.00  0.00     0.186 HD
ENDROOT
BRANCH   1  12
HETATM   12  C2  UNL     1      27.892  66.402  15.826  1.00  0.00     0.147 C 
HETATM   13  C1  UNL     1      27.321  67.738  16.085  1.00  0.00     0.039 C 
BRANCH  12  14
HETATM   14  C11 UNL     1      28.833  65.875  16.855  1.00  0.00     0.061 A 
HETATM   15  C12 UNL     1      28.408  65.027  17.898  1.00  0.00     0.105 A 
HETATM   16  N7  UNL     1      27.109  64.468  18.104  1.00  0.00    -0.097 NA
HETATM   17  C13 UNL     1      29.496  64.792  18.711  1.00  0.00     0.107 A 
HETATM   18  C14 UNL     1      30.534  65.493  18.148  1.00  0.00     0.129 A 
HETATM   19  N8  UNL     1      30.127  66.136  17.043  1.00  0.00    -0.358 N 
HETATM   20  C15 UNL     1      30.972  67.006  16.239  1.00  0.00     0.155 C 
BRANCH  17  21
HETATM   21  O1  UNL     1      29.570  64.006  19.877  1.00  0.00    -0.357 OA
ATOM     22  H1  UNL     1      29.194  64.176  20.733  1.00  0.00     0.217 HD
ENDBRANCH  17  21
ENDBRANCH  12  14
ENDBRANCH   1  12
BRANCH   6  23
HETATM   23  N3  UNL     1      29.774  64.914  10.328  1.00  0.00    -0.362 N 
HETATM   24  C5  UNL     1      29.096  65.452   9.143  1.00  0.00     0.127 C 
HETATM   25  C6  UNL     1      30.097  65.506   8.042  1.00  0.00     0.054 C 
HETATM   26  C7  UNL     1      31.362  64.892   8.578  1.00  0.00     0.203 C 
HETATM   27  C8  UNL     1      31.172  64.756  10.049  1.00  0.00     0.157 C 
BRANCH  26  28
HETATM   28  N4  UNL     1      32.492  65.778   8.253  1.00  0.00    -0.073 N 
ATOM     29  H43 UNL     1      32.276  66.761   8.418  1.00  0.00     0.274 HD
ATOM     30  H42 UNL     1      33.261  65.688   8.917  1.00  0.00     0.274 HD
ATOM     31  H41 UNL     1      32.784  65.598   7.292  1.00  0.00     0.274 HD
ENDBRANCH  26  28
ENDBRANCH   6  23
BRANCH   9  32
HETATM   32  N5  UNL     1      27.015  62.133  12.946  1.00  0.00    -0.382 N 
ATOM     33  H52 UNL     1      27.383  61.348  13.481  1.00  0.00     0.157 HD
ATOM     34  H51 UNL     1      26.096  62.061  12.509  1.00  0.00     0.157 HD
ENDBRANCH   9  32
TORSDOF 6
ENDMDL
MODEL 2
REMARK VINA RESULT: -7.310879851      1.999      2.737
REMARK  6 active torsions:
REMARK  status: ('A' for Active; 'I' for Inactive)
REMARK    1  A    between atoms: C2_2  and  N1_3 
REMARK    2  A    between atoms: C2_2  and  C11_26 
REMARK    3  A    between atoms: C4_8  and  N3_9 
REMARK    4  A    between atoms: C7_12  and  N4_13 
REMARK    5  A    between atoms: C10_20  and  N5_21 
REMARK    6  A    between atoms: C13_29  and  O1_30 
ROOT
HETATM    1  N1  UNL     1      29.333  66.582  14.128  1.00  0.00    -0.216 N 
ATOM      2  H1  UNL     1      29.686  67.398  13.629  1.00  0.00     0.178 HD
HETATM    3  C3  UNL     1      29.096  65.608  13.378  1.00  0.00     0.682 A 
HETATM    4  N2  UNL     1      29.353  65.789  12.041  1.00  0.00    -0.174 N 
ATOM      5  H2  UNL     1      29.716  66.689  11.728  1.00  0.00     0.186 HD
HETATM    6  C4  UNL     1      29.145  64.827  11.133  1.00  0.00     0.162 A 
HETATM    7  C9  UNL     1      28.651  63.589  11.522  1.00  0.00     0.204 A 
HETATM    8  F1  UNL     1      28.460  62.654  10.558  1.00  0.00    -0.198 F 
HETATM    9  C10 UNL     1      28.390  63.401  12.859  1.00  0.00     0.157 A 
HETATM   10  N6  UNL     1      28.623  64.415  13.743  1.00  0.00    -0.174 N 
ATOM     11  H6  UNL     1      28.427  64.252  14.731  1.00  0.00     0.186 HD
ENDROOT
BRANCH   1  12
HETATM   12  C2  UNL     1      29.214  66.787  15.510  1.00  0.00     0.147 C 
HETATM   13  C1  UNL     1      28.106  67.685  15.890  1.00  0.00     0.039 C 
BRANCH  12  14
HETATM   14  C11 UNL     1      30.540  67.076  16.126  1.00  0.00     0.061 A 
HETATM   15  C12 UNL     1      31.479  67.934  15.521  1.00  0.00     0.105 A 
HETATM   16  N7  UNL     1      31.321  68.717  14.335  1.00  0.00    -0.097 NA
HETATM   17  C13 UNL     1      32.617  67.920  16.298  1.00  0.00     0.107 A 
HETATM   18  C14 UNL     1      32.341  67.065  17.337  1.00  0.00     0.129 A 
HETATM   19  N8  UNL     1      31.101  66.568  17.224  1.00  0.00    -0.358 N 
HETATM   20  C15 UNL     1      30.517  65.596  18.138  1.00  0.00     0.155 C 
BRANCH  17  21
HETATM   21  O1  UNL     1      33.825  68.618  16.105  1.00  0.00    -0.357 OA
ATOM     22  H1  UNL     1      34.534  68.761  16.721  1.00  0.00     0.217 HD
ENDBRANCH  17  21
ENDBRANCH  12  14
ENDBRANCH   1  12
BRANCH   6  23
HETATM   23  N3  UNL     1      29.463  65.059   9.771  1.00  0.00    -0.362 N 
HETATM   24  C5  UNL     1      28.389  65.287   8.799  1.00  0.00     0.127 C 
HETATM   25  C6  UNL     1      29.016  65.379   7.452  1.00  0.00     0.054 C 
HETATM   26  C7  UNL     1      30.483  65.100   7.639  1.00  0.00     0.203 C 
HETATM   27  C8  UNL     1      30.733  65.135   9.108  1.00  0.00     0.157 C 
BRANCH  26  28
HETATM   28  N4  UNL     1      31.255  66.132   6.929  1.00  0.00    -0.073 N 
ATOM     29  H43 UNL     1      31.377  65.916   5.940  1.00  0.00     0.274 HD
ATOM     30  H42 UNL     1      30.734  67.003   6.820  1.00  0.00     0.274 HD
ATOM     31  H41 UNL     1      32.144  66.268   7.411  1.00  0.00     0.274 HD
ENDBRANCH  26  28
ENDBRANCH   6  23
BRANCH   9  32
HETATM   32  N5  UNL     1      27.914  62.267  13.236  1.00  0.00    -0.382 N 
ATOM     33  H52 UNL     1      27.140  61.819  12.746  1.00  0.00     0.157 HD
ATOM     34  H51 UNL     1      28.338  61.806  14.041  1.00  0.00     0.157 HD
ENDBRANCH   9  32
TORSDOF 6
ENDMDL
MODEL 3
REMARK VINA RESULT: -7.233389160      3.086      4.152
REMARK  6 active torsions:
REMARK  status: ('A' for Active; 'I' for Inactive)
REMARK    1  A    between atoms: C2_2  and  N1_3 
REMARK    2  A    between atoms: C2_2  and  C11_26 
REMARK    3  A    between atoms: C4_8  and  N3_9 
REMARK    4  A    between atoms: C7_12  and  N4_13 
REMARK    5  A    between atoms: C10_20  and  N5_21 
REMARK    6  A    between atoms: C13_29  and  O1_30 
ROOT
HETATM    1  N1  UNL     1      26.564  66.205  12.290  1.00  0.00    -0.216 N 
ATOM      2  H1  UNL     1      27.438  66.485  12.734  1.00  0.00     0.178 HD
HETATM    3  C3  UNL     1      26.715  65.800  11.115  1.00  0.00     0.682 A 
HETATM    4  N2  UNL     1      28.000  65.789  10.631  1.00  0.00    -0.174 N 
ATOM      5  H2  UNL     1      28.756  66.106  11.237  1.00  0.00     0.186 HD
HETATM    6  C4  UNL     1      28.297  65.378   9.392  1.00  0.00     0.162 A 
HETATM    7  C9  UNL     1      27.294  64.941   8.538  1.00  0.00     0.204 A 
HETATM    8  F1  UNL     1      27.655  64.536   7.293  1.00  0.00    -0.198 F 
HETATM    9  C10 UNL     1      26.005  64.950   9.014  1.00  0.00     0.157 A 
HETATM   10  N6  UNL     1      25.757  65.376  10.288  1.00  0.00    -0.174 N 
ATOM     11  H6  UNL     1      24.794  65.370  10.623  1.00  0.00     0.186 HD
ENDROOT
BRANCH   1  12
HETATM   12  C2  UNL     1      25.447  66.356  13.123  1.00  0.00     0.147 C 
HETATM   13  C1  UNL     1      25.306  67.707  13.698  1.00  0.00     0.039 C 
BRANCH  12  14
HETATM   14  C11 UNL     1      25.331  65.216  14.077  1.00  0.00     0.061 A 
HETATM   15  C12 UNL     1      26.450  64.674  14.740  1.00  0.00     0.105 A 
HETATM   16  N7  UNL     1      27.803  65.137  14.708  1.00  0.00    -0.097 NA
HETATM   17  C13 UNL     1      26.014  63.594  15.477  1.00  0.00     0.107 A 
HETATM   18  C14 UNL     1      24.663  63.512  15.243  1.00  0.00     0.129 A 
HETATM   19  N8  UNL     1      24.267  64.482  14.407  1.00  0.00    -0.358 N 
HETATM   20  C15 UNL     1      22.905  64.645  13.921  1.00  0.00     0.155 C 
BRANCH  17  21
HETATM   21  O1  UNL     1      26.761  62.734  16.306  1.00  0.00    -0.357 OA
ATOM     22  H1  UNL     1      26.712  61.788  16.377  1.00  0.00     0.217 HD
ENDBRANCH  17  21
ENDBRANCH  12  14
ENDBRANCH   1  12
BRANCH   6  23
HETATM   23  N3  UNL     1      29.647  65.355   8.959  1.00  0.00    -0.362 N 
HETATM   24  C5  UNL     1      30.706  64.951   9.891  1.00  0.00     0.127 C 
HETATM   25  C6  UNL     1      32.008  65.137   9.195  1.00  0.00     0.054 C 
HETATM   26  C7  UNL     1      31.700  65.757   7.860  1.00  0.00     0.203 C 
HETATM   27  C8  UNL     1      30.224  65.657   7.681  1.00  0.00     0.157 C 
BRANCH  26  28
HETATM   28  N4  UNL     1      32.428  65.018   6.816  1.00  0.00    -0.073 N 
ATOM     29  H43 UNL     1      32.710  65.617   6.039  1.00  0.00     0.274 HD
ATOM     30  H42 UNL     1      33.359  64.731   7.118  1.00  0.00     0.274 HD
ATOM     31  H41 UNL     1      31.856  64.230   6.512  1.00  0.00     0.274 HD
ENDBRANCH  26  28
ENDBRANCH   6  23
BRANCH   9  32
HETATM   32  N5  UNL     1      25.059  64.566   8.231  1.00  0.00    -0.382 N 
ATOM     33  H52 UNL     1      24.573  63.680   8.369  1.00  0.00     0.157 HD
ATOM     34  H51 UNL     1      24.788  65.177   7.461  1.00  0.00     0.157 HD
ENDBRANCH   9  32
TORSDOF 6
ENDMDL
MODEL 4
REMARK VINA RESULT: -7.181412625      1.810      2.390
REMARK  6 active torsions:
REMARK  status: ('A' for Active; 'I' for Inactive)
REMARK    1  A    between atoms: C2_2  and  N1_3 
REMARK    2  A    between atoms: C2_2  and  C11_26 
REMARK    3  A    between atoms: C4_8  and  N3_9 
REMARK    4  A    between atoms: C7_12  and  N4_13 
REMARK    5  A    between atoms: C10_20  and  N5_21 
REMARK    6  A    between atoms: C13_29  and  O1_30 
ROOT
HETATM    1  N1  UNL     1      29.007  65.578  14.861  1.00  0.00    -0.216 N 
ATOM      2  H1  UNL     1      29.386  66.430  14.449  1.00  0.00     0.178 HD
HETATM    3  C3  UNL     1      28.734  64.698  14.013  1.00  0.00     0.682 A 
HETATM    4  N2  UNL     1      28.991  65.011  12.701  1.00  0.00    -0.174 N 
ATOM      5  H2  UNL     1      29.383  65.927  12.483  1.00  0.00     0.186 HD
HETATM    6  C4  UNL     1      28.746  64.160  11.698  1.00  0.00     0.162 A 
HETATM    7  C9  UNL     1      28.212  62.904  11.957  1.00  0.00     0.204 A 
HETATM    8  F1  UNL     1      27.985  62.084  10.900  1.00  0.00    -0.198 F 
HETATM    9  C10 UNL     1      27.951  62.584  13.268  1.00  0.00     0.157 A 
HETATM   10  N6  UNL     1      28.222  63.489  14.253  1.00  0.00    -0.174 N 
ATOM     11  H6  UNL     1      28.025  63.229  15.219  1.00  0.00     0.186 HD
ENDROOT
BRANCH   1  12
HETATM   12  C2  UNL     1      28.901  65.638  16.258  1.00  0.00     0.147 C 
HETATM   13  C1  UNL     1      27.609  66.164  16.739  1.00  0.00     0.039 C 
BRANCH  12  14
HETATM   14  C11 UNL     1      30.125  66.236  16.864  1.00  0.00     0.061 A 
HETATM   15  C12 UNL     1      30.784  67.341  16.290  1.00  0.00     0.105 A 
HETATM   16  N7  UNL     1      30.386  68.112  15.154  1.00  0.00    -0.097 NA
HETATM   17  C13 UNL     1      31.911  67.589  17.044  1.00  0.00     0.107 A 
HETATM   18  C14 UNL     1      31.904  66.641  18.037  1.00  0.00     0.129 A 
HETATM   19  N8  UNL     1      30.836  65.840  17.920  1.00  0.00    -0.358 N 
HETATM   20  C15 UNL     1      30.560  64.704  18.788  1.00  0.00     0.155 C 
BRANCH  17  21
HETATM   21  O1  UNL     1      32.886  68.591  16.867  1.00  0.00    -0.357 OA
ATOM     22  H1  UNL     1      32.870  69.494  17.160  1.00  0.00     0.217 HD
ENDBRANCH  17  21
ENDBRANCH  12  14
ENDBRANCH   1  12
BRANCH   6  23
HETATM   23  N3  UNL     1      29.066  64.524  10.365  1.00  0.00    -0.362 N 
HETATM   24  C5  UNL     1      28.013  65.014   9.470  1.00  0.00     0.127 C 
HETATM   25  C6  UNL     1      28.621  65.200   8.124  1.00  0.00     0.054 C 
HETATM   26  C7  UNL     1      30.041  64.713   8.221  1.00  0.00     0.203 C 
HETATM   27  C8  UNL     1      30.322  64.523   9.672  1.00  0.00     0.157 C 
BRANCH  26  28
HETATM   28  N4  UNL     1      30.930  65.720   7.620  1.00  0.00    -0.073 N 
ATOM     29  H43 UNL     1      31.485  65.342   6.853  1.00  0.00     0.274 HD
ATOM     30  H42 UNL     1      30.417  66.425   7.089  1.00  0.00     0.274 HD
ATOM     31  H41 UNL     1      31.507  66.130   8.355  1.00  0.00     0.274 HD
ENDBRANCH  26  28
ENDBRANCH   6  23
BRANCH   9  32
HETATM   32  N5  UNL     1      27.438  61.432  13.526  1.00  0.00    -0.382 N 
ATOM     33  H52 UNL     1      27.072  60.829  12.789  1.00  0.00     0.157 HD
ATOM     34  H51 UNL     1      27.414  61.118  14.496  1.00  0.00     0.157 HD
ENDBRANCH   9  32
TORSDOF 6
ENDMDL
MODEL 5
REMARK VINA RESULT: -7.176600747      0.991      1.773
REMARK  6 active torsions:
REMARK  status: ('A' for Active; 'I' for Inactive)
REMARK    1  A    between atoms: C2_2  and  N1_3 
REMARK    2  A    between atoms: C2_2  and  C11_26 
REMARK    3  A    between atoms: C4_8  and  N3_9 
REMARK    4  A    between atoms: C7_12  and  N4_13 
REMARK    5  A    between atoms: C10_20  and  N5_21 
REMARK    6  A    between atoms: C13_29  and  O1_30 
ROOT
HETATM    1  N1  UNL     1      28.379  66.297  14.466  1.00  0.00    -0.216 N 
ATOM      2  H1  UNL     1      28.942  67.094  14.168  1.00  0.00     0.178 HD
HETATM    3  C3  UNL     1      28.328  65.382  13.613  1.00  0.00     0.682 A 
HETATM    4  N2  UNL     1      29.027  65.590  12.449  1.00  0.00    -0.174 N 
ATOM      5  H2  UNL     1      29.544  66.461  12.336  1.00  0.00     0.186 HD
HETATM    6  C4  UNL     1      29.056  64.690  11.458  1.00  0.00     0.162 A 
HETATM    7  C9  UNL     1      28.364  63.492  11.577  1.00  0.00     0.204 A 
HETATM    8  F1  UNL     1      28.429  62.619  10.540  1.00  0.00    -0.198 F 
HETATM    9  C10 UNL     1      27.660  63.278  12.738  1.00  0.00     0.157 A 
HETATM   10  N6  UNL     1      27.667  64.227  13.719  1.00  0.00    -0.174 N 
ATOM     11  H6  UNL     1      27.142  64.046  14.574  1.00  0.00     0.186 HD
ENDROOT
BRANCH   1  12
HETATM   12  C2  UNL     1      27.826  66.457  15.744  1.00  0.00     0.147 C 
HETATM   13  C1  UNL     1      27.079  67.718  15.920  1.00  0.00     0.039 C 
BRANCH  12  14
HETATM   14  C11 UNL     1      28.818  66.123  16.805  1.00  0.00     0.061 A 
HETATM   15  C12 UNL     1      30.169  66.513  16.720  1.00  0.00     0.105 A 
HETATM   16  N7  UNL     1      30.790  67.329  15.723  1.00  0.00    -0.097 NA
HETATM   17  C13 UNL     1      30.825  65.981  17.809  1.00  0.00     0.107 A 
HETATM   18  C14 UNL     1      29.867  65.293  18.513  1.00  0.00     0.129 A 
HETATM   19  N8  UNL     1      28.676  65.384  17.905  1.00  0.00    -0.358 N 
HETATM   20  C15 UNL     1      27.462  64.727  18.370  1.00  0.00     0.155 C 
BRANCH  17  21
HETATM   21  O1  UNL     1      32.184  66.096  18.162  1.00  0.00    -0.357 OA
ATOM     22  H1  UNL     1      32.571  66.568  18.889  1.00  0.00     0.217 HD
ENDBRANCH  17  21
ENDBRANCH  12  14
ENDBRANCH   1  12
BRANCH   6  23
HETATM   23  N3  UNL     1      29.825  64.944  10.294  1.00  0.00    -0.362 N 
HETATM   24  C5  UNL     1      29.180  65.501   9.100  1.00  0.00     0.127 C 
HETATM   25  C6  UNL     1      30.202  65.543   8.019  1.00  0.00     0.054 C 
HETATM   26  C7  UNL     1      31.446  64.904   8.575  1.00  0.00     0.203 C 
HETATM   27  C8  UNL     1      31.225  64.762  10.041  1.00  0.00     0.157 C 
BRANCH  26  28
HETATM   28  N4  UNL     1      32.597  65.770   8.277  1.00  0.00    -0.073 N 
ATOM     29  H43 UNL     1      32.360  66.525   7.634  1.00  0.00     0.274 HD
ATOM     30  H42 UNL     1      32.871  66.344   9.075  1.00  0.00     0.274 HD
ATOM     31  H41 UNL     1      33.364  65.191   7.933  1.00  0.00     0.274 HD
ENDBRANCH  26  28
ENDBRANCH   6  23
BRANCH   9  32
HETATM   32  N5  UNL     1      26.997  62.182  12.859  1.00  0.00    -0.382 N 
ATOM     33  H52 UNL     1      27.209  61.503  13.589  1.00  0.00     0.157 HD
ATOM     34  H51 UNL     1      26.233  62.003  12.208  1.00  0.00     0.157 HD
ENDBRANCH   9  32
TORSDOF 6
ENDMDL
