MODEL 1
REMARK VINA RESULT: -8.560589655      0.000      0.000
REMARK  5 active torsions:
REMARK  status: ('A' for Active; 'I' for Inactive)
REMARK    1  A    between atoms: C2_4  and  C3_5 
REMARK    2  A    between atoms: C2_4  and  C9_26 
REMARK    3  A    between atoms: C6_15  and  N5_16 
REMARK    4  A    between atoms: C7_21  and  N7_22 
REMARK    5  A    between atoms: C9_26  and  C10_28 
ROOT
HETATM    1  C3  UNL     1      28.313  64.497  10.578  1.00  0.00     0.081 A 
HETATM    2  N2  UNL     1      26.957  64.699  10.299  1.00  0.00    -0.330 N 
ATOM      3  H2  UNL     1      26.312  64.522  11.068  1.00  0.00     0.168 HD
HETATM    4  C4  UNL     1      26.416  65.085   9.183  1.00  0.00     0.181 A 
HETATM    5 CL1  UNL     1      24.641  65.278   9.044  1.00  0.00    -0.045 Cl
HETATM    6  N3  UNL     1      27.186  65.341   8.120  1.00  0.00    -0.317 N 
ATOM      7  H3  UNL     1      26.788  65.636   7.229  1.00  0.00     0.170 HD
HETATM    8  C5  UNL     1      28.510  65.190   8.287  1.00  0.00     0.139 A 
HETATM    9  N4  UNL     1      29.331  65.567   7.282  1.00  0.00    -0.176 N 
ATOM     10  H4  UNL     1      28.914  65.855   6.398  1.00  0.00     0.186 HD
HETATM   11  C6  UNL     1      30.676  65.581   7.392  1.00  0.00     0.679 A 
HETATM   12  N6  UNL     1      31.229  65.208   8.555  1.00  0.00    -0.176 N 
ATOM     13  H6  UNL     1      32.245  65.220   8.654  1.00  0.00     0.186 HD
HETATM   14  C7  UNL     1      30.461  64.814   9.606  1.00  0.00     0.131 A 
HETATM   15  C8  UNL     1      29.094  64.781   9.490  1.00  0.00     0.082 A 
ENDROOT
BRANCH   1  16
HETATM   16  C2  UNL     1      28.634  64.113  11.901  1.00  0.00     0.084 C 
HETATM   17  N1  UNL     1      28.866  65.106  12.761  1.00  0.00    -0.391 N 
HETATM   18  C1  UNL     1      28.860  66.484  12.624  1.00  0.00     0.146 C 
ATOM     19  H1  UNL     1      29.091  64.788  13.704  1.00  0.00     0.159 HD
BRANCH  16  20
HETATM   20  C9  UNL     1      28.199  62.977  12.717  1.00  0.00     0.118 C 
HETATM   21  N8  UNL     1      27.849  61.839  11.766  1.00  0.00    -0.096 NA
BRANCH  20  22
HETATM   22  C10 UNL     1      27.272  62.836  13.769  1.00  0.00     0.123 C 
HETATM   23  N9  UNL     1      27.496  63.192  14.997  1.00  0.00    -0.375 N 
HETATM   24  C11 UNL     1      26.500  63.017  16.022  1.00  0.00     0.123 C 
ATOM     25  H9  UNL     1      28.396  63.606  15.240  1.00  0.00     0.161 HD
HETATM   26  C12 UNL     1      25.194  63.583  15.463  1.00  0.00     0.039 C 
HETATM   27  C13 UNL     1      24.799  62.684  14.331  1.00  0.00     0.123 C 
HETATM   28  N10 UNL     1      25.946  62.314  13.540  1.00  0.00    -0.375 N 
ATOM     29  H10 UNL     1      25.813  61.648  12.778  1.00  0.00     0.161 HD
ENDBRANCH  20  22
ENDBRANCH  16  20
ENDBRANCH   1  16
BRANCH  14  30
HETATM   30  N7  UNL     1      31.022  64.724  10.750  1.00  0.00    -0.384 N 
ATOM     31  H72 UNL     1      31.323  63.819  11.114  1.00  0.00     0.157 HD
ATOM     32  H71 UNL     1      30.979  65.537  11.364  1.00  0.00     0.157 HD
ENDBRANCH  14  30
BRANCH  11  33
HETATM   33  N5  UNL     1      31.358  65.953   6.371  1.00  0.00    -0.234 N 
ATOM     34  H52 UNL     1      31.062  65.792   5.408  1.00  0.00     0.174 HD
ATOM     35  H51 UNL     1      32.243  66.433   6.536  1.00  0.00     0.174 HD
ENDBRANCH  11  33
TORSDOF 5
ENDMDL
MODEL 2
REMARK VINA RESULT: -8.027441294      2.319      6.936
REMARK  5 active torsions:
REMARK  status: ('A' for Active; 'I' for Inactive)
REMARK    1  A    between atoms: C2_4  and  C3_5 
REMARK    2  A    between atoms: C2_4  and  C9_26 
REMARK    3  A    between atoms: C6_15  and  N5_16 
REMARK    4  A    between atoms: C7_21  and  N7_22 
REMARK    5  A    between atoms: C9_26  and  C10_28 
ROOT
HETATM    1  C3  UNL     1      28.140  65.133  12.684  1.00  0.00     0.081 A 
HETATM    2  N2  UNL     1      29.050  66.147  13.005  1.00  0.00    -0.330 N 
ATOM      3  H2  UNL     1      29.385  66.710  12.223  1.00  0.00     0.168 HD
HETATM    4  C4  UNL     1      29.523  66.461  14.173  1.00  0.00     0.181 A 
HETATM    5 CL1  UNL     1      30.691  67.806  14.356  1.00  0.00    -0.045 Cl
HETATM    6  N3  UNL     1      29.139  65.777  15.255  1.00  0.00    -0.317 N 
ATOM      7  H3  UNL     1      29.501  65.996  16.183  1.00  0.00     0.170 HD
HETATM    8  C5  UNL     1      28.253  64.787  15.058  1.00  0.00     0.139 A 
HETATM    9  N4  UNL     1      27.738  64.161  16.138  1.00  0.00    -0.176 N 
ATOM     10  H4  UNL     1      28.115  64.391  17.057  1.00  0.00     0.186 HD
HETATM   11  C6  UNL     1      26.748  63.247  16.062  1.00  0.00     0.679 A 
HETATM   12  N6  UNL     1      26.244  62.945  14.856  1.00  0.00    -0.176 N 
ATOM     13  H6  UNL     1      25.491  62.260  14.784  1.00  0.00     0.186 HD
HETATM   14  C7  UNL     1      26.719  63.537  13.727  1.00  0.00     0.131 A 
HETATM   15  C8  UNL     1      27.739  64.452  13.801  1.00  0.00     0.082 A 
ENDROOT
BRANCH   1  16
HETATM   16  C2  UNL     1      27.759  65.036  11.325  1.00  0.00     0.084 C 
HETATM   17  N1  UNL     1      26.921  65.973  10.881  1.00  0.00    -0.391 N 
HETATM   18  C1  UNL     1      26.322  67.061  11.495  1.00  0.00     0.146 C 
ATOM     19  H1  UNL     1      26.672  65.869   9.897  1.00  0.00     0.159 HD
BRANCH  16  20
HETATM   20  C9  UNL     1      28.482  64.560  10.144  1.00  0.00     0.118 C 
HETATM   21  N8  UNL     1      28.938  63.134  10.429  1.00  0.00    -0.096 NA
BRANCH  20  22
HETATM   22  C10 UNL     1      29.525  65.097   9.362  1.00  0.00     0.123 C 
HETATM   23  N9  UNL     1      30.788  64.937   9.615  1.00  0.00    -0.375 N 
HETATM   24  C11 UNL     1      31.801  65.517   8.772  1.00  0.00     0.123 C 
ATOM     25  H9  UNL     1      31.068  64.388  10.428  1.00  0.00     0.161 HD
HETATM   26  C12 UNL     1      31.428  65.158   7.333  1.00  0.00     0.039 C 
HETATM   27  C13 UNL     1      30.157  65.893   7.034  1.00  0.00     0.123 C 
HETATM   28  N10 UNL     1      29.256  65.846   8.158  1.00  0.00    -0.375 N 
ATOM     29  H10 UNL     1      28.382  66.370   8.100  1.00  0.00     0.161 HD
ENDBRANCH  20  22
ENDBRANCH  16  20
ENDBRANCH   1  16
BRANCH  14  30
HETATM   30  N7  UNL     1      26.034  63.406  12.656  1.00  0.00    -0.384 N 
ATOM     31  H72 UNL     1      26.441  63.626  11.747  1.00  0.00     0.157 HD
ATOM     32  H71 UNL     1      25.028  63.271  12.752  1.00  0.00     0.157 HD
ENDBRANCH  14  30
BRANCH  11  33
HETATM   33  N5  UNL     1      26.339  62.711  17.154  1.00  0.00    -0.234 N 
ATOM     34  H52 UNL     1      26.628  61.786  17.469  1.00  0.00     0.174 HD
ATOM     35  H51 UNL     1      25.690  63.243  17.733  1.00  0.00     0.174 HD
ENDBRANCH  11  33
TORSDOF 5
ENDMDL
MODEL 3
REMARK VINA RESULT: -8.002885977      2.256      6.874
REMARK  5 active torsions:
REMARK  status: ('A' for Active; 'I' for Inactive)
REMARK    1  A    between atoms: C2_4  and  C3_5 
REMARK    2  A    between atoms: C2_4  and  C9_26 
REMARK    3  A    between atoms: C6_15  and  N5_16 
REMARK    4  A    between atoms: C7_21  and  N7_22 
REMARK    5  A    between atoms: C9_26  and  C10_28 
ROOT
HETATM    1  C3  UNL     1      27.399  64.273  12.249  1.00  0.00     0.081 A 
HETATM    2  N2  UNL     1      28.244  64.675  13.290  1.00  0.00    -0.330 N 
ATOM      3  H2  UNL     1      29.004  65.303  13.030  1.00  0.00     0.168 HD
HETATM    4  C4  UNL     1      28.182  64.349  14.546  1.00  0.00     0.181 A 
HETATM    5 CL1  UNL     1      29.380  64.982  15.717  1.00  0.00    -0.045 Cl
HETATM    6  N3  UNL     1      27.217  63.530  14.976  1.00  0.00    -0.317 N 
ATOM      7  H3  UNL     1      27.149  63.250  15.955  1.00  0.00     0.170 HD
HETATM    8  C5  UNL     1      26.341  63.096  14.055  1.00  0.00     0.139 A 
HETATM    9  N4  UNL     1      25.275  62.378  14.471  1.00  0.00    -0.176 N 
ATOM     10  H4  UNL     1      25.227  62.105  15.452  1.00  0.00     0.186 HD
HETATM   11  C6  UNL     1      24.269  62.005  13.652  1.00  0.00     0.679 A 
HETATM   12  N6  UNL     1      24.324  62.368  12.362  1.00  0.00    -0.176 N 
ATOM     13  H6  UNL     1      23.567  62.098  11.733  1.00  0.00     0.186 HD
HETATM   14  C7  UNL     1      25.371  63.088  11.878  1.00  0.00     0.131 A 
HETATM   15  C8  UNL     1      26.404  63.452  12.704  1.00  0.00     0.082 A 
ENDROOT
BRANCH   1  16
HETATM   16  C2  UNL     1      27.671  64.817  10.972  1.00  0.00     0.084 C 
HETATM   17  N1  UNL     1      27.618  66.145  10.875  1.00  0.00    -0.391 N 
HETATM   18  C1  UNL     1      27.341  67.142  11.797  1.00  0.00     0.146 C 
ATOM     19  H1  UNL     1      27.822  66.497   9.939  1.00  0.00     0.159 HD
BRANCH  16  20
HETATM   20  C9  UNL     1      28.564  64.377   9.898  1.00  0.00     0.118 C 
HETATM   21  N8  UNL     1      29.111  63.009  10.288  1.00  0.00    -0.096 NA
BRANCH  20  22
HETATM   22  C10 UNL     1      29.638  64.987   9.217  1.00  0.00     0.123 C 
HETATM   23  N9  UNL     1      30.889  64.815   9.518  1.00  0.00    -0.375 N 
HETATM   24  C11 UNL     1      31.935  65.473   8.779  1.00  0.00     0.123 C 
ATOM     25  H9  UNL     1      31.135  64.201  10.295  1.00  0.00     0.161 HD
HETATM   26  C12 UNL     1      31.637  65.236   7.298  1.00  0.00     0.039 C 
HETATM   27  C13 UNL     1      30.373  65.984   7.000  1.00  0.00     0.123 C 
HETATM   28  N10 UNL     1      29.419  65.834   8.070  1.00  0.00    -0.375 N 
ATOM     29  H10 UNL     1      28.543  66.354   8.012  1.00  0.00     0.161 HD
ENDBRANCH  20  22
ENDBRANCH  16  20
ENDBRANCH   1  16
BRANCH  14  30
HETATM   30  N7  UNL     1      25.241  63.618  10.721  1.00  0.00    -0.384 N 
ATOM     31  H72 UNL     1      25.113  64.625  10.621  1.00  0.00     0.157 HD
ATOM     32  H71 UNL     1      25.070  62.996   9.932  1.00  0.00     0.157 HD
ENDBRANCH  14  30
BRANCH  11  33
HETATM   33  N5  UNL     1      23.307  61.320  14.154  1.00  0.00    -0.234 N 
ATOM     34  H52 UNL     1      22.835  60.566  13.656  1.00  0.00     0.174 HD
ATOM     35  H51 UNL     1      23.003  61.545  15.101  1.00  0.00     0.174 HD
ENDBRANCH  11  33
TORSDOF 5
ENDMDL
MODEL 4
REMARK VINA RESULT: -7.918330167      1.747      6.721
REMARK  5 active torsions:
REMARK  status: ('A' for Active; 'I' for Inactive)
REMARK    1  A    between atoms: C2_4  and  C3_5 
REMARK    2  A    between atoms: C2_4  and  C9_26 
REMARK    3  A    between atoms: C6_15  and  N5_16 
REMARK    4  A    between atoms: C7_21  and  N7_22 
REMARK    5  A    between atoms: C9_26  and  C10_28 
ROOT
HETATM    1  C3  UNL     1      27.150  64.205  12.356  1.00  0.00     0.081 A 
HETATM    2  N2  UNL     1      25.990  64.537  11.648  1.00  0.00    -0.330 N 
ATOM      3  H2  UNL     1      26.101  64.659  10.642  1.00  0.00     0.168 HD
HETATM    4  C4  UNL     1      24.789  64.710  12.111  1.00  0.00     0.181 A 
HETATM    5 CL1  UNL     1      23.438  65.138  11.017  1.00  0.00    -0.045 Cl
HETATM    6  N3  UNL     1      24.550  64.570  13.419  1.00  0.00    -0.317 N 
ATOM      7  H3  UNL     1      23.619  64.708  13.812  1.00  0.00     0.170 HD
HETATM    8  C5  UNL     1      25.599  64.237  14.189  1.00  0.00     0.139 A 
HETATM    9  N4  UNL     1      25.376  63.954  15.491  1.00  0.00    -0.176 N 
ATOM     10  H4  UNL     1      24.439  64.103  15.866  1.00  0.00     0.186 HD
HETATM   11  C6  UNL     1      26.331  63.485  16.321  1.00  0.00     0.679 A 
HETATM   12  N6  UNL     1      27.564  63.282  15.831  1.00  0.00    -0.176 N 
ATOM     13  H6  UNL     1      28.294  62.922  16.446  1.00  0.00     0.186 HD
HETATM   14  C7  UNL     1      27.856  63.549  14.531  1.00  0.00     0.131 A 
HETATM   15  C8  UNL     1      26.892  64.045  13.690  1.00  0.00     0.082 A 
ENDROOT
BRANCH   1  16
HETATM   16  C2  UNL     1      28.328  64.036  11.591  1.00  0.00     0.084 C 
HETATM   17  N1  UNL     1      28.449  62.875  10.947  1.00  0.00    -0.391 N 
HETATM   18  C1  UNL     1      27.632  61.758  10.869  1.00  0.00     0.146 C 
ATOM     19  H1  UNL     1      29.310  62.793  10.406  1.00  0.00     0.159 HD
BRANCH  16  20
HETATM   20  C9  UNL     1      29.147  64.991  10.841  1.00  0.00     0.118 C 
HETATM   21  N8  UNL     1      28.359  66.292  10.744  1.00  0.00    -0.096 NA
BRANCH  20  22
HETATM   22  C10 UNL     1      29.838  64.923   9.615  1.00  0.00     0.123 C 
HETATM   23  N9  UNL     1      29.266  64.938   8.449  1.00  0.00    -0.375 N 
HETATM   24  C11 UNL     1      30.037  64.865   7.235  1.00  0.00     0.123 C 
ATOM     25  H9  UNL     1      28.250  65.004   8.393  1.00  0.00     0.161 HD
HETATM   26  C12 UNL     1      31.157  65.898   7.367  1.00  0.00     0.039 C 
HETATM   27  C13 UNL     1      32.051  65.409   8.466  1.00  0.00     0.123 C 
HETATM   28  N10 UNL     1      31.280  64.881   9.563  1.00  0.00    -0.375 N 
ATOM     29  H10 UNL     1      31.779  64.455  10.344  1.00  0.00     0.161 HD
ENDBRANCH  20  22
ENDBRANCH  16  20
ENDBRANCH   1  16
BRANCH  14  30
HETATM   30  N7  UNL     1      28.958  63.097  14.066  1.00  0.00    -0.384 N 
ATOM     31  H72 UNL     1      29.178  62.102  14.122  1.00  0.00     0.157 HD
ATOM     32  H71 UNL     1      29.683  63.773  13.826  1.00  0.00     0.157 HD
ENDBRANCH  14  30
BRANCH  11  33
HETATM   33  N5  UNL     1      26.008  63.255  17.541  1.00  0.00    -0.234 N 
ATOM     34  H52 UNL     1      25.616  62.370  17.861  1.00  0.00     0.174 HD
ATOM     35  H51 UNL     1      26.153  64.000  18.223  1.00  0.00     0.174 HD
ENDBRANCH  11  33
TORSDOF 5
ENDMDL
MODEL 5
REMARK VINA RESULT: -7.826239500      2.746      4.427
REMARK  5 active torsions:
REMARK  status: ('A' for Active; 'I' for Inactive)
REMARK    1  A    between atoms: C2_4  and  C3_5 
REMARK    2  A    between atoms: C2_4  and  C9_26 
REMARK    3  A    between atoms: C6_15  and  N5_16 
REMARK    4  A    between atoms: C7_21  and  N7_22 
REMARK    5  A    between atoms: C9_26  and  C10_28 
ROOT
HETATM    1  C3  UNL     1      26.426  63.231  11.456  1.00  0.00     0.081 A 
HETATM    2  N2  UNL     1      26.007  64.565  11.389  1.00  0.00    -0.330 N 
ATOM      3  H2  UNL     1      26.557  65.232  11.928  1.00  0.00     0.168 HD
HETATM    4  C4  UNL     1      25.005  65.059  10.727  1.00  0.00     0.181 A 
HETATM    5 CL1  UNL     1      24.644  66.812  10.785  1.00  0.00    -0.045 Cl
HETATM    6  N3  UNL     1      24.229  64.257   9.991  1.00  0.00    -0.317 N 
ATOM      7  H3  UNL     1      23.430  64.616   9.468  1.00  0.00     0.170 HD
HETATM    8  C5  UNL     1      24.555  62.954   9.977  1.00  0.00     0.139 A 
HETATM    9  N4  UNL     1      23.880  62.133   9.142  1.00  0.00    -0.176 N 
ATOM     10  H4  UNL     1      23.083  62.510   8.631  1.00  0.00     0.186 HD
HETATM   11  C6  UNL     1      24.210  60.838   8.951  1.00  0.00     0.679 A 
HETATM   12  N6  UNL     1      25.262  60.339   9.617  1.00  0.00    -0.176 N 
ATOM     13  H6  UNL     1      25.527  59.363   9.478  1.00  0.00     0.186 HD
HETATM   14  C7  UNL     1      25.982  61.110  10.475  1.00  0.00     0.131 A 
HETATM   15  C8  UNL     1      25.637  62.421  10.685  1.00  0.00     0.082 A 
ENDROOT
BRANCH   1  16
HETATM   16  C2  UNL     1      27.584  62.972  12.226  1.00  0.00     0.084 C 
HETATM   17  N1  UNL     1      28.719  63.511  11.779  1.00  0.00    -0.391 N 
HETATM   18  C1  UNL     1      29.012  64.299  10.678  1.00  0.00     0.146 C 
ATOM     19  H1  UNL     1      29.530  63.303  12.363  1.00  0.00     0.159 HD
BRANCH  16  20
HETATM   20  C9  UNL     1      27.774  62.788  13.666  1.00  0.00     0.118 C 
HETATM   21  N8  UNL     1      27.641  61.298  13.959  1.00  0.00    -0.096 NA
BRANCH  20  22
HETATM   22  C10 UNL     1      27.218  63.406  14.805  1.00  0.00     0.123 C 
HETATM   23  N9  UNL     1      26.860  62.774  15.881  1.00  0.00    -0.375 N 
HETATM   24  C11 UNL     1      26.297  63.471  17.008  1.00  0.00     0.123 C 
ATOM     25  H9  UNL     1      26.979  61.762  15.927  1.00  0.00     0.161 HD
HETATM   26  C12 UNL     1      27.219  64.658  17.290  1.00  0.00     0.039 C 
HETATM   27  C13 UNL     1      27.090  65.578  16.115  1.00  0.00     0.123 C 
HETATM   28  N10 UNL     1      27.050  64.838  14.880  1.00  0.00    -0.375 N 
ATOM     29  H10 UNL     1      26.895  65.352  14.012  1.00  0.00     0.161 HD
ENDBRANCH  20  22
ENDBRANCH  16  20
ENDBRANCH   1  16
BRANCH  14  30
HETATM   30  N7  UNL     1      27.111  60.660  10.873  1.00  0.00    -0.384 N 
ATOM     31  H72 UNL     1      27.228  59.671  11.096  1.00  0.00     0.157 HD
ATOM     32  H71 UNL     1      27.820  61.338  11.149  1.00  0.00     0.157 HD
ENDBRANCH  14  30
BRANCH  11  33
HETATM   33  N5  UNL     1      23.496  60.149   8.138  1.00  0.00    -0.234 N 
ATOM     34  H52 UNL     1      23.490  60.300   7.129  1.00  0.00     0.174 HD
ATOM     35  H51 UNL     1      22.905  59.414   8.525  1.00  0.00     0.174 HD
ENDBRANCH  11  33
TORSDOF 5
ENDMDL
