MODEL 1
REMARK VINA RESULT: -6.601091161      0.000      0.000
REMARK  6 active torsions:
REMARK  status: ('A' for Active; 'I' for Inactive)
REMARK       I    between atoms: C2_2  and  N1_4 
REMARK    1  A    between atoms: N1_4  and  C3_6 
REMARK    2  A    between atoms: C3_6  and  C4_7 
REMARK    3  A    between atoms: C3_6  and  C6_10 
REMARK       I    between atoms: C6_10  and  N2_12 
REMARK    4  A    between atoms: N2_12  and  C7_14 
REMARK    5  A    between atoms: C9_18  and  O4_19 
REMARK    6  A    between atoms: C9_18  and  N4_21 
ROOT
HETATM    1  N4  UNL     1      37.243  -0.431  12.219  1.00  0.00    -0.266 N 
HETATM    2  C10 UNL     1      38.689  -0.472  12.179  1.00  0.00     0.171 C 
HETATM    3  C11 UNL     1      36.683   0.778  12.788  1.00  0.00     0.186 C 
HETATM    4  N5  UNL     1      36.268   1.747  13.267  1.00  0.00    -0.172 NA
ENDROOT
BRANCH   1   5
HETATM    5  C9  UNL     1      36.394  -1.410  11.774  1.00  0.00     0.198 C 
HETATM    6  C8  UNL     1      35.935  -2.555  12.519  1.00  0.00     0.188 A 
HETATM    7  N3  UNL     1      35.209  -3.597  11.899  1.00  0.00    -0.169 N 
HETATM    8  N6  UNL     1      36.123  -2.923  13.764  1.00  0.00    -0.267 N 
HETATM    9  C7  UNL     1      35.011  -4.548  12.822  1.00  0.00     0.701 A 
ATOM     10  H3  UNL     1      34.894  -3.622  10.929  1.00  0.00     0.186 HD
HETATM   11  N7  UNL     1      35.574  -4.113  13.951  1.00  0.00    -0.130 N 
ATOM     12  H7  UNL     1      35.581  -4.625  14.833  1.00  0.00     0.205 HD
ATOM     13  H6  UNL     1      36.614  -2.380  14.473  1.00  0.00     0.189 HD
BRANCH   9  14
HETATM   14  N2  UNL     1      34.380  -5.657  12.639  1.00  0.00    -0.156 N 
HETATM   15  C6  UNL     1      34.517  -6.540  11.533  1.00  0.00     0.266 C 
HETATM   16  O3  UNL     1      34.727  -5.921  10.452  1.00  0.00    -0.270 OA
ATOM     17  H2  UNL     1      33.714  -5.929  13.362  1.00  0.00     0.187 HD
BRANCH  15  18
HETATM   18  C3  UNL     1      34.398  -8.009  11.589  1.00  0.00     0.247 C 
BRANCH  18  19
HETATM   19  N1  UNL     1      35.708  -8.632  11.211  1.00  0.00    -0.342 N 
HETATM   20  C2  UNL     1      36.072  -9.037   9.953  1.00  0.00     0.214 C 
HETATM   21  C1  UNL     1      37.398  -9.675   9.637  1.00  0.00     0.117 C 
HETATM   22  O1  UNL     1      35.292  -8.893   8.948  1.00  0.00    -0.274 OA
ATOM     23  H1  UNL     1      36.390  -8.767  11.957  1.00  0.00     0.163 HD
ENDBRANCH  18  19
BRANCH  18  24
HETATM   24  C4  UNL     1      34.347  -8.464  13.041  1.00  0.00     0.154 C 
HETATM   25  C5  UNL     1      35.367  -9.212  13.733  1.00  0.00     0.093 C 
HETATM   26  O2  UNL     1      33.325  -8.157  13.671  1.00  0.00    -0.296 OA
ENDBRANCH  18  24
ENDBRANCH  15  18
ENDBRANCH   9  14
BRANCH   5  27
HETATM   27  O4  UNL     1      35.943  -1.335  10.550  1.00  0.00    -0.343 OA
ATOM     28  H4  UNL     1      36.608  -1.400   9.875  1.00  0.00     0.219 HD
ENDBRANCH   5  27
ENDBRANCH   1   5
TORSDOF 6
ENDMDL
MODEL 2
REMARK VINA RESULT: -6.506689249      1.757      2.023
REMARK  6 active torsions:
REMARK  status: ('A' for Active; 'I' for Inactive)
REMARK       I    between atoms: C2_2  and  N1_4 
REMARK    1  A    between atoms: N1_4  and  C3_6 
REMARK    2  A    between atoms: C3_6  and  C4_7 
REMARK    3  A    between atoms: C3_6  and  C6_10 
REMARK       I    between atoms: C6_10  and  N2_12 
REMARK    4  A    between atoms: N2_12  and  C7_14 
REMARK    5  A    between atoms: C9_18  and  O4_19 
REMARK    6  A    between atoms: C9_18  and  N4_21 
ROOT
HETATM    1  N4  UNL     1      38.010  -0.248  12.750  1.00  0.00    -0.266 N 
HETATM    2  C10 UNL     1      39.382  -0.203  12.294  1.00  0.00     0.171 C 
HETATM    3  C11 UNL     1      37.292   1.006  12.648  1.00  0.00     0.186 C 
HETATM    4  N5  UNL     1      36.753   2.028  12.573  1.00  0.00    -0.172 NA
ENDROOT
BRANCH   1   5
HETATM    5  C9  UNL     1      37.360  -1.346  13.250  1.00  0.00     0.198 C 
HETATM    6  C8  UNL     1      36.581  -2.301  12.502  1.00  0.00     0.188 A 
HETATM    7  N3  UNL     1      35.803  -3.288  13.146  1.00  0.00    -0.169 N 
HETATM    8  N6  UNL     1      36.351  -2.428  11.216  1.00  0.00    -0.267 N 
HETATM    9  C7  UNL     1      35.134  -3.952  12.195  1.00  0.00     0.701 A 
ATOM     10  H3  UNL     1      35.759  -3.463  14.150  1.00  0.00     0.186 HD
HETATM   11  N7  UNL     1      35.486  -3.412  11.027  1.00  0.00    -0.130 N 
ATOM     12  H7  UNL     1      35.138  -3.714  10.117  1.00  0.00     0.205 HD
ATOM     13  H6  UNL     1      36.770  -1.859  10.481  1.00  0.00     0.189 HD
BRANCH   9  14
HETATM   14  N2  UNL     1      34.321  -4.934  12.390  1.00  0.00    -0.156 N 
HETATM   15  C6  UNL     1      34.387  -6.224  11.794  1.00  0.00     0.266 C 
HETATM   16  O3  UNL     1      34.810  -6.178  10.604  1.00  0.00    -0.270 OA
ATOM     17  H2  UNL     1      33.552  -4.769  13.039  1.00  0.00     0.187 HD
BRANCH  15  18
HETATM   18  C3  UNL     1      33.984  -7.487  12.438  1.00  0.00     0.247 C 
BRANCH  18  19
HETATM   19  N1  UNL     1      34.581  -8.642  11.692  1.00  0.00    -0.342 N 
HETATM   20  C2  UNL     1      33.923  -9.784  11.319  1.00  0.00     0.214 C 
HETATM   21  C1  UNL     1      34.582 -10.922  10.585  1.00  0.00     0.117 C 
HETATM   22  O1  UNL     1      32.680  -9.958  11.574  1.00  0.00    -0.274 OA
ATOM     23  H1  UNL     1      35.567  -8.571  11.439  1.00  0.00     0.163 HD
ENDBRANCH  18  19
BRANCH  18  24
HETATM   24  C4  UNL     1      34.739  -7.657  13.749  1.00  0.00     0.154 C 
HETATM   25  C5  UNL     1      34.402  -8.573  14.811  1.00  0.00     0.093 C 
HETATM   26  O2  UNL     1      35.730  -6.930  13.904  1.00  0.00    -0.296 OA
ENDBRANCH  18  24
ENDBRANCH  15  18
ENDBRANCH   9  14
BRANCH   5  27
HETATM   27  O4  UNL     1      37.421  -1.575  14.535  1.00  0.00    -0.343 OA
ATOM     28  H4  UNL     1      38.301  -1.615  14.891  1.00  0.00     0.219 HD
ENDBRANCH   5  27
ENDBRANCH   1   5
TORSDOF 6
ENDMDL
MODEL 3
REMARK VINA RESULT: -6.461983616      1.682      1.997
REMARK  6 active torsions:
REMARK  status: ('A' for Active; 'I' for Inactive)
REMARK       I    between atoms: C2_2  and  N1_4 
REMARK    1  A    between atoms: N1_4  and  C3_6 
REMARK    2  A    between atoms: C3_6  and  C4_7 
REMARK    3  A    between atoms: C3_6  and  C6_10 
REMARK       I    between atoms: C6_10  and  N2_12 
REMARK    4  A    between atoms: N2_12  and  C7_14 
REMARK    5  A    between atoms: C9_18  and  O4_19 
REMARK    6  A    between atoms: C9_18  and  N4_21 
ROOT
HETATM    1  N4  UNL     1      38.705   0.367  12.446  1.00  0.00    -0.266 N 
HETATM    2  C10 UNL     1      40.090  -0.038  12.345  1.00  0.00     0.171 C 
HETATM    3  C11 UNL     1      38.500   1.743  12.849  1.00  0.00     0.186 C 
HETATM    4  N5  UNL     1      38.369   2.841  13.193  1.00  0.00    -0.172 NA
ENDROOT
BRANCH   1   5
HETATM    5  C9  UNL     1      37.613  -0.421  12.195  1.00  0.00     0.198 C 
HETATM    6  C8  UNL     1      37.066  -1.436  13.061  1.00  0.00     0.188 A 
HETATM    7  N3  UNL     1      36.050  -2.313  12.621  1.00  0.00    -0.169 N 
HETATM    8  N6  UNL     1      37.387  -1.817  14.275  1.00  0.00    -0.267 N 
HETATM    9  C7  UNL     1      35.825  -3.189  13.610  1.00  0.00     0.701 A 
ATOM     10  H3  UNL     1      35.575  -2.286  11.719  1.00  0.00     0.186 HD
HETATM   11  N7  UNL     1      36.649  -2.864  14.608  1.00  0.00    -0.130 N 
ATOM     12  H7  UNL     1      36.703  -3.354  15.501  1.00  0.00     0.205 HD
ATOM     13  H6  UNL     1      38.091  -1.377  14.866  1.00  0.00     0.189 HD
BRANCH   9  14
HETATM   14  N2  UNL     1      34.961  -4.146  13.588  1.00  0.00    -0.156 N 
HETATM   15  C6  UNL     1      34.713  -5.042  12.512  1.00  0.00     0.266 C 
HETATM   16  O3  UNL     1      34.841  -4.483  11.386  1.00  0.00    -0.270 OA
ATOM     17  H2  UNL     1      34.398  -4.273  14.429  1.00  0.00     0.187 HD
BRANCH  15  18
HETATM   18  C3  UNL     1      34.313  -6.455  12.648  1.00  0.00     0.247 C 
BRANCH  18  19
HETATM   19  N1  UNL     1      34.898  -7.251  11.521  1.00  0.00    -0.342 N 
HETATM   20  C2  UNL     1      34.381  -8.410  11.003  1.00  0.00     0.214 C 
HETATM   21  C1  UNL     1      35.025  -9.178   9.880  1.00  0.00     0.117 C 
HETATM   22  O1  UNL     1      33.296  -8.922  11.450  1.00  0.00    -0.274 OA
ATOM     23  H1  UNL     1      35.758  -6.899  11.102  1.00  0.00     0.163 HD
ENDBRANCH  18  19
BRANCH  18  24
HETATM   24  C4  UNL     1      35.082  -7.097  13.795  1.00  0.00     0.154 C 
HETATM   25  C5  UNL     1      34.607  -8.159  14.647  1.00  0.00     0.093 C 
HETATM   26  O2  UNL     1      36.219  -6.650  14.004  1.00  0.00    -0.296 OA
ENDBRANCH  18  24
ENDBRANCH  15  18
ENDBRANCH   9  14
BRANCH   5  27
HETATM   27  O4  UNL     1      36.983  -0.272  11.060  1.00  0.00    -0.343 OA
ATOM     28  H4  UNL     1      37.379   0.354  10.464  1.00  0.00     0.219 HD
ENDBRANCH   5  27
ENDBRANCH   1   5
TORSDOF 6
ENDMDL
MODEL 4
REMARK VINA RESULT: -6.398739788      2.639      8.665
REMARK  6 active torsions:
REMARK  status: ('A' for Active; 'I' for Inactive)
REMARK       I    between atoms: C2_2  and  N1_4 
REMARK    1  A    between atoms: N1_4  and  C3_6 
REMARK    2  A    between atoms: C3_6  and  C4_7 
REMARK    3  A    between atoms: C3_6  and  C6_10 
REMARK       I    between atoms: C6_10  and  N2_12 
REMARK    4  A    between atoms: N2_12  and  C7_14 
REMARK    5  A    between atoms: C9_18  and  O4_19 
REMARK    6  A    between atoms: C9_18  and  N4_21 
ROOT
HETATM    1  N4  UNL     1      34.746  -6.563  12.493  1.00  0.00    -0.266 N 
HETATM    2  C10 UNL     1      35.386  -7.773  12.024  1.00  0.00     0.171 C 
HETATM    3  C11 UNL     1      33.340  -6.450  12.163  1.00  0.00     0.186 C 
HETATM    4  N5  UNL     1      32.223  -6.380  11.866  1.00  0.00    -0.172 NA
ENDROOT
BRANCH   1   5
HETATM    5  C9  UNL     1      35.345  -5.554  13.201  1.00  0.00     0.198 C 
HETATM    6  C8  UNL     1      35.535  -4.192  12.767  1.00  0.00     0.188 A 
HETATM    7  N3  UNL     1      36.330  -3.286  13.504  1.00  0.00    -0.169 N 
HETATM    8  N6  UNL     1      35.154  -3.557  11.684  1.00  0.00    -0.267 N 
HETATM    9  C7  UNL     1      36.387  -2.145  12.803  1.00  0.00     0.701 A 
ATOM     10  H3  UNL     1      36.777  -3.466  14.402  1.00  0.00     0.186 HD
HETATM   11  N7  UNL     1      35.660  -2.334  11.700  1.00  0.00    -0.130 N 
ATOM     12  H7  UNL     1      35.515  -1.635  10.971  1.00  0.00     0.205 HD
ATOM     13  H6  UNL     1      34.562  -3.943  10.949  1.00  0.00     0.189 HD
BRANCH   9  14
HETATM   14  N2  UNL     1      37.016  -1.076  13.152  1.00  0.00    -0.156 N 
HETATM   15  C6  UNL     1      37.009   0.174  12.474  1.00  0.00     0.266 C 
HETATM   16  O3  UNL     1      36.956   0.036  11.219  1.00  0.00    -0.270 OA
ATOM     17  H2  UNL     1      37.575  -1.132  14.003  1.00  0.00     0.187 HD
BRANCH  15  18
HETATM   18  C3  UNL     1      37.092   1.499  13.117  1.00  0.00     0.247 C 
BRANCH  18  19
HETATM   19  N1  UNL     1      37.432   1.330  14.568  1.00  0.00    -0.342 N 
HETATM   20  C2  UNL     1      37.387   2.312  15.523  1.00  0.00     0.214 C 
HETATM   21  C1  UNL     1      37.759   2.087  16.964  1.00  0.00     0.117 C 
HETATM   22  O1  UNL     1      37.017   3.505  15.244  1.00  0.00    -0.274 OA
ATOM     23  H1  UNL     1      37.723   0.401  14.871  1.00  0.00     0.163 HD
ENDBRANCH  18  19
BRANCH  18  24
HETATM   24  C4  UNL     1      38.365   2.206  12.673  1.00  0.00     0.154 C 
HETATM   25  C5  UNL     1      39.707   1.690  12.784  1.00  0.00     0.093 C 
HETATM   26  O2  UNL     1      38.215   3.330  12.173  1.00  0.00    -0.296 OA
ENDBRANCH  18  24
ENDBRANCH  15  18
ENDBRANCH   9  14
BRANCH   5  27
HETATM   27  O4  UNL     1      35.813  -5.820  14.391  1.00  0.00    -0.343 OA
ATOM     28  H4  UNL     1      35.191  -5.703  15.100  1.00  0.00     0.219 HD
ENDBRANCH   5  27
ENDBRANCH   1   5
TORSDOF 6
ENDMDL
MODEL 5
REMARK VINA RESULT: -6.382083296      1.639      1.828
REMARK  6 active torsions:
REMARK  status: ('A' for Active; 'I' for Inactive)
REMARK       I    between atoms: C2_2  and  N1_4 
REMARK    1  A    between atoms: N1_4  and  C3_6 
REMARK    2  A    between atoms: C3_6  and  C4_7 
REMARK    3  A    between atoms: C3_6  and  C6_10 
REMARK       I    between atoms: C6_10  and  N2_12 
REMARK    4  A    between atoms: N2_12  and  C7_14 
REMARK    5  A    between atoms: C9_18  and  O4_19 
REMARK    6  A    between atoms: C9_18  and  N4_21 
ROOT
HETATM    1  N4  UNL     1      38.100   0.770  12.470  1.00  0.00    -0.266 N 
HETATM    2  C10 UNL     1      39.521   0.828  12.739  1.00  0.00     0.171 C 
HETATM    3  C11 UNL     1      37.413   2.043  12.544  1.00  0.00     0.186 C 
HETATM    4  N5  UNL     1      36.890   3.072  12.631  1.00  0.00    -0.172 NA
ENDROOT
BRANCH   1   5
HETATM    5  C9  UNL     1      37.382  -0.355  12.161  1.00  0.00     0.198 C 
HETATM    6  C8  UNL     1      37.008  -1.414  13.064  1.00  0.00     0.188 A 
HETATM    7  N3  UNL     1      36.428  -2.614  12.597  1.00  0.00    -0.169 N 
HETATM    8  N6  UNL     1      37.172  -1.560  14.358  1.00  0.00    -0.267 N 
HETATM    9  C7  UNL     1      36.285  -3.426  13.654  1.00  0.00     0.701 A 
ATOM     10  H3  UNL     1      36.166  -2.825  11.634  1.00  0.00     0.186 HD
HETATM   11  N7  UNL     1      36.742  -2.760  14.716  1.00  0.00    -0.130 N 
ATOM     12  H7  UNL     1      36.758  -3.124  15.669  1.00  0.00     0.205 HD
ATOM     13  H6  UNL     1      37.567  -0.861  14.987  1.00  0.00     0.189 HD
BRANCH   9  14
HETATM   14  N2  UNL     1      35.783  -4.613  13.630  1.00  0.00    -0.156 N 
HETATM   15  C6  UNL     1      35.148  -5.246  12.526  1.00  0.00     0.266 C 
HETATM   16  O3  UNL     1      34.486  -4.429  11.825  1.00  0.00    -0.270 OA
ATOM     17  H2  UNL     1      35.849  -5.154  14.492  1.00  0.00     0.187 HD
BRANCH  15  18
HETATM   18  C3  UNL     1      35.198  -6.687  12.220  1.00  0.00     0.247 C 
BRANCH  18  19
HETATM   19  N1  UNL     1      36.546  -7.230  12.586  1.00  0.00    -0.342 N 
HETATM   20  C2  UNL     1      37.302  -8.085  11.827  1.00  0.00     0.214 C 
HETATM   21  C1  UNL     1      38.644  -8.613  12.258  1.00  0.00     0.117 C 
HETATM   22  O1  UNL     1      36.906  -8.495  10.681  1.00  0.00    -0.274 OA
ATOM     23  H1  UNL     1      36.936  -6.937  13.482  1.00  0.00     0.163 HD
ENDBRANCH  18  19
BRANCH  18  24
HETATM   24  C4  UNL     1      34.366  -7.456  13.235  1.00  0.00     0.154 C 
HETATM   25  C5  UNL     1      34.876  -8.260  14.319  1.00  0.00     0.093 C 
HETATM   26  O2  UNL     1      33.136  -7.377  13.102  1.00  0.00    -0.296 OA
ENDBRANCH  18  24
ENDBRANCH  15  18
ENDBRANCH   9  14
BRANCH   5  27
HETATM   27  O4  UNL     1      36.987  -0.523  10.926  1.00  0.00    -0.343 OA
ATOM     28  H4  UNL     1      36.188  -0.063  10.698  1.00  0.00     0.219 HD
ENDBRANCH   5  27
ENDBRANCH   1   5
TORSDOF 6
ENDMDL
