MODEL 1
REMARK VINA RESULT: -6.557087390      0.000      0.000
REMARK  4 active torsions:
REMARK  status: ('A' for Active; 'I' for Inactive)
REMARK    1  A    between atoms: C2_2  and  S1_4 
REMARK    2  A    between atoms: S1_4  and  N1_7 
REMARK    3  A    between atoms: N4_17  and  N5_19 
REMARK       I    between atoms: N5_19  and  C7_21 
REMARK    4  A    between atoms: C7_21  and  C8_23 
ROOT
HETATM    1  N1  UNL     1      35.311  -5.493  13.853  1.00  0.00    -0.266 N 
ATOM      2  H1  UNL     1      35.785  -5.587  14.751  1.00  0.00     0.180 HD
HETATM    3  C4  UNL     1      35.381  -4.361  13.241  1.00  0.00     0.165 A 
HETATM    4  N2  UNL     1      34.795  -4.029  11.991  1.00  0.00    -0.291 N 
ATOM      5  H2  UNL     1      34.234  -4.638  11.394  1.00  0.00     0.172 HD
HETATM    6  C5  UNL     1      35.148  -2.676  11.739  1.00  0.00     0.327 A 
HETATM    7  O3  UNL     1      34.801  -2.022  10.701  1.00  0.00    -0.247 OA
HETATM    8  N3  UNL     1      35.937  -2.135  12.782  1.00  0.00    -0.290 N 
ATOM      9  H3  UNL     1      36.314  -1.189  12.834  1.00  0.00     0.172 HD
HETATM   10  C6  UNL     1      36.101  -3.167  13.741  1.00  0.00     0.170 A 
HETATM   11  N4  UNL     1      36.761  -3.113  14.872  1.00  0.00    -0.279 N 
ATOM     12  H4  UNL     1      36.815  -3.923  15.490  1.00  0.00     0.189 HD
ENDROOT
BRANCH  11  13
HETATM   13  N5  UNL     1      37.384  -1.920  15.201  1.00  0.00    -0.260 N 
HETATM   14  C7  UNL     1      38.077  -1.726  16.437  1.00  0.00     0.325 C 
HETATM   15  O4  UNL     1      38.135  -2.663  17.272  1.00  0.00    -0.261 OA
ATOM     16  H5  UNL     1      37.348  -1.149  14.535  1.00  0.00     0.190 HD
BRANCH  14  17
HETATM   17  C8  UNL     1      38.722  -0.459  16.754  1.00  0.00     0.324 C 
HETATM   18  N6  UNL     1      37.980   0.633  17.268  1.00  0.00    -0.053 NA
HETATM   19  O5  UNL     1      39.951  -0.349  16.565  1.00  0.00    -0.266 OA
ENDBRANCH  14  17
ENDBRANCH  11  13
BRANCH   1  20
HETATM   20  S1  UNL     1      34.470  -6.844  13.240  1.00  0.00     0.235 S 
HETATM   21  O1  UNL     1      33.102  -6.477  12.742  1.00  0.00    -0.205 OA
HETATM   22  O2  UNL     1      34.214  -7.820  14.391  1.00  0.00    -0.205 OA
BRANCH  20  23
HETATM   23  C2  UNL     1      35.387  -7.753  12.031  1.00  0.00     0.121 C 
HETATM   24  C1  UNL     1      36.877  -7.497  12.209  1.00  0.00     0.027 C 
HETATM   25  C3  UNL     1      35.025  -7.443  10.620  1.00  0.00     0.027 C 
ENDBRANCH  20  23
ENDBRANCH   1  20
TORSDOF 4
ENDMDL
MODEL 2
REMARK VINA RESULT: -6.507579106      4.050      7.704
REMARK  4 active torsions:
REMARK  status: ('A' for Active; 'I' for Inactive)
REMARK    1  A    between atoms: C2_2  and  S1_4 
REMARK    2  A    between atoms: S1_4  and  N1_7 
REMARK    3  A    between atoms: N4_17  and  N5_19 
REMARK       I    between atoms: N5_19  and  C7_21 
REMARK    4  A    between atoms: C7_21  and  C8_23 
ROOT
HETATM    1  N1  UNL     1      36.513   0.918  13.557  1.00  0.00    -0.266 N 
ATOM      2  H1  UNL     1      35.649   0.544  13.948  1.00  0.00     0.180 HD
HETATM    3  C4  UNL     1      37.356   0.091  13.038  1.00  0.00     0.165 A 
HETATM    4  N2  UNL     1      38.607   0.407  12.446  1.00  0.00    -0.291 N 
ATOM      5  H2  UNL     1      39.022   1.333  12.345  1.00  0.00     0.172 HD
HETATM    6  C5  UNL     1      39.164  -0.830  12.023  1.00  0.00     0.327 A 
HETATM    7  O3  UNL     1      40.292  -0.951  11.442  1.00  0.00    -0.247 OA
HETATM    8  N3  UNL     1      38.313  -1.920  12.324  1.00  0.00    -0.290 N 
ATOM      9  H3  UNL     1      38.488  -2.904  12.121  1.00  0.00     0.172 HD
HETATM   10  C6  UNL     1      37.169  -1.376  12.962  1.00  0.00     0.170 A 
HETATM   11  N4  UNL     1      36.121  -2.020  13.413  1.00  0.00    -0.279 N 
ATOM     12  H4  UNL     1      35.349  -1.524  13.858  1.00  0.00     0.189 HD
ENDROOT
BRANCH  11  13
HETATM   13  N5  UNL     1      36.095  -3.398  13.267  1.00  0.00    -0.260 N 
HETATM   14  C7  UNL     1      35.396  -4.049  12.202  1.00  0.00     0.325 C 
HETATM   15  O4  UNL     1      34.775  -3.361  11.353  1.00  0.00    -0.261 OA
ATOM     16  H5  UNL     1      36.595  -3.972  13.946  1.00  0.00     0.190 HD
BRANCH  14  17
HETATM   17  C8  UNL     1      35.388  -5.500  12.076  1.00  0.00     0.324 C 
HETATM   18  N6  UNL     1      34.410  -6.161  11.292  1.00  0.00    -0.053 NA
HETATM   19  O5  UNL     1      36.264  -6.157  12.673  1.00  0.00    -0.266 OA
ENDBRANCH  14  17
ENDBRANCH  11  13
BRANCH   1  20
HETATM   20  S1  UNL     1      36.768   2.603  13.624  1.00  0.00     0.235 S 
HETATM   21  O1  UNL     1      35.476   3.367  13.645  1.00  0.00    -0.205 OA
HETATM   22  O2  UNL     1      37.457   3.041  12.329  1.00  0.00    -0.205 OA
BRANCH  20  23
HETATM   23  C2  UNL     1      37.845   3.098  14.936  1.00  0.00     0.121 C 
HETATM   24  C1  UNL     1      39.262   3.277  14.406  1.00  0.00     0.027 C 
HETATM   25  C3  UNL     1      37.894   2.153  16.086  1.00  0.00     0.027 C 
ENDBRANCH  20  23
ENDBRANCH   1  20
TORSDOF 4
ENDMDL
MODEL 3
REMARK VINA RESULT: -6.430634392      2.301      3.513
REMARK  4 active torsions:
REMARK  status: ('A' for Active; 'I' for Inactive)
REMARK    1  A    between atoms: C2_2  and  S1_4 
REMARK    2  A    between atoms: S1_4  and  N1_7 
REMARK    3  A    between atoms: N4_17  and  N5_19 
REMARK       I    between atoms: N5_19  and  C7_21 
REMARK    4  A    between atoms: C7_21  and  C8_23 
ROOT
HETATM    1  N1  UNL     1      34.624  -4.741  12.567  1.00  0.00    -0.266 N 
ATOM      2  H1  UNL     1      34.144  -3.979  12.087  1.00  0.00     0.180 HD
HETATM    3  C4  UNL     1      35.660  -4.457  13.279  1.00  0.00     0.165 A 
HETATM    4  N2  UNL     1      36.462  -5.366  14.019  1.00  0.00    -0.291 N 
ATOM      5  H2  UNL     1      36.335  -6.375  14.095  1.00  0.00     0.172 HD
HETATM    6  C5  UNL     1      37.476  -4.583  14.633  1.00  0.00     0.327 A 
HETATM    7  O3  UNL     1      38.393  -5.053  15.384  1.00  0.00    -0.247 OA
HETATM    8  N3  UNL     1      37.349  -3.211  14.311  1.00  0.00    -0.290 N 
ATOM      9  H3  UNL     1      37.953  -2.452  14.627  1.00  0.00     0.172 HD
HETATM   10  C6  UNL     1      36.219  -3.098  13.462  1.00  0.00     0.170 A 
HETATM   11  N4  UNL     1      35.728  -2.009  12.922  1.00  0.00    -0.279 N 
ATOM     12  H4  UNL     1      34.903  -2.045  12.323  1.00  0.00     0.189 HD
ENDROOT
BRANCH  11  13
HETATM   13  N5  UNL     1      36.367  -0.809  13.189  1.00  0.00    -0.260 N 
HETATM   14  C7  UNL     1      36.908   0.024  12.161  1.00  0.00     0.325 C 
HETATM   15  O4  UNL     1      36.810  -0.328  10.958  1.00  0.00    -0.261 OA
ATOM     16  H5  UNL     1      36.454  -0.507  14.160  1.00  0.00     0.190 HD
BRANCH  14  17
HETATM   17  C8  UNL     1      37.574   1.281  12.474  1.00  0.00     0.324 C 
HETATM   18  N6  UNL     1      36.880   2.514  12.405  1.00  0.00    -0.053 NA
HETATM   19  O5  UNL     1      38.775   1.254  12.809  1.00  0.00    -0.266 OA
ENDBRANCH  14  17
ENDBRANCH  11  13
BRANCH   1  20
HETATM   20  S1  UNL     1      34.012  -6.323  12.383  1.00  0.00     0.235 S 
HETATM   21  O1  UNL     1      32.541  -6.326  12.088  1.00  0.00    -0.205 OA
HETATM   22  O2  UNL     1      34.141  -7.051  13.723  1.00  0.00    -0.205 OA
BRANCH  20  23
HETATM   23  C2  UNL     1      34.919  -7.294  11.216  1.00  0.00     0.121 C 
HETATM   24  C1  UNL     1      34.172  -8.589  10.926  1.00  0.00     0.027 C 
HETATM   25  C3  UNL     1      36.303  -7.640  11.643  1.00  0.00     0.027 C 
ENDBRANCH  20  23
ENDBRANCH   1  20
TORSDOF 4
ENDMDL
MODEL 4
REMARK VINA RESULT: -6.425113311      3.522      7.542
REMARK  4 active torsions:
REMARK  status: ('A' for Active; 'I' for Inactive)
REMARK    1  A    between atoms: C2_2  and  S1_4 
REMARK    2  A    between atoms: S1_4  and  N1_7 
REMARK    3  A    between atoms: N4_17  and  N5_19 
REMARK       I    between atoms: N5_19  and  C7_21 
REMARK    4  A    between atoms: C7_21  and  C8_23 
ROOT
HETATM    1  N1  UNL     1      36.947   0.010  13.350  1.00  0.00    -0.266 N 
ATOM      2  H1  UNL     1      35.930  -0.051  13.366  1.00  0.00     0.180 HD
HETATM    3  C4  UNL     1      37.627  -1.078  13.480  1.00  0.00     0.165 A 
HETATM    4  N2  UNL     1      39.041  -1.206  13.485  1.00  0.00    -0.291 N 
ATOM      5  H2  UNL     1      39.726  -0.456  13.387  1.00  0.00     0.172 HD
HETATM    6  C5  UNL     1      39.309  -2.591  13.655  1.00  0.00     0.327 A 
HETATM    7  O3  UNL     1      40.478  -3.097  13.709  1.00  0.00    -0.247 OA
HETATM    8  N3  UNL     1      38.117  -3.349  13.758  1.00  0.00    -0.290 N 
ATOM      9  H3  UNL     1      38.046  -4.358  13.883  1.00  0.00     0.172 HD
HETATM   10  C6  UNL     1      37.043  -2.429  13.652  1.00  0.00     0.170 A 
HETATM   11  N4  UNL     1      35.759  -2.688  13.694  1.00  0.00    -0.279 N 
ATOM     12  H4  UNL     1      35.068  -1.943  13.606  1.00  0.00     0.189 HD
ENDROOT
BRANCH  11  13
HETATM   13  N5  UNL     1      35.370  -4.007  13.860  1.00  0.00    -0.260 N 
HETATM   14  C7  UNL     1      34.825  -4.792  12.797  1.00  0.00     0.325 C 
HETATM   15  O4  UNL     1      34.685  -4.284  11.656  1.00  0.00    -0.261 OA
ATOM     16  H5  UNL     1      35.478  -4.436  14.780  1.00  0.00     0.190 HD
BRANCH  14  17
HETATM   17  C8  UNL     1      34.425  -6.177  13.004  1.00  0.00     0.324 C 
HETATM   18  N6  UNL     1      33.128  -6.626  12.651  1.00  0.00    -0.053 NA
HETATM   19  O5  UNL     1      35.250  -6.970  13.502  1.00  0.00    -0.266 OA
ENDBRANCH  14  17
ENDBRANCH  11  13
BRANCH   1  20
HETATM   20  S1  UNL     1      37.661   1.547  13.154  1.00  0.00     0.235 S 
HETATM   21  O1  UNL     1      36.787   2.475  12.362  1.00  0.00    -0.205 OA
HETATM   22  O2  UNL     1      38.927   1.389  12.308  1.00  0.00    -0.205 OA
BRANCH  20  23
HETATM   23  C2  UNL     1      38.184   2.277  14.677  1.00  0.00     0.121 C 
HETATM   24  C1  UNL     1      37.116   2.076  15.744  1.00  0.00     0.027 C 
HETATM   25  C3  UNL     1      38.491   3.732  14.592  1.00  0.00     0.027 C 
ENDBRANCH  20  23
ENDBRANCH   1  20
TORSDOF 4
ENDMDL
MODEL 5
REMARK VINA RESULT: -6.323509174      1.452      1.670
REMARK  4 active torsions:
REMARK  status: ('A' for Active; 'I' for Inactive)
REMARK    1  A    between atoms: C2_2  and  S1_4 
REMARK    2  A    between atoms: S1_4  and  N1_7 
REMARK    3  A    between atoms: N4_17  and  N5_19 
REMARK       I    between atoms: N5_19  and  C7_21 
REMARK    4  A    between atoms: C7_21  and  C8_23 
ROOT
HETATM    1  N1  UNL     1      34.927  -6.076  13.287  1.00  0.00    -0.266 N 
ATOM      2  H1  UNL     1      35.399  -6.411  14.126  1.00  0.00     0.180 HD
HETATM    3  C4  UNL     1      35.202  -4.890  12.864  1.00  0.00     0.165 A 
HETATM    4  N2  UNL     1      34.657  -4.243  11.723  1.00  0.00    -0.291 N 
ATOM      5  H2  UNL     1      33.969  -4.622  11.072  1.00  0.00     0.172 HD
HETATM    6  C5  UNL     1      35.265  -2.960  11.672  1.00  0.00     0.327 A 
HETATM    7  O3  UNL     1      35.024  -2.083  10.778  1.00  0.00    -0.247 OA
HETATM    8  N3  UNL     1      36.176  -2.766  12.739  1.00  0.00    -0.290 N 
ATOM      9  H3  UNL     1      36.734  -1.933  12.920  1.00  0.00     0.172 HD
HETATM   10  C6  UNL     1      36.160  -3.959  13.505  1.00  0.00     0.170 A 
HETATM   11  N4  UNL     1      36.850  -4.227  14.586  1.00  0.00    -0.279 N 
ATOM     12  H4  UNL     1      36.760  -5.126  15.060  1.00  0.00     0.189 HD
ENDROOT
BRANCH  11  13
HETATM   13  N5  UNL     1      37.707  -3.249  15.065  1.00  0.00    -0.260 N 
HETATM   14  C7  UNL     1      38.834  -3.548  15.894  1.00  0.00     0.325 C 
HETATM   15  O4  UNL     1      39.074  -4.740  16.211  1.00  0.00    -0.261 OA
ATOM     16  H5  UNL     1      37.528  -2.276  14.816  1.00  0.00     0.190 HD
BRANCH  14  17
HETATM   17  C8  UNL     1      39.716  -2.497  16.382  1.00  0.00     0.324 C 
HETATM   18  N6  UNL     1      39.560  -1.154  15.958  1.00  0.00    -0.053 NA
HETATM   19  O5  UNL     1      40.620  -2.800  17.187  1.00  0.00    -0.266 OA
ENDBRANCH  14  17
ENDBRANCH  11  13
BRANCH   1  20
HETATM   20  S1  UNL     1      33.816  -7.116  12.516  1.00  0.00     0.235 S 
HETATM   21  O1  UNL     1      32.563  -6.398  12.109  1.00  0.00    -0.205 OA
HETATM   22  O2  UNL     1      33.351  -8.164  13.529  1.00  0.00    -0.205 OA
BRANCH  20  23
HETATM   23  C2  UNL     1      34.521  -8.023  11.171  1.00  0.00     0.121 C 
HETATM   24  C1  UNL     1      33.987  -9.450  11.170  1.00  0.00     0.027 C 
HETATM   25  C3  UNL     1      36.009  -8.082  11.178  1.00  0.00     0.027 C 
ENDBRANCH  20  23
ENDBRANCH   1  20
TORSDOF 4
ENDMDL
