MODEL 1
REMARK VINA RESULT: -6.691009341      0.000      0.000
REMARK  5 active torsions:
REMARK  status: ('A' for Active; 'I' for Inactive)
REMARK    1  A    between atoms: N1_3  and  S1_5 
REMARK    2  A    between atoms: S1_5  and  N2_6 
REMARK    3  A    between atoms: S1_5  and  C3_10 
REMARK       I    between atoms: N5_16  and  C5_18 
REMARK    4  A    between atoms: C5_18  and  C6_20 
REMARK    5  A    between atoms: C6_20  and  N6_21 
REMARK       I    between atoms: N6_21  and  C7_23 
ROOT
HETATM    1  C1  UNL     1      35.866  -8.840  10.203  1.00  0.00     0.037 C 
HETATM    2  C2  UNL     1      35.160  -7.907  10.466  1.00  0.00     0.008 C 
HETATM    3  N1  UNL     1      34.348  -6.808  10.793  1.00  0.00    -0.255 N 
ATOM      4  H1  UNL     1      33.942  -6.253  10.040  1.00  0.00     0.188 HD
ENDROOT
BRANCH   3   5
HETATM    5  S1  UNL     1      34.046  -6.409  12.274  1.00  0.00     0.168 S 
HETATM    6  O1  UNL     1      32.559  -6.083  12.328  1.00  0.00    -0.221 OA
BRANCH   5   7
HETATM    7  N2  UNL     1      34.272  -7.733  13.344  1.00  0.00    -0.339 N 
ATOM      8  H22 UNL     1      35.076  -8.359  13.299  1.00  0.00     0.167 HD
ATOM      9  H21 UNL     1      33.509  -7.806  14.017  1.00  0.00     0.167 HD
ENDBRANCH   5   7
BRANCH   5  10
HETATM   10  C3  UNL     1      34.951  -4.996  12.762  1.00  0.00     0.188 A 
HETATM   11  N3  UNL     1      35.578  -4.853  13.921  1.00  0.00    -0.282 N 
HETATM   12  N4  UNL     1      36.209  -3.787  14.182  1.00  0.00    -0.278 N 
ATOM     13  H3  UNL     1      35.552  -5.607  14.607  1.00  0.00     0.188 HD
HETATM   14  C4  UNL     1      36.237  -2.810  13.276  1.00  0.00     0.168 A 
ATOM     15  H4  UNL     1      36.691  -3.677  15.074  1.00  0.00     0.189 HD
HETATM   16  N5  UNL     1      36.829  -1.648  13.363  1.00  0.00    -0.305 N 
HETATM   17  S2  UNL     1      35.299  -3.502  12.012  1.00  0.00    -0.021 SA
HETATM   18  C5  UNL     1      36.723  -0.756  12.265  1.00  0.00     0.241 C 
ATOM     19  H5  UNL     1      37.353  -1.389  14.199  1.00  0.00     0.171 HD
HETATM   20  O2  UNL     1      36.665  -1.258  11.114  1.00  0.00    -0.271 OA
BRANCH  18  21
HETATM   21  C6  UNL     1      36.687   0.698  12.516  1.00  0.00     0.227 C 
BRANCH  21  22
HETATM   22  N6  UNL     1      37.097   0.954  13.876  1.00  0.00    -0.337 N 
HETATM   23  C7  UNL     1      36.622   2.127  14.525  1.00  0.00     0.329 C 
HETATM   24  N7  UNL     1      37.022   2.372  15.850  1.00  0.00    -0.040 NA
HETATM   25  O3  UNL     1      35.862   2.929  13.934  1.00  0.00    -0.251 OA
ATOM     26  H6  UNL     1      37.715   0.305  14.363  1.00  0.00     0.164 HD
ENDBRANCH  21  22
ENDBRANCH  18  21
ENDBRANCH   5  10
ENDBRANCH   3   5
TORSDOF 5
ENDMDL
MODEL 2
REMARK VINA RESULT: -6.485815956      1.629      1.694
REMARK  5 active torsions:
REMARK  status: ('A' for Active; 'I' for Inactive)
REMARK    1  A    between atoms: N1_3  and  S1_5 
REMARK    2  A    between atoms: S1_5  and  N2_6 
REMARK    3  A    between atoms: S1_5  and  C3_10 
REMARK       I    between atoms: N5_16  and  C5_18 
REMARK    4  A    between atoms: C5_18  and  C6_20 
REMARK    5  A    between atoms: C6_20  and  N6_21 
REMARK       I    between atoms: N6_21  and  C7_23 
ROOT
HETATM    1  C1  UNL     1      37.704  -8.155  11.918  1.00  0.00     0.037 C 
HETATM    2  C2  UNL     1      36.535  -7.941  12.078  1.00  0.00     0.008 C 
HETATM    3  N1  UNL     1      35.164  -7.679  12.243  1.00  0.00    -0.255 N 
ATOM      4  H1  UNL     1      34.590  -8.356  12.744  1.00  0.00     0.188 HD
ENDROOT
BRANCH   3   5
HETATM    5  S1  UNL     1      34.492  -6.384  11.683  1.00  0.00     0.168 S 
HETATM    6  O1  UNL     1      34.796  -6.364  10.190  1.00  0.00    -0.221 OA
BRANCH   5   7
HETATM    7  N2  UNL     1      32.782  -6.453  11.809  1.00  0.00    -0.339 N 
ATOM      8  H22 UNL     1      32.199  -5.634  11.981  1.00  0.00     0.167 HD
ATOM      9  H21 UNL     1      32.434  -7.405  11.689  1.00  0.00     0.167 HD
ENDBRANCH   5   7
BRANCH   5  10
HETATM   10  C3  UNL     1      35.156  -4.942  12.413  1.00  0.00     0.188 A 
HETATM   11  N3  UNL     1      34.864  -4.496  13.627  1.00  0.00    -0.282 N 
HETATM   12  N4  UNL     1      35.400  -3.437  14.068  1.00  0.00    -0.278 N 
ATOM     13  H3  UNL     1      34.203  -5.010  14.209  1.00  0.00     0.188 HD
HETATM   14  C4  UNL     1      36.263  -2.776  13.297  1.00  0.00     0.168 A 
ATOM     15  H4  UNL     1      35.174  -3.094  15.001  1.00  0.00     0.189 HD
HETATM   16  N5  UNL     1      36.911  -1.676  13.575  1.00  0.00    -0.305 N 
HETATM   17  S2  UNL     1      36.270  -3.760  11.887  1.00  0.00    -0.021 SA
HETATM   18  C5  UNL     1      37.786  -1.146  12.593  1.00  0.00     0.241 C 
ATOM     19  H5  UNL     1      36.789  -1.209  14.475  1.00  0.00     0.171 HD
HETATM   20  O2  UNL     1      38.386  -1.962  11.848  1.00  0.00    -0.271 OA
BRANCH  18  21
HETATM   21  C6  UNL     1      37.954   0.317  12.488  1.00  0.00     0.227 C 
BRANCH  21  22
HETATM   22  N6  UNL     1      36.923   0.968  13.261  1.00  0.00    -0.337 N 
HETATM   23  C7  UNL     1      36.757   2.375  13.133  1.00  0.00     0.329 C 
HETATM   24  N7  UNL     1      35.751   3.005  13.885  1.00  0.00    -0.040 NA
HETATM   25  O3  UNL     1      37.488   3.044  12.367  1.00  0.00    -0.251 OA
ATOM     26  H6  UNL     1      36.324   0.429  13.886  1.00  0.00     0.164 HD
ENDBRANCH  21  22
ENDBRANCH  18  21
ENDBRANCH   5  10
ENDBRANCH   3   5
TORSDOF 5
ENDMDL
MODEL 3
REMARK VINA RESULT: -6.400295050      3.327      4.544
REMARK  5 active torsions:
REMARK  status: ('A' for Active; 'I' for Inactive)
REMARK    1  A    between atoms: N1_3  and  S1_5 
REMARK    2  A    between atoms: S1_5  and  N2_6 
REMARK    3  A    between atoms: S1_5  and  C3_10 
REMARK       I    between atoms: N5_16  and  C5_18 
REMARK    4  A    between atoms: C5_18  and  C6_20 
REMARK    5  A    between atoms: C6_20  and  N6_21 
REMARK       I    between atoms: N6_21  and  C7_23 
ROOT
HETATM    1  C1  UNL     1      36.248  -8.725   8.314  1.00  0.00     0.037 C 
HETATM    2  C2  UNL     1      35.396  -9.424   8.787  1.00  0.00     0.008 C 
HETATM    3  N1  UNL     1      34.391 -10.225   9.356  1.00  0.00    -0.255 N 
ATOM      4  H1  UNL     1      33.863 -10.856   8.754  1.00  0.00     0.188 HD
ENDROOT
BRANCH   3   5
HETATM    5  S1  UNL     1      34.057 -10.179  10.882  1.00  0.00     0.168 S 
HETATM    6  O1  UNL     1      32.670 -10.790  11.028  1.00  0.00    -0.221 OA
BRANCH   5   7
HETATM    7  N2  UNL     1      35.108 -11.187  11.791  1.00  0.00    -0.339 N 
ATOM      8  H22 UNL     1      35.126 -12.203  11.702  1.00  0.00     0.167 HD
ATOM      9  H21 UNL     1      35.700 -10.643  12.420  1.00  0.00     0.167 HD
ENDBRANCH   5   7
BRANCH   5  10
HETATM   10  C3  UNL     1      34.017  -8.540  11.488  1.00  0.00     0.188 A 
HETATM   11  N3  UNL     1      32.979  -7.719  11.401  1.00  0.00    -0.282 N 
HETATM   12  N4  UNL     1      33.049  -6.546  11.873  1.00  0.00    -0.278 N 
ATOM     13  H3  UNL     1      32.120  -8.035  10.952  1.00  0.00     0.188 HD
HETATM   14  C4  UNL     1      34.177  -6.146  12.458  1.00  0.00     0.168 A 
ATOM     15  H4  UNL     1      32.250  -5.915  11.805  1.00  0.00     0.189 HD
HETATM   16  N5  UNL     1      34.435  -4.984  12.997  1.00  0.00    -0.305 N 
HETATM   17  S2  UNL     1      35.151  -7.554  12.298  1.00  0.00    -0.021 SA
HETATM   18  C5  UNL     1      35.718  -4.779  13.568  1.00  0.00     0.241 C 
ATOM     19  H5  UNL     1      33.734  -4.243  13.008  1.00  0.00     0.171 HD
HETATM   20  O2  UNL     1      36.281  -5.769  14.100  1.00  0.00    -0.271 OA
BRANCH  18  21
HETATM   21  C6  UNL     1      36.327  -3.435  13.514  1.00  0.00     0.227 C 
BRANCH  21  22
HETATM   22  N6  UNL     1      35.382  -2.511  12.932  1.00  0.00    -0.337 N 
HETATM   23  C7  UNL     1      35.313  -2.404  11.516  1.00  0.00     0.329 C 
HETATM   24  N7  UNL     1      34.392  -1.504  10.953  1.00  0.00    -0.040 NA
HETATM   25  O3  UNL     1      36.054  -3.095  10.780  1.00  0.00    -0.251 OA
ATOM     26  H6  UNL     1      34.776  -1.946  13.527  1.00  0.00     0.164 HD
ENDBRANCH  21  22
ENDBRANCH  18  21
ENDBRANCH   5  10
ENDBRANCH   3   5
TORSDOF 5
ENDMDL
MODEL 4
REMARK VINA RESULT: -6.312419613      1.336      1.535
REMARK  5 active torsions:
REMARK  status: ('A' for Active; 'I' for Inactive)
REMARK    1  A    between atoms: N1_3  and  S1_5 
REMARK    2  A    between atoms: S1_5  and  N2_6 
REMARK    3  A    between atoms: S1_5  and  C3_10 
REMARK       I    between atoms: N5_16  and  C5_18 
REMARK    4  A    between atoms: C5_18  and  C6_20 
REMARK    5  A    between atoms: C6_20  and  N6_21 
REMARK       I    between atoms: N6_21  and  C7_23 
ROOT
HETATM    1  C1  UNL     1      34.036 -10.131  12.868  1.00  0.00     0.037 C 
HETATM    2  C2  UNL     1      34.094  -8.963  13.134  1.00  0.00     0.008 C 
HETATM    3  N1  UNL     1      34.146  -7.590  13.428  1.00  0.00    -0.255 N 
ATOM      4  H1  UNL     1      34.199  -7.296  14.403  1.00  0.00     0.188 HD
ENDROOT
BRANCH   3   5
HETATM    5  S1  UNL     1      34.126  -6.500  12.309  1.00  0.00     0.168 S 
HETATM    6  O1  UNL     1      34.813  -7.124  11.100  1.00  0.00    -0.221 OA
BRANCH   5   7
HETATM    7  N2  UNL     1      32.526  -6.142  11.802  1.00  0.00    -0.339 N 
ATOM      8  H22 UNL     1      32.134  -6.462  10.916  1.00  0.00     0.167 HD
ATOM      9  H21 UNL     1      32.030  -5.578  12.492  1.00  0.00     0.167 HD
ENDBRANCH   5   7
BRANCH   5  10
HETATM   10  C3  UNL     1      35.011  -5.069  12.782  1.00  0.00     0.188 A 
HETATM   11  N3  UNL     1      35.662  -4.918  13.927  1.00  0.00    -0.282 N 
HETATM   12  N4  UNL     1      36.276  -3.839  14.178  1.00  0.00    -0.278 N 
ATOM     13  H3  UNL     1      35.669  -5.675  14.610  1.00  0.00     0.188 HD
HETATM   14  C4  UNL     1      36.261  -2.857  13.276  1.00  0.00     0.168 A 
ATOM     15  H4  UNL     1      36.776  -3.723  15.059  1.00  0.00     0.189 HD
HETATM   16  N5  UNL     1      36.829  -1.683  13.356  1.00  0.00    -0.305 N 
HETATM   17  S2  UNL     1      35.308  -3.565  12.032  1.00  0.00    -0.021 SA
HETATM   18  C5  UNL     1      36.678  -0.789  12.265  1.00  0.00     0.241 C 
ATOM     19  H5  UNL     1      37.368  -1.417  14.181  1.00  0.00     0.171 HD
HETATM   20  O2  UNL     1      36.603  -1.287  11.113  1.00  0.00    -0.271 OA
BRANCH  18  21
HETATM   21  C6  UNL     1      36.616   0.663  12.524  1.00  0.00     0.227 C 
BRANCH  21  22
HETATM   22  N6  UNL     1      37.033   0.919  13.882  1.00  0.00    -0.337 N 
HETATM   23  C7  UNL     1      36.589   2.110  14.521  1.00  0.00     0.329 C 
HETATM   24  N7  UNL     1      36.997   2.356  15.843  1.00  0.00    -0.040 NA
HETATM   25  O3  UNL     1      35.850   2.926  13.923  1.00  0.00    -0.251 OA
ATOM     26  H6  UNL     1      37.634   0.259  14.374  1.00  0.00     0.164 HD
ENDBRANCH  21  22
ENDBRANCH  18  21
ENDBRANCH   5  10
ENDBRANCH   3   5
TORSDOF 5
ENDMDL
MODEL 5
REMARK VINA RESULT: -6.310944854      1.893      2.014
REMARK  5 active torsions:
REMARK  status: ('A' for Active; 'I' for Inactive)
REMARK    1  A    between atoms: N1_3  and  S1_5 
REMARK    2  A    between atoms: S1_5  and  N2_6 
REMARK    3  A    between atoms: S1_5  and  C3_10 
REMARK       I    between atoms: N5_16  and  C5_18 
REMARK    4  A    between atoms: C5_18  and  C6_20 
REMARK    5  A    between atoms: C6_20  and  N6_21 
REMARK       I    between atoms: N6_21  and  C7_23 
ROOT
HETATM    1  C1  UNL     1      35.239  -8.714  10.134  1.00  0.00     0.037 C 
HETATM    2  C2  UNL     1      34.918  -7.610  10.475  1.00  0.00     0.008 C 
HETATM    3  N1  UNL     1      34.564  -6.313  10.884  1.00  0.00    -0.255 N 
ATOM      4  H1  UNL     1      33.976  -5.747  10.273  1.00  0.00     0.188 HD
ENDROOT
BRANCH   3   5
HETATM    5  S1  UNL     1      35.042  -5.712  12.245  1.00  0.00     0.168 S 
HETATM    6  O1  UNL     1      33.875  -5.876  13.211  1.00  0.00    -0.221 OA
BRANCH   5   7
HETATM    7  N2  UNL     1      36.335  -6.619  12.918  1.00  0.00    -0.339 N 
ATOM      8  H22 UNL     1      36.980  -7.175  12.358  1.00  0.00     0.167 HD
ATOM      9  H21 UNL     1      36.369  -6.528  13.934  1.00  0.00     0.167 HD
ENDBRANCH   5   7
BRANCH   5  10
HETATM   10  C3  UNL     1      35.423  -4.012  12.104  1.00  0.00     0.188 A 
HETATM   11  N3  UNL     1      34.840  -3.166  11.266  1.00  0.00    -0.282 N 
HETATM   12  N4  UNL     1      35.187  -1.949  11.240  1.00  0.00    -0.278 N 
ATOM     13  H3  UNL     1      34.108  -3.498  10.638  1.00  0.00     0.188 HD
HETATM   14  C4  UNL     1      36.144  -1.527  12.066  1.00  0.00     0.168 A 
ATOM     15  H4  UNL     1      34.739  -1.298  10.594  1.00  0.00     0.189 HD
HETATM   16  N5  UNL     1      36.632  -0.320  12.183  1.00  0.00    -0.305 N 
HETATM   17  S2  UNL     1      36.531  -2.982  12.895  1.00  0.00    -0.021 SA
HETATM   18  C5  UNL     1      37.657  -0.101  13.138  1.00  0.00     0.241 C 
ATOM     19  H5  UNL     1      36.285   0.444  11.602  1.00  0.00     0.171 HD
HETATM   20  O2  UNL     1      37.624  -0.785  14.193  1.00  0.00    -0.271 OA
BRANCH  18  21
HETATM   21  C6  UNL     1      38.702   0.904  12.859  1.00  0.00     0.227 C 
BRANCH  21  22
HETATM   22  N6  UNL     1      38.501   2.047  13.718  1.00  0.00    -0.337 N 
HETATM   23  C7  UNL     1      37.519   3.010  13.357  1.00  0.00     0.329 C 
HETATM   24  N7  UNL     1      37.325   4.120  14.196  1.00  0.00    -0.040 NA
HETATM   25  O3  UNL     1      36.837   2.876  12.314  1.00  0.00    -0.251 OA
ATOM     26  H6  UNL     1      39.053   2.161  14.568  1.00  0.00     0.164 HD
ENDBRANCH  21  22
ENDBRANCH  18  21
ENDBRANCH   5  10
ENDBRANCH   3   5
TORSDOF 5
ENDMDL
