MODEL 1
REMARK VINA RESULT: -5.390223328      0.000      0.000
REMARK  6 active torsions:
REMARK  status: ('A' for Active; 'I' for Inactive)
REMARK    1  A    between atoms: N1_1  and  S1_4 
REMARK    2  A    between atoms: S1_4  and  C1_7 
REMARK    3  A    between atoms: C3_9  and  S2_10 
REMARK    4  A    between atoms: S2_10  and  N2_11 
REMARK    5  A    between atoms: C5_17  and  S3_18 
REMARK    6  A    between atoms: S3_18  and  N3_19 
ROOT
HETATM    1  C1  UNL     1      36.136  -4.047  12.379  1.00  0.00     0.082 A 
HETATM    2  C2  UNL     1      37.277  -4.483  13.028  1.00  0.00     0.050 A 
HETATM    3  C3  UNL     1      37.374  -5.802  13.454  1.00  0.00     0.082 A 
HETATM    4  C4  UNL     1      36.315  -6.649  13.212  1.00  0.00     0.050 A 
HETATM    5  C5  UNL     1      35.162  -6.232  12.563  1.00  0.00     0.082 A 
HETATM    6  C6  UNL     1      35.082  -4.903  12.142  1.00  0.00     0.050 A 
ENDROOT
BRANCH   1   7
HETATM    7  S1  UNL     1      36.025  -2.385  11.847  1.00  0.00     0.256 S 
HETATM    8  O1  UNL     1      35.041  -2.248  10.710  1.00  0.00    -0.201 OA
HETATM    9  O2  UNL     1      35.514  -1.522  12.964  1.00  0.00    -0.201 OA
BRANCH   7  10
HETATM   10  N1  UNL     1      37.585  -1.805  11.392  1.00  0.00    -0.324 N 
ATOM     11  H12 UNL     1      37.765  -0.850  11.082  1.00  0.00     0.169 HD
ATOM     12  H11 UNL     1      38.288  -2.540  11.474  1.00  0.00     0.169 HD
ENDBRANCH   7  10
ENDBRANCH   1   7
BRANCH   3  13
HETATM   13  S2  UNL     1      38.803  -6.384  14.278  1.00  0.00     0.256 S 
HETATM   14  O3  UNL     1      38.566  -7.753  14.795  1.00  0.00    -0.201 OA
HETATM   15  O4  UNL     1      38.991  -5.478  15.487  1.00  0.00    -0.201 OA
BRANCH  13  16
HETATM   16  N2  UNL     1      40.178  -6.272  13.248  1.00  0.00    -0.324 N 
ATOM     17  H22 UNL     1      40.348  -5.497  12.607  1.00  0.00     0.169 HD
ATOM     18  H21 UNL     1      40.784  -7.083  13.374  1.00  0.00     0.169 HD
ENDBRANCH  13  16
ENDBRANCH   3  13
BRANCH   5  19
HETATM   19  S3  UNL     1      33.817  -7.308  12.256  1.00  0.00     0.256 S 
HETATM   20  O5  UNL     1      33.461  -8.040  13.517  1.00  0.00    -0.201 OA
HETATM   21  O6  UNL     1      34.264  -8.323  11.238  1.00  0.00    -0.201 OA
BRANCH  19  22
HETATM   22  N3  UNL     1      32.454  -6.415  11.638  1.00  0.00    -0.324 N 
ATOM     23  H32 UNL     1      32.534  -5.590  11.044  1.00  0.00     0.169 HD
ATOM     24  H31 UNL     1      31.580  -6.836  11.954  1.00  0.00     0.169 HD
ENDBRANCH  19  22
ENDBRANCH   5  19
TORSDOF 6
ENDMDL
MODEL 2
REMARK VINA RESULT: -5.370711871      0.051      4.468
REMARK  6 active torsions:
REMARK  status: ('A' for Active; 'I' for Inactive)
REMARK    1  A    between atoms: N1_1  and  S1_4 
REMARK    2  A    between atoms: S1_4  and  C1_7 
REMARK    3  A    between atoms: C3_9  and  S2_10 
REMARK    4  A    between atoms: S2_10  and  N2_11 
REMARK    5  A    between atoms: C5_17  and  S3_18 
REMARK    6  A    between atoms: S3_18  and  N3_19 
ROOT
HETATM    1  C1  UNL     1      36.113  -4.015  12.385  1.00  0.00     0.082 A 
HETATM    2  C2  UNL     1      35.046  -4.862  12.152  1.00  0.00     0.050 A 
HETATM    3  C3  UNL     1      35.103  -6.185  12.574  1.00  0.00     0.082 A 
HETATM    4  C4  UNL     1      36.239  -6.619  13.222  1.00  0.00     0.050 A 
HETATM    5  C5  UNL     1      37.321  -5.785  13.464  1.00  0.00     0.082 A 
HETATM    6  C6  UNL     1      37.246  -4.458  13.033  1.00  0.00     0.050 A 
ENDROOT
BRANCH   1   7
HETATM    7  S1  UNL     1      36.030  -2.352  11.849  1.00  0.00     0.256 S 
HETATM    8  O1  UNL     1      35.056  -2.204  10.705  1.00  0.00    -0.201 OA
HETATM    9  O2  UNL     1      35.523  -1.479  12.960  1.00  0.00    -0.201 OA
BRANCH   7  10
HETATM   10  N1  UNL     1      37.601  -1.796  11.403  1.00  0.00    -0.324 N 
ATOM     11  H12 UNL     1      37.995  -0.907  11.712  1.00  0.00     0.169 HD
ATOM     12  H11 UNL     1      38.072  -2.470  10.799  1.00  0.00     0.169 HD
ENDBRANCH   7  10
ENDBRANCH   1   7
BRANCH   3  13
HETATM   13  S2  UNL     1      33.770  -7.282  12.296  1.00  0.00     0.256 S 
HETATM   14  O3  UNL     1      33.462  -8.030  13.539  1.00  0.00    -0.201 OA
HETATM   15  O4  UNL     1      34.265  -8.299  11.277  1.00  0.00    -0.201 OA
BRANCH  13  16
HETATM   16  N2  UNL     1      32.415  -6.433  11.658  1.00  0.00    -0.324 N 
ATOM     17  H22 UNL     1      32.480  -5.721  10.930  1.00  0.00     0.169 HD
ATOM     18  H21 UNL     1      31.554  -6.742  12.111  1.00  0.00     0.169 HD
ENDBRANCH  13  16
ENDBRANCH   3  13
BRANCH   5  19
HETATM   19  S3  UNL     1      38.764  -6.335  14.286  1.00  0.00     0.256 S 
HETATM   20  O5  UNL     1      38.548  -7.729  14.801  1.00  0.00    -0.201 OA
HETATM   21  O6  UNL     1      38.993  -5.431  15.468  1.00  0.00    -0.201 OA
BRANCH  19  22
HETATM   22  N3  UNL     1      40.138  -6.263  13.216  1.00  0.00    -0.324 N 
ATOM     23  H32 UNL     1      40.472  -7.052  12.663  1.00  0.00     0.169 HD
ATOM     24  H31 UNL     1      40.549  -5.330  13.227  1.00  0.00     0.169 HD
ENDBRANCH  19  22
ENDBRANCH   5  19
TORSDOF 6
ENDMDL
MODEL 3
REMARK VINA RESULT: -5.368859997      0.189      4.384
REMARK  6 active torsions:
REMARK  status: ('A' for Active; 'I' for Inactive)
REMARK    1  A    between atoms: N1_1  and  S1_4 
REMARK    2  A    between atoms: S1_4  and  C1_7 
REMARK    3  A    between atoms: C3_9  and  S2_10 
REMARK    4  A    between atoms: S2_10  and  N2_11 
REMARK    5  A    between atoms: C5_17  and  S3_18 
REMARK    6  A    between atoms: S3_18  and  N3_19 
ROOT
HETATM    1  C1  UNL     1      35.180  -6.338  12.546  1.00  0.00     0.082 A 
HETATM    2  C2  UNL     1      36.290  -6.840  13.200  1.00  0.00     0.050 A 
HETATM    3  C3  UNL     1      37.376  -6.014  13.461  1.00  0.00     0.082 A 
HETATM    4  C4  UNL     1      37.314  -4.700  13.054  1.00  0.00     0.050 A 
HETATM    5  C5  UNL     1      36.211  -4.176  12.397  1.00  0.00     0.082 A 
HETATM    6  C6  UNL     1      35.128  -5.021  12.142  1.00  0.00     0.050 A 
ENDROOT
BRANCH   1   7
HETATM    7  S1  UNL     1      33.818  -7.387  12.222  1.00  0.00     0.256 S 
HETATM    8  O1  UNL     1      34.187  -8.452  11.218  1.00  0.00    -0.201 OA
HETATM    9  O2  UNL     1      33.411  -8.101  13.478  1.00  0.00    -0.201 OA
BRANCH   7  10
HETATM   10  N1  UNL     1      32.473  -6.455  11.674  1.00  0.00    -0.324 N 
ATOM     11  H12 UNL     1      32.420  -5.439  11.752  1.00  0.00     0.169 HD
ATOM     12  H11 UNL     1      31.752  -7.054  11.270  1.00  0.00     0.169 HD
ENDBRANCH   7  10
ENDBRANCH   1   7
BRANCH   3  13
HETATM   13  S2  UNL     1      38.795  -6.619  14.287  1.00  0.00     0.256 S 
HETATM   14  O3  UNL     1      38.507  -7.946  14.881  1.00  0.00    -0.201 OA
HETATM   15  O4  UNL     1      39.051  -5.661  15.442  1.00  0.00    -0.201 OA
BRANCH  13  16
HETATM   16  N2  UNL     1      40.151  -6.626  13.226  1.00  0.00    -0.324 N 
ATOM     17  H22 UNL     1      40.936  -5.979  13.299  1.00  0.00     0.169 HD
ATOM     18  H21 UNL     1      40.051  -7.361  12.525  1.00  0.00     0.169 HD
ENDBRANCH  13  16
ENDBRANCH   3  13
BRANCH   5  19
HETATM   19  S3  UNL     1      36.131  -2.506  11.880  1.00  0.00     0.256 S 
HETATM   20  O5  UNL     1      35.534  -1.670  12.974  1.00  0.00    -0.201 OA
HETATM   21  O6  UNL     1      35.216  -2.438  10.687  1.00  0.00    -0.201 OA
BRANCH  19  22
HETATM   22  N3  UNL     1      37.716  -1.931  11.438  1.00  0.00    -0.324 N 
ATOM     23  H32 UNL     1      37.992  -1.694  10.485  1.00  0.00     0.169 HD
ATOM     24  H31 UNL     1      38.314  -1.868  12.262  1.00  0.00     0.169 HD
ENDBRANCH  19  22
ENDBRANCH   5  19
TORSDOF 6
ENDMDL
MODEL 4
REMARK VINA RESULT: -5.361052421      4.438      7.601
REMARK  6 active torsions:
REMARK  status: ('A' for Active; 'I' for Inactive)
REMARK    1  A    between atoms: N1_1  and  S1_4 
REMARK    2  A    between atoms: S1_4  and  C1_7 
REMARK    3  A    between atoms: C3_9  and  S2_10 
REMARK    4  A    between atoms: S2_10  and  N2_11 
REMARK    5  A    between atoms: C5_17  and  S3_18 
REMARK    6  A    between atoms: S3_18  and  N3_19 
ROOT
HETATM    1  C1  UNL     1      37.384  -1.658  12.441  1.00  0.00     0.082 A 
HETATM    2  C2  UNL     1      36.876  -0.442  12.858  1.00  0.00     0.050 A 
HETATM    3  C3  UNL     1      37.688   0.685  12.866  1.00  0.00     0.082 A 
HETATM    4  C4  UNL     1      38.996   0.556  12.451  1.00  0.00     0.050 A 
HETATM    5  C5  UNL     1      39.525  -0.656  12.030  1.00  0.00     0.082 A 
HETATM    6  C6  UNL     1      38.694  -1.778  12.029  1.00  0.00     0.050 A 
ENDROOT
BRANCH   1   7
HETATM    7  S1  UNL     1      36.352  -3.070  12.436  1.00  0.00     0.256 S 
HETATM    8  O1  UNL     1      35.503  -3.111  11.188  1.00  0.00    -0.201 OA
HETATM    9  O2  UNL     1      37.188  -4.317  12.428  1.00  0.00    -0.201 OA
BRANCH   7  10
HETATM   10  N1  UNL     1      35.372  -3.090  13.856  1.00  0.00    -0.324 N 
ATOM     11  H12 UNL     1      34.703  -3.830  14.070  1.00  0.00     0.169 HD
ATOM     12  H11 UNL     1      35.553  -2.272  14.438  1.00  0.00     0.169 HD
ENDBRANCH   7  10
ENDBRANCH   1   7
BRANCH   3  13
HETATM   13  S2  UNL     1      37.076   2.239  13.387  1.00  0.00     0.256 S 
HETATM   14  O3  UNL     1      35.637   2.127  13.727  1.00  0.00    -0.201 OA
HETATM   15  O4  UNL     1      37.177   3.160  12.178  1.00  0.00    -0.201 OA
BRANCH  13  16
HETATM   16  N2  UNL     1      38.034   2.862  14.674  1.00  0.00    -0.324 N 
ATOM     17  H22 UNL     1      38.636   2.289  15.266  1.00  0.00     0.169 HD
ATOM     18  H21 UNL     1      37.910   3.872  14.755  1.00  0.00     0.169 HD
ENDBRANCH  13  16
ENDBRANCH   3  13
BRANCH   5  19
HETATM   19  S3  UNL     1      41.185  -0.821  11.504  1.00  0.00     0.256 S 
HETATM   20  O5  UNL     1      42.063  -1.097  12.689  1.00  0.00    -0.201 OA
HETATM   21  O6  UNL     1      41.610   0.492  10.903  1.00  0.00    -0.201 OA
BRANCH  19  22
HETATM   22  N3  UNL     1      41.321  -2.084  10.310  1.00  0.00    -0.324 N 
ATOM     23  H32 UNL     1      41.667  -1.938   9.362  1.00  0.00     0.169 HD
ATOM     24  H31 UNL     1      41.008  -2.974  10.697  1.00  0.00     0.169 HD
ENDBRANCH  19  22
ENDBRANCH   5  19
TORSDOF 6
ENDMDL
MODEL 5
REMARK VINA RESULT: -5.343733069      0.101      4.384
REMARK  6 active torsions:
REMARK  status: ('A' for Active; 'I' for Inactive)
REMARK    1  A    between atoms: N1_1  and  S1_4 
REMARK    2  A    between atoms: S1_4  and  C1_7 
REMARK    3  A    between atoms: C3_9  and  S2_10 
REMARK    4  A    between atoms: S2_10  and  N2_11 
REMARK    5  A    between atoms: C5_17  and  S3_18 
REMARK    6  A    between atoms: S3_18  and  N3_19 
ROOT
HETATM    1  C1  UNL     1      37.344  -5.725  13.498  1.00  0.00     0.082 A 
HETATM    2  C2  UNL     1      37.283  -4.412  13.070  1.00  0.00     0.050 A 
HETATM    3  C3  UNL     1      36.156  -3.950  12.400  1.00  0.00     0.082 A 
HETATM    4  C4  UNL     1      35.118  -4.828  12.179  1.00  0.00     0.050 A 
HETATM    5  C5  UNL     1      35.160  -6.149  12.600  1.00  0.00     0.082 A 
HETATM    6  C6  UNL     1      36.300  -6.596  13.272  1.00  0.00     0.050 A 
ENDROOT
BRANCH   1   7
HETATM    7  S1  UNL     1      38.767  -6.296  14.340  1.00  0.00     0.256 S 
HETATM    8  O1  UNL     1      39.025  -5.471  15.579  1.00  0.00    -0.201 OA
HETATM    9  O2  UNL     1      38.560  -7.709  14.800  1.00  0.00    -0.201 OA
BRANCH   7  10
HETATM   10  N1  UNL     1      40.129  -6.269  13.281  1.00  0.00    -0.324 N 
ATOM     11  H12 UNL     1      40.332  -5.502  12.640  1.00  0.00     0.169 HD
ATOM     12  H11 UNL     1      40.692  -7.114  13.386  1.00  0.00     0.169 HD
ENDBRANCH   7  10
ENDBRANCH   1   7
BRANCH   3  13
HETATM   13  S2  UNL     1      36.048  -2.294  11.847  1.00  0.00     0.256 S 
HETATM   14  O3  UNL     1      35.382  -1.459  12.875  1.00  0.00    -0.201 OA
HETATM   15  O4  UNL     1      35.134  -2.315  10.629  1.00  0.00    -0.201 OA
BRANCH  13  16
HETATM   16  N2  UNL     1      37.603  -1.708  11.396  1.00  0.00    -0.324 N 
ATOM     17  H22 UNL     1      37.990  -1.784  10.455  1.00  0.00     0.169 HD
ATOM     18  H21 UNL     1      38.070  -1.283  12.197  1.00  0.00     0.169 HD
ENDBRANCH  13  16
ENDBRANCH   3  13
BRANCH   5  19
HETATM   19  S3  UNL     1      33.841  -7.265  12.319  1.00  0.00     0.256 S 
HETATM   20  O5  UNL     1      33.482  -7.951  13.605  1.00  0.00    -0.201 OA
HETATM   21  O6  UNL     1      34.323  -8.311  11.350  1.00  0.00    -0.201 OA
BRANCH  19  22
HETATM   22  N3  UNL     1      32.469  -6.426  11.646  1.00  0.00    -0.324 N 
ATOM     23  H32 UNL     1      31.509  -6.764  11.705  1.00  0.00     0.169 HD
ATOM     24  H31 UNL     1      32.767  -5.563  11.192  1.00  0.00     0.169 HD
ENDBRANCH  19  22
ENDBRANCH   5  19
TORSDOF 6
ENDMDL
