MODEL 1
REMARK VINA RESULT: -6.860546570      0.000      0.000
REMARK  6 active torsions:
REMARK  status: ('A' for Active; 'I' for Inactive)
REMARK       I    between atoms: N1_2  and  C2_4 
REMARK    1  A    between atoms: C2_4  and  C3_6 
REMARK    2  A    between atoms: C3_6  and  N2_7 
REMARK       I    between atoms: N2_7  and  C4_9 
REMARK    3  A    between atoms: C4_9  and  C5_11 
REMARK       I    between atoms: C5_11  and  N3_13 
REMARK    4  A    between atoms: N3_13  and  C6_15 
REMARK    5  A    between atoms: C7_20  and  S1_21 
REMARK    6  A    between atoms: S1_21  and  N6_22 
ROOT
HETATM    1  C5  UNL     1      36.749   1.714  13.639  1.00  0.00     0.315 C 
HETATM    2  O3  UNL     1      35.649   2.316  13.668  1.00  0.00    -0.262 OA
HETATM    3  N3  UNL     1      37.751   1.997  14.589  1.00  0.00    -0.298 N 
ATOM      4  H3  UNL     1      38.648   2.389  14.301  1.00  0.00     0.171 HD
ENDROOT
BRANCH   3   5
HETATM    5  C6  UNL     1      37.500   1.743  15.852  1.00  0.00     0.169 A 
HETATM    6  N4  UNL     1      36.630   0.867  16.361  1.00  0.00    -0.278 N 
HETATM    7  N5  UNL     1      36.531   0.766  17.621  1.00  0.00    -0.281 N 
ATOM      8  H4  UNL     1      36.056   0.290  15.746  1.00  0.00     0.189 HD
HETATM    9  C7  UNL     1      37.281   1.518  18.413  1.00  0.00     0.208 A 
ATOM     10  H5  UNL     1      35.871   0.102  18.026  1.00  0.00     0.188 HD
HETATM   11  S2  UNL     1      38.176   2.421  17.271  1.00  0.00    -0.020 SA
BRANCH   9  12
HETATM   12  S1  UNL     1      37.345   1.579  20.179  1.00  0.00     0.280 S 
HETATM   13  O4  UNL     1      38.331   0.551  20.651  1.00  0.00    -0.199 OA
HETATM   14  O5  UNL     1      37.843   2.926  20.574  1.00  0.00    -0.199 OA
BRANCH  12  15
HETATM   15  N6  UNL     1      35.793   1.295  20.833  1.00  0.00    -0.323 N 
ATOM     16  H62 UNL     1      34.932   1.689  20.455  1.00  0.00     0.169 HD
ATOM     17  H61 UNL     1      35.862   0.681  21.644  1.00  0.00     0.169 HD
ENDBRANCH  12  15
ENDBRANCH   9  12
ENDBRANCH   3   5
BRANCH   1  18
HETATM   18  C4  UNL     1      36.965   0.721  12.605  1.00  0.00     0.310 C 
HETATM   19  N2  UNL     1      35.992  -0.249  12.251  1.00  0.00    -0.344 N 
ATOM     20  H2  UNL     1      35.102  -0.242  12.751  1.00  0.00     0.163 HD
HETATM   21  O2  UNL     1      38.067   0.726  12.002  1.00  0.00    -0.262 OA
BRANCH  19  22
HETATM   22  C3  UNL     1      36.186  -1.234  11.238  1.00  0.00     0.225 C 
BRANCH  22  23
HETATM   23  C2  UNL     1      35.601  -2.552  11.516  1.00  0.00     0.234 C 
HETATM   24  N1  UNL     1      35.654  -3.040  12.846  1.00  0.00    -0.364 N 
HETATM   25  C1  UNL     1      35.099  -4.326  13.193  1.00  0.00     0.149 C 
ATOM     26  H1  UNL     1      36.092  -2.471  13.571  1.00  0.00     0.161 HD
HETATM   27  O1  UNL     1      35.058  -3.273  10.645  1.00  0.00    -0.272 OA
ENDBRANCH  22  23
ENDBRANCH  19  22
ENDBRANCH   1  18
TORSDOF 6
ENDMDL
MODEL 2
REMARK VINA RESULT: -6.694079364      3.833      5.898
REMARK  6 active torsions:
REMARK  status: ('A' for Active; 'I' for Inactive)
REMARK       I    between atoms: N1_2  and  C2_4 
REMARK    1  A    between atoms: C2_4  and  C3_6 
REMARK    2  A    between atoms: C3_6  and  N2_7 
REMARK       I    between atoms: N2_7  and  C4_9 
REMARK    3  A    between atoms: C4_9  and  C5_11 
REMARK       I    between atoms: C5_11  and  N3_13 
REMARK    4  A    between atoms: N3_13  and  C6_15 
REMARK    5  A    between atoms: C7_20  and  S1_21 
REMARK    6  A    between atoms: S1_21  and  N6_22 
ROOT
HETATM    1  C5  UNL     1      35.632  -3.344  11.680  1.00  0.00     0.315 C 
HETATM    2  O3  UNL     1      34.974  -2.765  10.783  1.00  0.00    -0.262 OA
HETATM    3  N3  UNL     1      36.897  -2.860  12.071  1.00  0.00    -0.298 N 
ATOM      4  H3  UNL     1      37.737  -3.424  11.937  1.00  0.00     0.171 HD
ENDROOT
BRANCH   3   5
HETATM    5  C6  UNL     1      36.966  -1.666  12.613  1.00  0.00     0.169 A 
HETATM    6  N4  UNL     1      37.259  -1.349  13.876  1.00  0.00    -0.278 N 
HETATM    7  N5  UNL     1      37.276  -0.126  14.211  1.00  0.00    -0.281 N 
ATOM      8  H4  UNL     1      37.466  -2.077  14.560  1.00  0.00     0.189 HD
HETATM    9  C7  UNL     1      37.006   0.816  13.318  1.00  0.00     0.208 A 
ATOM     10  H5  UNL     1      37.497   0.134  15.172  1.00  0.00     0.188 HD
HETATM   11  S2  UNL     1      36.713  -0.122  11.919  1.00  0.00    -0.020 SA
BRANCH   9  12
HETATM   12  S1  UNL     1      36.960   2.572  13.512  1.00  0.00     0.280 S 
HETATM   13  O4  UNL     1      37.474   3.199  12.249  1.00  0.00    -0.199 OA
HETATM   14  O5  UNL     1      35.538   2.977  13.694  1.00  0.00    -0.199 OA
BRANCH  12  15
HETATM   15  N6  UNL     1      37.898   3.039  14.860  1.00  0.00    -0.323 N 
ATOM     16  H62 UNL     1      38.651   2.476  15.257  1.00  0.00     0.169 HD
ATOM     17  H61 UNL     1      37.593   3.950  15.201  1.00  0.00     0.169 HD
ENDBRANCH  12  15
ENDBRANCH   9  12
ENDBRANCH   3   5
BRANCH   1  18
HETATM   18  C4  UNL     1      35.062  -4.522  12.303  1.00  0.00     0.310 C 
HETATM   19  N2  UNL     1      34.216  -5.428  11.612  1.00  0.00    -0.344 N 
ATOM     20  H2  UNL     1      34.004  -5.235  10.632  1.00  0.00     0.163 HD
HETATM   21  O2  UNL     1      35.333  -4.742  13.510  1.00  0.00    -0.262 OA
BRANCH  19  22
HETATM   22  C3  UNL     1      33.646  -6.592  12.208  1.00  0.00     0.225 C 
BRANCH  22  23
HETATM   23  C2  UNL     1      33.805  -7.836  11.444  1.00  0.00     0.234 C 
HETATM   24  N1  UNL     1      34.812  -7.885  10.447  1.00  0.00    -0.364 N 
HETATM   25  C1  UNL     1      35.026  -9.074   9.658  1.00  0.00     0.149 C 
ATOM     26  H1  UNL     1      35.397  -7.064  10.286  1.00  0.00     0.161 HD
HETATM   27  O1  UNL     1      33.100  -8.858  11.620  1.00  0.00    -0.272 OA
ENDBRANCH  22  23
ENDBRANCH  19  22
ENDBRANCH   1  18
TORSDOF 6
ENDMDL
MODEL 3
REMARK VINA RESULT: -6.510989644      3.947      5.857
REMARK  6 active torsions:
REMARK  status: ('A' for Active; 'I' for Inactive)
REMARK       I    between atoms: N1_2  and  C2_4 
REMARK    1  A    between atoms: C2_4  and  C3_6 
REMARK    2  A    between atoms: C3_6  and  N2_7 
REMARK       I    between atoms: N2_7  and  C4_9 
REMARK    3  A    between atoms: C4_9  and  C5_11 
REMARK       I    between atoms: C5_11  and  N3_13 
REMARK    4  A    between atoms: N3_13  and  C6_15 
REMARK    5  A    between atoms: C7_20  and  S1_21 
REMARK    6  A    between atoms: S1_21  and  N6_22 
ROOT
HETATM    1  C5  UNL     1      35.610  -3.093  11.500  1.00  0.00     0.315 C 
HETATM    2  O3  UNL     1      34.869  -2.614  10.609  1.00  0.00    -0.262 OA
HETATM    3  N3  UNL     1      36.891  -2.554  11.740  1.00  0.00    -0.298 N 
ATOM      4  H3  UNL     1      37.730  -3.114  11.591  1.00  0.00     0.171 HD
ENDROOT
BRANCH   3   5
HETATM    5  C6  UNL     1      36.974  -1.313  12.159  1.00  0.00     0.169 A 
HETATM    6  N4  UNL     1      35.999  -0.535  12.636  1.00  0.00    -0.278 N 
HETATM    7  N5  UNL     1      36.280   0.648  12.994  1.00  0.00    -0.281 N 
ATOM      8  H4  UNL     1      35.044  -0.887  12.710  1.00  0.00     0.189 HD
HETATM    9  C7  UNL     1      37.522   1.099  12.895  1.00  0.00     0.208 A 
ATOM     10  H5  UNL     1      35.547   1.256  13.359  1.00  0.00     0.188 HD
HETATM   11  S2  UNL     1      38.324  -0.265  12.248  1.00  0.00    -0.020 SA
BRANCH   9  12
HETATM   12  S1  UNL     1      38.183   2.684  13.317  1.00  0.00     0.280 S 
HETATM   13  O4  UNL     1      39.677   2.567  13.390  1.00  0.00    -0.199 OA
HETATM   14  O5  UNL     1      37.837   3.631  12.221  1.00  0.00    -0.199 OA
BRANCH  12  15
HETATM   15  N6  UNL     1      37.529   3.215  14.801  1.00  0.00    -0.323 N 
ATOM     16  H62 UNL     1      37.803   4.078  15.272  1.00  0.00     0.169 HD
ATOM     17  H61 UNL     1      36.834   2.549  15.138  1.00  0.00     0.169 HD
ENDBRANCH  12  15
ENDBRANCH   9  12
ENDBRANCH   3   5
BRANCH   1  18
HETATM   18  C4  UNL     1      35.120  -4.215  12.276  1.00  0.00     0.310 C 
HETATM   19  N2  UNL     1      34.327  -5.251  11.718  1.00  0.00    -0.344 N 
ATOM     20  H2  UNL     1      34.095  -5.198  10.726  1.00  0.00     0.163 HD
HETATM   21  O2  UNL     1      35.414  -4.263  13.497  1.00  0.00    -0.262 OA
BRANCH  19  22
HETATM   22  C3  UNL     1      33.835  -6.363  12.466  1.00  0.00     0.225 C 
BRANCH  22  23
HETATM   23  C2  UNL     1      33.895  -7.661  11.781  1.00  0.00     0.234 C 
HETATM   24  N1  UNL     1      34.728  -7.778  10.640  1.00  0.00    -0.364 N 
HETATM   25  C1  UNL     1      34.836  -9.022   9.918  1.00  0.00     0.149 C 
ATOM     26  H1  UNL     1      35.261  -6.967  10.324  1.00  0.00     0.161 HD
HETATM   27  O1  UNL     1      33.250  -8.673  12.147  1.00  0.00    -0.272 OA
ENDBRANCH  22  23
ENDBRANCH  19  22
ENDBRANCH   1  18
TORSDOF 6
ENDMDL
MODEL 4
REMARK VINA RESULT: -6.387241902      3.744      5.529
REMARK  6 active torsions:
REMARK  status: ('A' for Active; 'I' for Inactive)
REMARK       I    between atoms: N1_2  and  C2_4 
REMARK    1  A    between atoms: C2_4  and  C3_6 
REMARK    2  A    between atoms: C3_6  and  N2_7 
REMARK       I    between atoms: N2_7  and  C4_9 
REMARK    3  A    between atoms: C4_9  and  C5_11 
REMARK       I    between atoms: C5_11  and  N3_13 
REMARK    4  A    between atoms: N3_13  and  C6_15 
REMARK    5  A    between atoms: C7_20  and  S1_21 
REMARK    6  A    between atoms: S1_21  and  N6_22 
ROOT
HETATM    1  C5  UNL     1      35.713  -2.755  11.410  1.00  0.00     0.315 C 
HETATM    2  O3  UNL     1      34.725  -2.258  10.819  1.00  0.00    -0.262 OA
HETATM    3  N3  UNL     1      36.944  -2.069  11.456  1.00  0.00    -0.298 N 
ATOM      4  H3  UNL     1      37.777  -2.460  11.017  1.00  0.00     0.171 HD
ENDROOT
BRANCH   3   5
HETATM    5  C6  UNL     1      36.989  -0.915  12.080  1.00  0.00     0.169 A 
HETATM    6  N4  UNL     1      35.983  -0.237  12.637  1.00  0.00    -0.278 N 
HETATM    7  N5  UNL     1      36.229   0.872  13.200  1.00  0.00    -0.281 N 
ATOM      8  H4  UNL     1      35.032  -0.606  12.610  1.00  0.00     0.189 HD
HETATM    9  C7  UNL     1      37.467   1.345  13.231  1.00  0.00     0.208 A 
ATOM     10  H5  UNL     1      35.472   1.403  13.630  1.00  0.00     0.188 HD
HETATM   11  S2  UNL     1      38.317   0.116  12.401  1.00  0.00    -0.020 SA
BRANCH   9  12
HETATM   12  S1  UNL     1      38.083   2.843  13.940  1.00  0.00     0.280 S 
HETATM   13  O4  UNL     1      36.979   3.479  14.731  1.00  0.00    -0.199 OA
HETATM   14  O5  UNL     1      39.188   2.488  14.874  1.00  0.00    -0.199 OA
BRANCH  12  15
HETATM   15  N6  UNL     1      38.645   3.886  12.710  1.00  0.00    -0.323 N 
ATOM     16  H62 UNL     1      38.064   4.241  11.951  1.00  0.00     0.169 HD
ATOM     17  H61 UNL     1      39.633   4.094  12.851  1.00  0.00     0.169 HD
ENDBRANCH  12  15
ENDBRANCH   9  12
ENDBRANCH   3   5
BRANCH   1  18
HETATM   18  C4  UNL     1      35.560  -4.050  12.042  1.00  0.00     0.310 C 
HETATM   19  N2  UNL     1      34.371  -4.819  11.948  1.00  0.00    -0.344 N 
ATOM     20  H2  UNL     1      33.593  -4.437  11.409  1.00  0.00     0.163 HD
HETATM   21  O2  UNL     1      36.528  -4.504  12.701  1.00  0.00    -0.262 OA
BRANCH  19  22
HETATM   22  C3  UNL     1      34.202  -6.096  12.563  1.00  0.00     0.225 C 
BRANCH  22  23
HETATM   23  C2  UNL     1      34.039  -7.226  11.639  1.00  0.00     0.234 C 
HETATM   24  N1  UNL     1      35.119  -7.547  10.778  1.00  0.00    -0.364 N 
HETATM   25  C1  UNL     1      35.030  -8.644   9.845  1.00  0.00     0.149 C 
ATOM     26  H1  UNL     1      35.974  -6.992  10.818  1.00  0.00     0.161 HD
HETATM   27  O1  UNL     1      33.000  -7.924  11.567  1.00  0.00    -0.272 OA
ENDBRANCH  22  23
ENDBRANCH  19  22
ENDBRANCH   1  18
TORSDOF 6
ENDMDL
MODEL 5
REMARK VINA RESULT: -6.376223885      4.131      6.083
REMARK  6 active torsions:
REMARK  status: ('A' for Active; 'I' for Inactive)
REMARK       I    between atoms: N1_2  and  C2_4 
REMARK    1  A    between atoms: C2_4  and  C3_6 
REMARK    2  A    between atoms: C3_6  and  N2_7 
REMARK       I    between atoms: N2_7  and  C4_9 
REMARK    3  A    between atoms: C4_9  and  C5_11 
REMARK       I    between atoms: C5_11  and  N3_13 
REMARK    4  A    between atoms: N3_13  and  C6_15 
REMARK    5  A    between atoms: C7_20  and  S1_21 
REMARK    6  A    between atoms: S1_21  and  N6_22 
ROOT
HETATM    1  C5  UNL     1      35.596  -3.558  11.555  1.00  0.00     0.315 C 
HETATM    2  O3  UNL     1      35.165  -3.207  10.431  1.00  0.00    -0.262 OA
HETATM    3  N3  UNL     1      36.779  -2.997  12.080  1.00  0.00    -0.298 N 
ATOM      4  H3  UNL     1      37.598  -3.577  12.259  1.00  0.00     0.171 HD
ENDROOT
BRANCH   3   5
HETATM    5  C6  UNL     1      36.796  -1.709  12.333  1.00  0.00     0.169 A 
HETATM    6  N4  UNL     1      35.768  -0.913  12.636  1.00  0.00    -0.278 N 
HETATM    7  N5  UNL     1      35.989   0.317  12.849  1.00  0.00    -0.281 N 
ATOM      8  H4  UNL     1      34.822  -1.288  12.696  1.00  0.00     0.189 HD
HETATM    9  C7  UNL     1      37.222   0.798  12.770  1.00  0.00     0.208 A 
ATOM     10  H5  UNL     1      35.215   0.940  13.081  1.00  0.00     0.188 HD
HETATM   11  S2  UNL     1      38.106  -0.607  12.367  1.00  0.00    -0.020 SA
BRANCH   9  12
HETATM   12  S1  UNL     1      37.805   2.449  13.016  1.00  0.00     0.280 S 
HETATM   13  O4  UNL     1      39.112   2.600  12.294  1.00  0.00    -0.199 OA
HETATM   14  O5  UNL     1      36.818   3.381  12.404  1.00  0.00    -0.199 OA
BRANCH  12  15
HETATM   15  N6  UNL     1      37.980   2.767  14.685  1.00  0.00    -0.323 N 
ATOM     16  H62 UNL     1      38.854   3.060  15.124  1.00  0.00     0.169 HD
ATOM     17  H61 UNL     1      37.093   2.621  15.165  1.00  0.00     0.169 HD
ENDBRANCH  12  15
ENDBRANCH   9  12
ENDBRANCH   3   5
BRANCH   1  18
HETATM   18  C4  UNL     1      34.852  -4.554  12.300  1.00  0.00     0.310 C 
HETATM   19  N2  UNL     1      34.165  -5.629  11.678  1.00  0.00    -0.344 N 
ATOM     20  H2  UNL     1      34.201  -5.698  10.660  1.00  0.00     0.163 HD
HETATM   21  O2  UNL     1      34.818  -4.452  13.552  1.00  0.00    -0.262 OA
BRANCH  19  22
HETATM   22  C3  UNL     1      33.428  -6.618  12.394  1.00  0.00     0.225 C 
BRANCH  22  23
HETATM   23  C2  UNL     1      34.235  -7.636  13.079  1.00  0.00     0.234 C 
HETATM   24  N1  UNL     1      35.305  -8.232  12.366  1.00  0.00    -0.364 N 
HETATM   25  C1  UNL     1      36.140  -9.239  12.975  1.00  0.00     0.149 C 
ATOM     26  H1  UNL     1      35.488  -7.945  11.404  1.00  0.00     0.161 HD
HETATM   27  O1  UNL     1      34.032  -8.010  14.259  1.00  0.00    -0.272 OA
ENDBRANCH  22  23
ENDBRANCH  19  22
ENDBRANCH   1  18
TORSDOF 6
ENDMDL
