MODEL 1
REMARK VINA RESULT: -6.269756862      0.000      0.000
REMARK  6 active torsions:
REMARK  status: ('A' for Active; 'I' for Inactive)
REMARK       I    between atoms: N1_2  and  C2_4 
REMARK    1  A    between atoms: C2_4  and  C3_6 
REMARK       I    between atoms: C3_6  and  N2_8 
REMARK    2  A    between atoms: N2_8  and  C4_10 
REMARK    3  A    between atoms: C6_12  and  N3_13 
REMARK    4  A    between atoms: C8_16  and  S1_17 
REMARK    5  A    between atoms: S1_17  and  N4_20 
REMARK    6  A    between atoms: N5_23  and  O5_24 
ROOT
HETATM    1  C4  UNL     1      35.292  -4.839  12.371  1.00  0.00     0.127 A 
HETATM    2  C5  UNL     1      35.222  -3.508  12.024  1.00  0.00     0.082 A 
HETATM    3  C6  UNL     1      35.964  -2.538  12.706  1.00  0.00     0.076 A 
HETATM    4  C8  UNL     1      36.762  -2.960  13.729  1.00  0.00     0.221 A 
HETATM    5  N5  UNL     1      36.818  -4.300  14.062  1.00  0.00    -0.146 N 
HETATM    6  N6  UNL     1      36.100  -5.174  13.390  1.00  0.00    -0.258 N 
ATOM      7  H6  UNL     1      36.161  -6.157  13.655  1.00  0.00     0.191 HD
ENDROOT
BRANCH   1   8
HETATM    8  N2  UNL     1      34.622  -5.738  11.758  1.00  0.00    -0.304 N 
HETATM    9  C3  UNL     1      33.618  -6.532  12.321  1.00  0.00     0.315 C 
HETATM   10  O2  UNL     1      32.421  -6.220  12.104  1.00  0.00    -0.262 OA
ATOM     11  H2  UNL     1      34.838  -5.890  10.773  1.00  0.00     0.171 HD
BRANCH   9  12
HETATM   12  C2  UNL     1      33.888  -7.702  13.146  1.00  0.00     0.309 C 
HETATM   13  N1  UNL     1      33.567  -9.022  12.729  1.00  0.00    -0.357 N 
HETATM   14  C1  UNL     1      33.825 -10.181  13.525  1.00  0.00     0.149 C 
ATOM     15  H1  UNL     1      33.131  -9.150  11.815  1.00  0.00     0.162 HD
HETATM   16  O1  UNL     1      34.425  -7.561  14.274  1.00  0.00    -0.262 OA
ENDBRANCH   9  12
ENDBRANCH   1   8
BRANCH   3  17
HETATM   17  N3  UNL     1      35.852  -1.183  12.346  1.00  0.00    -0.392 N 
HETATM   18  C7  UNL     1      36.280  -0.664  11.059  1.00  0.00     0.146 C 
ATOM     19  H3  UNL     1      35.449  -0.534  13.021  1.00  0.00     0.159 HD
ENDBRANCH   3  17
BRANCH   5  20
HETATM   20  O5  UNL     1      37.624  -4.721  15.097  1.00  0.00    -0.267 OA
ATOM     21  H5  UNL     1      38.490  -5.066  14.916  1.00  0.00     0.247 HD
ENDBRANCH   5  20
BRANCH   4  22
HETATM   22  S1  UNL     1      37.743  -1.860  14.621  1.00  0.00     0.280 S 
HETATM   23  O3  UNL     1      37.900  -0.511  14.040  1.00  0.00    -0.199 OA
HETATM   24  O4  UNL     1      39.165  -2.443  14.659  1.00  0.00    -0.199 OA
BRANCH  22  25
HETATM   25  N4  UNL     1      37.293  -1.761  16.297  1.00  0.00    -0.318 N 
HETATM   26  C9  UNL     1      37.727  -0.458  16.769  1.00  0.00     0.159 C 
ATOM     27  H4  UNL     1      36.816  -2.478  16.842  1.00  0.00     0.171 HD
ENDBRANCH  22  25
ENDBRANCH   4  22
TORSDOF 6
ENDMDL
MODEL 2
REMARK VINA RESULT: -6.239246204      3.588      5.170
REMARK  6 active torsions:
REMARK  status: ('A' for Active; 'I' for Inactive)
REMARK       I    between atoms: N1_2  and  C2_4 
REMARK    1  A    between atoms: C2_4  and  C3_6 
REMARK       I    between atoms: C3_6  and  N2_8 
REMARK    2  A    between atoms: N2_8  and  C4_10 
REMARK    3  A    between atoms: C6_12  and  N3_13 
REMARK    4  A    between atoms: C8_16  and  S1_17 
REMARK    5  A    between atoms: S1_17  and  N4_20 
REMARK    6  A    between atoms: N5_23  and  O5_24 
ROOT
HETATM    1  C4  UNL     1      37.098  -0.566  11.898  1.00  0.00     0.127 A 
HETATM    2  C5  UNL     1      38.447  -0.367  12.099  1.00  0.00     0.082 A 
HETATM    3  C6  UNL     1      38.916   0.679  12.899  1.00  0.00     0.076 A 
HETATM    4  C8  UNL     1      37.988   1.496  13.475  1.00  0.00     0.221 A 
HETATM    5  N5  UNL     1      36.640   1.281  13.260  1.00  0.00    -0.146 N 
HETATM    6  N6  UNL     1      36.248   0.282  12.498  1.00  0.00    -0.258 N 
ATOM      7  H6  UNL     1      35.248   0.144  12.357  1.00  0.00     0.191 HD
ENDROOT
BRANCH   1   8
HETATM    8  N2  UNL     1      36.653  -1.517  11.170  1.00  0.00    -0.304 N 
HETATM    9  C3  UNL     1      35.490  -2.255  11.415  1.00  0.00     0.315 C 
HETATM   10  O2  UNL     1      34.453  -1.963  10.769  1.00  0.00    -0.262 OA
ATOM     11  H2  UNL     1      37.191  -1.760  10.339  1.00  0.00     0.171 HD
BRANCH   9  12
HETATM   12  C2  UNL     1      35.418  -3.343  12.381  1.00  0.00     0.309 C 
HETATM   13  N1  UNL     1      34.734  -4.559  12.113  1.00  0.00    -0.357 N 
HETATM   14  C1  UNL     1      34.653  -5.637  13.048  1.00  0.00     0.149 C 
ATOM     15  H1  UNL     1      34.277  -4.669  11.207  1.00  0.00     0.162 HD
HETATM   16  O1  UNL     1      35.977  -3.222  13.501  1.00  0.00    -0.262 OA
ENDBRANCH   9  12
ENDBRANCH   1   8
BRANCH   3  17
HETATM   17  N3  UNL     1      40.299   0.873  13.065  1.00  0.00    -0.392 N 
HETATM   18  C7  UNL     1      41.165   1.370  12.010  1.00  0.00     0.146 C 
ATOM     19  H3  UNL     1      40.714   0.655  13.971  1.00  0.00     0.159 HD
ENDBRANCH   3  17
BRANCH   5  20
HETATM   20  O5  UNL     1      35.706   2.109  13.843  1.00  0.00    -0.267 OA
ATOM     21  H5  UNL     1      34.832   2.174  13.477  1.00  0.00     0.247 HD
ENDBRANCH   5  20
BRANCH   4  22
HETATM   22  S1  UNL     1      38.447   2.800  14.504  1.00  0.00     0.280 S 
HETATM   23  O3  UNL     1      39.834   2.768  15.014  1.00  0.00    -0.199 OA
HETATM   24  O4  UNL     1      37.562   2.725  15.759  1.00  0.00    -0.199 OA
BRANCH  22  25
HETATM   25  N4  UNL     1      38.074   4.357  13.828  1.00  0.00    -0.318 N 
HETATM   26  C9  UNL     1      38.778   4.441  12.562  1.00  0.00     0.159 C 
ATOM     27  H4  UNL     1      37.477   5.073  14.242  1.00  0.00     0.171 HD
ENDBRANCH  22  25
ENDBRANCH   4  22
TORSDOF 6
ENDMDL
MODEL 3
REMARK VINA RESULT: -6.229648625      2.248      3.292
REMARK  6 active torsions:
REMARK  status: ('A' for Active; 'I' for Inactive)
REMARK       I    between atoms: N1_2  and  C2_4 
REMARK    1  A    between atoms: C2_4  and  C3_6 
REMARK       I    between atoms: C3_6  and  N2_8 
REMARK    2  A    between atoms: N2_8  and  C4_10 
REMARK    3  A    between atoms: C6_12  and  N3_13 
REMARK    4  A    between atoms: C8_16  and  S1_17 
REMARK    5  A    between atoms: S1_17  and  N4_20 
REMARK    6  A    between atoms: N5_23  and  O5_24 
ROOT
HETATM    1  C4  UNL     1      34.700  -4.556  12.129  1.00  0.00     0.127 A 
HETATM    2  C5  UNL     1      35.478  -4.548  13.265  1.00  0.00     0.082 A 
HETATM    3  C6  UNL     1      36.396  -3.521  13.511  1.00  0.00     0.076 A 
HETATM    4  C8  UNL     1      36.490  -2.526  12.583  1.00  0.00     0.221 A 
HETATM    5  N5  UNL     1      35.700  -2.552  11.450  1.00  0.00    -0.146 N 
HETATM    6  N6  UNL     1      34.852  -3.541  11.264  1.00  0.00    -0.258 N 
ATOM      7  H6  UNL     1      34.280  -3.536  10.420  1.00  0.00     0.191 HD
ENDROOT
BRANCH   1   8
HETATM    8  N2  UNL     1      33.856  -5.486  11.890  1.00  0.00    -0.304 N 
HETATM    9  C3  UNL     1      34.032  -6.842  12.184  1.00  0.00     0.315 C 
HETATM   10  O2  UNL     1      33.475  -7.305  13.210  1.00  0.00    -0.262 OA
ATOM     11  H2  UNL     1      32.979  -5.216  11.445  1.00  0.00     0.171 HD
BRANCH   9  12
HETATM   12  C2  UNL     1      34.828  -7.744  11.364  1.00  0.00     0.309 C 
HETATM   13  N1  UNL     1      34.299  -8.409  10.225  1.00  0.00    -0.357 N 
HETATM   14  C1  UNL     1      35.065  -9.298   9.408  1.00  0.00     0.149 C 
ATOM     15  H1  UNL     1      33.323  -8.245   9.977  1.00  0.00     0.162 HD
HETATM   16  O1  UNL     1      36.033  -7.957  11.656  1.00  0.00    -0.262 OA
ENDBRANCH   9  12
ENDBRANCH   1   8
BRANCH   3  17
HETATM   17  N3  UNL     1      37.196  -3.554  14.667  1.00  0.00    -0.392 N 
HETATM   18  C7  UNL     1      38.357  -4.415  14.807  1.00  0.00     0.146 C 
ATOM     19  H3  UNL     1      36.949  -2.943  15.446  1.00  0.00     0.159 HD
ENDBRANCH   3  17
BRANCH   5  20
HETATM   20  O5  UNL     1      35.800  -1.545  10.515  1.00  0.00    -0.267 OA
ATOM     21  H5  UNL     1      35.144  -1.462   9.833  1.00  0.00     0.247 HD
ENDBRANCH   5  20
BRANCH   4  22
HETATM   22  S1  UNL     1      37.564  -1.194  12.794  1.00  0.00     0.280 S 
HETATM   23  O3  UNL     1      38.066  -0.975  14.166  1.00  0.00    -0.199 OA
HETATM   24  O4  UNL     1      36.780   0.083  12.450  1.00  0.00    -0.199 OA
BRANCH  22  25
HETATM   25  N4  UNL     1      38.872  -1.196  11.650  1.00  0.00    -0.318 N 
HETATM   26  C9  UNL     1      39.614  -2.425  11.867  1.00  0.00     0.159 C 
ATOM     27  H4  UNL     1      39.079  -0.474  10.961  1.00  0.00     0.171 HD
ENDBRANCH  22  25
ENDBRANCH   4  22
TORSDOF 6
ENDMDL
MODEL 4
REMARK VINA RESULT: -6.161887409      3.230      4.955
REMARK  6 active torsions:
REMARK  status: ('A' for Active; 'I' for Inactive)
REMARK       I    between atoms: N1_2  and  C2_4 
REMARK    1  A    between atoms: C2_4  and  C3_6 
REMARK       I    between atoms: C3_6  and  N2_8 
REMARK    2  A    between atoms: N2_8  and  C4_10 
REMARK    3  A    between atoms: C6_12  and  N3_13 
REMARK    4  A    between atoms: C8_16  and  S1_17 
REMARK    5  A    between atoms: S1_17  and  N4_20 
REMARK    6  A    between atoms: N5_23  and  O5_24 
ROOT
HETATM    1  C4  UNL     1      37.107  -0.527  12.022  1.00  0.00     0.127 A 
HETATM    2  C5  UNL     1      38.436  -0.349  12.339  1.00  0.00     0.082 A 
HETATM    3  C6  UNL     1      38.850   0.692  13.177  1.00  0.00     0.076 A 
HETATM    4  C8  UNL     1      37.888   1.525  13.669  1.00  0.00     0.221 A 
HETATM    5  N5  UNL     1      36.561   1.330  13.338  1.00  0.00    -0.146 N 
HETATM    6  N6  UNL     1      36.222   0.335  12.546  1.00  0.00    -0.258 N 
ATOM      7  H6  UNL     1      35.235   0.213  12.319  1.00  0.00     0.191 HD
ENDROOT
BRANCH   1   8
HETATM    8  N2  UNL     1      36.711  -1.473  11.260  1.00  0.00    -0.304 N 
HETATM    9  C3  UNL     1      35.544  -2.225  11.432  1.00  0.00     0.315 C 
HETATM   10  O2  UNL     1      34.541  -1.935  10.734  1.00  0.00    -0.262 OA
ATOM     11  H2  UNL     1      37.297  -1.700  10.456  1.00  0.00     0.171 HD
BRANCH   9  12
HETATM   12  C2  UNL     1      35.432  -3.326  12.379  1.00  0.00     0.309 C 
HETATM   13  N1  UNL     1      34.738  -4.528  12.073  1.00  0.00    -0.357 N 
HETATM   14  C1  UNL     1      34.618  -5.619  12.990  1.00  0.00     0.149 C 
ATOM     15  H1  UNL     1      34.305  -4.618  11.155  1.00  0.00     0.162 HD
HETATM   16  O1  UNL     1      35.961  -3.230  13.516  1.00  0.00    -0.262 OA
ENDBRANCH   9  12
ENDBRANCH   1   8
BRANCH   3  17
HETATM   17  N3  UNL     1      40.217   0.865  13.462  1.00  0.00    -0.392 N 
HETATM   18  C7  UNL     1      40.940   0.043  14.416  1.00  0.00     0.146 C 
ATOM     19  H3  UNL     1      40.724   1.603  12.974  1.00  0.00     0.159 HD
ENDBRANCH   3  17
BRANCH   5  20
HETATM   20  O5  UNL     1      35.594   2.174  13.837  1.00  0.00    -0.267 OA
ATOM     21  H5  UNL     1      35.487   3.045  13.473  1.00  0.00     0.247 HD
ENDBRANCH   5  20
BRANCH   4  22
HETATM   22  S1  UNL     1      38.278   2.824  14.733  1.00  0.00     0.280 S 
HETATM   23  O3  UNL     1      37.287   3.917  14.813  1.00  0.00    -0.199 OA
HETATM   24  O4  UNL     1      39.556   3.487  14.195  1.00  0.00    -0.199 OA
BRANCH  22  25
HETATM   25  N4  UNL     1      38.730   2.283  16.321  1.00  0.00    -0.318 N 
HETATM   26  C9  UNL     1      37.711   1.339  16.745  1.00  0.00     0.159 C 
ATOM     27  H4  UNL     1      39.551   2.572  16.852  1.00  0.00     0.171 HD
ENDBRANCH  22  25
ENDBRANCH   4  22
TORSDOF 6
ENDMDL
MODEL 5
REMARK VINA RESULT: -6.095082200      1.953      3.045
REMARK  6 active torsions:
REMARK  status: ('A' for Active; 'I' for Inactive)
REMARK       I    between atoms: N1_2  and  C2_4 
REMARK    1  A    between atoms: C2_4  and  C3_6 
REMARK       I    between atoms: C3_6  and  N2_8 
REMARK    2  A    between atoms: N2_8  and  C4_10 
REMARK    3  A    between atoms: C6_12  and  N3_13 
REMARK    4  A    between atoms: C8_16  and  S1_17 
REMARK    5  A    between atoms: S1_17  and  N4_20 
REMARK    6  A    between atoms: N5_23  and  O5_24 
ROOT
HETATM    1  C4  UNL     1      35.101  -4.601  11.838  1.00  0.00     0.127 A 
HETATM    2  C5  UNL     1      35.774  -4.537  13.038  1.00  0.00     0.082 A 
HETATM    3  C6  UNL     1      36.508  -3.402  13.400  1.00  0.00     0.076 A 
HETATM    4  C8  UNL     1      36.531  -2.360  12.520  1.00  0.00     0.221 A 
HETATM    5  N5  UNL     1      35.850  -2.445  11.321  1.00  0.00    -0.146 N 
HETATM    6  N6  UNL     1      35.173  -3.535  11.026  1.00  0.00    -0.258 N 
ATOM      7  H6  UNL     1      34.678  -3.571  10.135  1.00  0.00     0.191 HD
ENDROOT
BRANCH   1   8
HETATM    8  N2  UNL     1      34.425  -5.629  11.492  1.00  0.00    -0.304 N 
HETATM    9  C3  UNL     1      33.741  -6.485  12.362  1.00  0.00     0.315 C 
HETATM   10  O2  UNL     1      32.498  -6.345  12.479  1.00  0.00    -0.262 OA
ATOM     11  H2  UNL     1      34.382  -5.845  10.497  1.00  0.00     0.171 HD
BRANCH   9  12
HETATM   12  C2  UNL     1      34.394  -7.530  13.138  1.00  0.00     0.309 C 
HETATM   13  N1  UNL     1      35.631  -8.112  12.748  1.00  0.00    -0.357 N 
HETATM   14  C1  UNL     1      36.286  -9.138  13.497  1.00  0.00     0.149 C 
ATOM     15  H1  UNL     1      36.074  -7.782  11.890  1.00  0.00     0.162 HD
HETATM   16  O1  UNL     1      33.861  -7.948  14.197  1.00  0.00    -0.262 OA
ENDBRANCH   9  12
ENDBRANCH   1   8
BRANCH   3  17
HETATM   17  N3  UNL     1      37.207  -3.376  14.621  1.00  0.00    -0.392 N 
HETATM   18  C7  UNL     1      38.404  -4.159  14.869  1.00  0.00     0.146 C 
ATOM     19  H3  UNL     1      36.856  -2.776  15.367  1.00  0.00     0.159 HD
ENDBRANCH   3  17
BRANCH   5  20
HETATM   20  O5  UNL     1      35.877  -1.391  10.435  1.00  0.00    -0.267 OA
ATOM     21  H5  UNL     1      35.909  -0.498  10.758  1.00  0.00     0.247 HD
ENDBRANCH   5  20
BRANCH   4  22
HETATM   22  S1  UNL     1      37.378  -0.901  12.872  1.00  0.00     0.280 S 
HETATM   23  O3  UNL     1      37.771  -0.701  14.281  1.00  0.00    -0.199 OA
HETATM   24  O4  UNL     1      36.427   0.266  12.557  1.00  0.00    -0.199 OA
BRANCH  22  25
HETATM   25  N4  UNL     1      38.727  -0.631  11.810  1.00  0.00    -0.318 N 
HETATM   26  C9  UNL     1      39.617  -1.767  11.971  1.00  0.00     0.159 C 
ATOM     27  H4  UNL     1      38.867   0.169  11.194  1.00  0.00     0.171 HD
ENDBRANCH  22  25
ENDBRANCH   4  22
TORSDOF 6
ENDMDL
