MODEL 1
REMARK VINA RESULT: -6.510872827      0.000      0.000
REMARK  8 active torsions:
REMARK  status: ('A' for Active; 'I' for Inactive)
REMARK    1  A    between atoms: C1_2  and  C2_4 
REMARK    2  A    between atoms: C2_4  and  N2_5 
REMARK    3  A    between atoms: N2_5  and  C3_6 
REMARK    4  A    between atoms: C3_6  and  O2_7 
REMARK    5  A    between atoms: C3_6  and  C4_9 
REMARK       I    between atoms: C4_9  and  N3_11 
REMARK    6  A    between atoms: N3_11  and  C5_13 
REMARK    7  A    between atoms: C6_18  and  S1_19 
REMARK    8  A    between atoms: S1_19  and  N6_20 
ROOT
HETATM    1  C5  UNL     1      35.980  -3.194  12.924  1.00  0.00     0.169 A 
HETATM    2  N4  UNL     1      35.494  -3.316  11.685  1.00  0.00    -0.278 N 
ATOM      3  H4  UNL     1      35.660  -2.588  10.989  1.00  0.00     0.189 HD
HETATM    4  N5  UNL     1      34.824  -4.349  11.389  1.00  0.00    -0.281 N 
ATOM      5  H5  UNL     1      34.448  -4.456  10.447  1.00  0.00     0.188 HD
HETATM    6  C6  UNL     1      34.608  -5.290  12.294  1.00  0.00     0.208 A 
HETATM    7  S2  UNL     1      35.424  -4.644  13.651  1.00  0.00    -0.020 SA
ENDROOT
BRANCH   1   8
HETATM    8  N3  UNL     1      36.691  -2.204  13.414  1.00  0.00    -0.298 N 
HETATM    9  C4  UNL     1      37.603  -1.589  12.494  1.00  0.00     0.312 C 
HETATM   10  O3  UNL     1      38.656  -2.157  12.289  1.00  0.00    -0.262 OA
ATOM     11  H3  UNL     1      36.601  -1.895  14.382  1.00  0.00     0.171 HD
BRANCH   9  12
HETATM   12  C3  UNL     1      37.203  -0.337  11.877  1.00  0.00     0.283 C 
BRANCH  12  13
HETATM   13  N2  UNL     1      37.470   0.891  12.476  1.00  0.00    -0.384 NA
BRANCH  13  14
HETATM   14  C2  UNL     1      37.728   2.079  13.054  1.00  0.00     0.256 C 
BRANCH  14  15
HETATM   15  C1  UNL     1      36.606   2.778  13.712  1.00  0.00     0.283 C 
HETATM   16  N1  UNL     1      36.967   3.988  14.409  1.00  0.00    -0.056 NA
HETATM   17  O1  UNL     1      35.446   2.403  13.697  1.00  0.00    -0.269 OA
ENDBRANCH  14  15
ENDBRANCH  13  14
ENDBRANCH  12  13
BRANCH  12  18
HETATM   18  O2  UNL     1      36.583  -0.429  10.738  1.00  0.00    -0.331 OA
ATOM     19  H2  UNL     1      35.818  -0.981  10.624  1.00  0.00     0.220 HD
ENDBRANCH  12  18
ENDBRANCH   9  12
ENDBRANCH   1   8
BRANCH   6  20
HETATM   20  S1  UNL     1      33.728  -6.814  12.171  1.00  0.00     0.280 S 
HETATM   21  O4  UNL     1      34.462  -7.649  11.154  1.00  0.00    -0.199 OA
HETATM   22  O5  UNL     1      33.567  -7.485  13.478  1.00  0.00    -0.199 OA
BRANCH  20  23
HETATM   23  N6  UNL     1      32.176  -6.410  11.480  1.00  0.00    -0.323 N 
ATOM     24  H62 UNL     1      31.784  -5.474  11.378  1.00  0.00     0.169 HD
ATOM     25  H61 UNL     1      31.756  -7.298  11.205  1.00  0.00     0.169 HD
ENDBRANCH  20  23
ENDBRANCH   6  20
TORSDOF 8
ENDMDL
MODEL 2
REMARK VINA RESULT: -6.473588832      2.917      7.828
REMARK  8 active torsions:
REMARK  status: ('A' for Active; 'I' for Inactive)
REMARK    1  A    between atoms: C1_2  and  C2_4 
REMARK    2  A    between atoms: C2_4  and  N2_5 
REMARK    3  A    between atoms: N2_5  and  C3_6 
REMARK    4  A    between atoms: C3_6  and  O2_7 
REMARK    5  A    between atoms: C3_6  and  C4_9 
REMARK       I    between atoms: C4_9  and  N3_11 
REMARK    6  A    between atoms: N3_11  and  C5_13 
REMARK    7  A    between atoms: C6_18  and  S1_19 
REMARK    8  A    between atoms: S1_19  and  N6_20 
ROOT
HETATM    1  C5  UNL     1      37.177  -1.108  12.300  1.00  0.00     0.169 A 
HETATM    2  N4  UNL     1      36.006  -0.583  12.672  1.00  0.00    -0.278 N 
ATOM      3  H4  UNL     1      35.169  -1.164  12.719  1.00  0.00     0.189 HD
HETATM    4  N5  UNL     1      35.952   0.648  12.964  1.00  0.00    -0.281 N 
ATOM      5  H5  UNL     1      35.065   1.062  13.250  1.00  0.00     0.188 HD
HETATM    6  C6  UNL     1      37.038   1.400  12.899  1.00  0.00     0.208 A 
HETATM    7  S2  UNL     1      38.207   0.261  12.389  1.00  0.00    -0.020 SA
ENDROOT
BRANCH   1   8
HETATM    8  N3  UNL     1      37.429  -2.353  11.963  1.00  0.00    -0.298 N 
HETATM    9  C4  UNL     1      36.505  -3.325  12.470  1.00  0.00     0.312 C 
HETATM   10  O3  UNL     1      36.646  -3.679  13.624  1.00  0.00    -0.262 OA
ATOM     11  H3  UNL     1      38.225  -2.609  11.380  1.00  0.00     0.171 HD
BRANCH   9  12
HETATM   12  C3  UNL     1      35.473  -3.814  11.574  1.00  0.00     0.283 C 
BRANCH  12  13
HETATM   13  N2  UNL     1      35.067  -5.146  11.583  1.00  0.00    -0.384 NA
BRANCH  13  14
HETATM   14  C2  UNL     1      34.673  -6.433  11.593  1.00  0.00     0.256 C 
BRANCH  14  15
HETATM   15  C1  UNL     1      33.385  -6.750  12.240  1.00  0.00     0.283 C 
HETATM   16  N1  UNL     1      33.439  -7.807  13.220  1.00  0.00    -0.056 NA
HETATM   17  O1  UNL     1      32.328  -6.192  11.998  1.00  0.00    -0.269 OA
ENDBRANCH  14  15
ENDBRANCH  13  14
ENDBRANCH  12  13
BRANCH  12  18
HETATM   18  O2  UNL     1      34.953  -2.940  10.763  1.00  0.00    -0.331 OA
ATOM     19  H2  UNL     1      34.026  -2.935  10.556  1.00  0.00     0.220 HD
ENDBRANCH  12  18
ENDBRANCH   9  12
ENDBRANCH   1   8
BRANCH   6  20
HETATM   20  S1  UNL     1      37.263   3.116  13.244  1.00  0.00     0.280 S 
HETATM   21  O4  UNL     1      38.156   3.656  12.157  1.00  0.00    -0.199 OA
HETATM   22  O5  UNL     1      35.983   3.844  13.371  1.00  0.00    -0.199 OA
BRANCH  20  23
HETATM   23  N6  UNL     1      38.171   3.184  14.734  1.00  0.00    -0.323 N 
ATOM     24  H62 UNL     1      37.843   2.898  15.657  1.00  0.00     0.169 HD
ATOM     25  H61 UNL     1      39.084   3.566  14.485  1.00  0.00     0.169 HD
ENDBRANCH  20  23
ENDBRANCH   6  20
TORSDOF 8
ENDMDL
MODEL 3
REMARK VINA RESULT: -6.215680515      2.758      7.738
REMARK  8 active torsions:
REMARK  status: ('A' for Active; 'I' for Inactive)
REMARK    1  A    between atoms: C1_2  and  C2_4 
REMARK    2  A    between atoms: C2_4  and  N2_5 
REMARK    3  A    between atoms: N2_5  and  C3_6 
REMARK    4  A    between atoms: C3_6  and  O2_7 
REMARK    5  A    between atoms: C3_6  and  C4_9 
REMARK       I    between atoms: C4_9  and  N3_11 
REMARK    6  A    between atoms: N3_11  and  C5_13 
REMARK    7  A    between atoms: C6_18  and  S1_19 
REMARK    8  A    between atoms: S1_19  and  N6_20 
ROOT
HETATM    1  C5  UNL     1      37.296  -1.581  12.686  1.00  0.00     0.169 A 
HETATM    2  N4  UNL     1      37.470  -1.195  13.954  1.00  0.00    -0.278 N 
ATOM      3  H4  UNL     1      37.716  -1.875  14.673  1.00  0.00     0.189 HD
HETATM    4  N5  UNL     1      37.326   0.028  14.247  1.00  0.00    -0.281 N 
ATOM      5  H5  UNL     1      37.457   0.337  15.209  1.00  0.00     0.188 HD
HETATM    6  C6  UNL     1      37.005   0.908  13.311  1.00  0.00     0.208 A 
HETATM    7  S2  UNL     1      36.910  -0.092  11.928  1.00  0.00    -0.020 SA
ENDROOT
BRANCH   1   8
HETATM    8  N3  UNL     1      37.402  -2.795  12.194  1.00  0.00    -0.298 N 
HETATM    9  C4  UNL     1      36.436  -3.739  12.676  1.00  0.00     0.312 C 
HETATM   10  O3  UNL     1      36.636  -4.235  13.767  1.00  0.00    -0.262 OA
ATOM     11  H3  UNL     1      38.121  -3.048  11.517  1.00  0.00     0.171 HD
BRANCH   9  12
HETATM   12  C3  UNL     1      35.294  -4.033  11.830  1.00  0.00     0.283 C 
BRANCH  12  13
HETATM   13  N2  UNL     1      34.506  -5.163  12.032  1.00  0.00    -0.384 NA
BRANCH  13  14
HETATM   14  C2  UNL     1      33.743  -6.256  12.227  1.00  0.00     0.256 C 
BRANCH  14  15
HETATM   15  C1  UNL     1      34.153  -7.195  13.290  1.00  0.00     0.283 C 
HETATM   16  N1  UNL     1      33.358  -8.395  13.381  1.00  0.00    -0.056 NA
HETATM   17  O1  UNL     1      35.082  -7.016  14.058  1.00  0.00    -0.269 OA
ENDBRANCH  14  15
ENDBRANCH  13  14
ENDBRANCH  12  13
BRANCH  12  18
HETATM   18  O2  UNL     1      35.050  -3.184  10.875  1.00  0.00    -0.331 OA
ATOM     19  H2  UNL     1      35.437  -3.272  10.012  1.00  0.00     0.220 HD
ENDBRANCH  12  18
ENDBRANCH   9  12
ENDBRANCH   1   8
BRANCH   6  20
HETATM   20  S1  UNL     1      36.743   2.649  13.421  1.00  0.00     0.280 S 
HETATM   21  O4  UNL     1      37.123   3.222  12.080  1.00  0.00    -0.199 OA
HETATM   22  O5  UNL     1      35.369   2.993  13.840  1.00  0.00    -0.199 OA
BRANCH  20  23
HETATM   23  N6  UNL     1      37.914   3.232  14.579  1.00  0.00    -0.323 N 
ATOM     24  H62 UNL     1      38.747   3.783  14.372  1.00  0.00     0.169 HD
ATOM     25  H61 UNL     1      37.588   2.907  15.489  1.00  0.00     0.169 HD
ENDBRANCH  20  23
ENDBRANCH   6  20
TORSDOF 8
ENDMDL
MODEL 4
REMARK VINA RESULT: -6.126816447      6.542      7.969
REMARK  8 active torsions:
REMARK  status: ('A' for Active; 'I' for Inactive)
REMARK    1  A    between atoms: C1_2  and  C2_4 
REMARK    2  A    between atoms: C2_4  and  N2_5 
REMARK    3  A    between atoms: N2_5  and  C3_6 
REMARK    4  A    between atoms: C3_6  and  O2_7 
REMARK    5  A    between atoms: C3_6  and  C4_9 
REMARK       I    between atoms: C4_9  and  N3_11 
REMARK    6  A    between atoms: N3_11  and  C5_13 
REMARK    7  A    between atoms: C6_18  and  S1_19 
REMARK    8  A    between atoms: S1_19  and  N6_20 
ROOT
HETATM    1  C5  UNL     1      37.453   2.017  15.676  1.00  0.00     0.169 A 
HETATM    2  N4  UNL     1      36.662   1.081  16.210  1.00  0.00    -0.278 N 
ATOM      3  H4  UNL     1      36.060   0.511  15.617  1.00  0.00     0.189 HD
HETATM    4  N5  UNL     1      36.673   0.915  17.465  1.00  0.00    -0.281 N 
ATOM      5  H5  UNL     1      36.076   0.204  17.887  1.00  0.00     0.188 HD
HETATM    6  C6  UNL     1      37.453   1.658  18.233  1.00  0.00     0.208 A 
HETATM    7  S2  UNL     1      38.218   2.653  17.072  1.00  0.00    -0.020 SA
ENDROOT
BRANCH   1   8
HETATM    8  N3  UNL     1      37.578   2.333  14.407  1.00  0.00    -0.298 N 
HETATM    9  C4  UNL     1      36.388   2.824  13.775  1.00  0.00     0.312 C 
HETATM   10  O3  UNL     1      35.566   2.004  13.422  1.00  0.00    -0.262 OA
ATOM     11  H3  UNL     1      38.461   2.237  13.906  1.00  0.00     0.171 HD
BRANCH   9  12
HETATM   12  C3  UNL     1      36.252   4.260  13.606  1.00  0.00     0.283 C 
BRANCH  12  13
HETATM   13  N2  UNL     1      37.363   5.090  13.481  1.00  0.00    -0.384 NA
BRANCH  13  14
HETATM   14  C2  UNL     1      38.437   5.893  13.361  1.00  0.00     0.256 C 
BRANCH  14  15
HETATM   15  C1  UNL     1      39.291   5.719  12.170  1.00  0.00     0.283 C 
HETATM   16  N1  UNL     1      39.098   4.481  11.457  1.00  0.00    -0.056 NA
HETATM   17  O1  UNL     1      40.115   6.529  11.778  1.00  0.00    -0.269 OA
ENDBRANCH  14  15
ENDBRANCH  13  14
ENDBRANCH  12  13
BRANCH  12  18
HETATM   18  O2  UNL     1      35.038   4.724  13.579  1.00  0.00    -0.331 OA
ATOM     19  H2  UNL     1      34.542   4.885  14.374  1.00  0.00     0.220 HD
ENDBRANCH  12  18
ENDBRANCH   9  12
ENDBRANCH   1   8
BRANCH   6  20
HETATM   20  S1  UNL     1      37.677   1.650  19.984  1.00  0.00     0.280 S 
HETATM   21  O4  UNL     1      38.664   0.552  20.282  1.00  0.00    -0.199 OA
HETATM   22  O5  UNL     1      38.086   2.969  20.511  1.00  0.00    -0.199 OA
BRANCH  20  23
HETATM   23  N6  UNL     1      36.142   1.158  20.655  1.00  0.00    -0.323 N 
ATOM     24  H62 UNL     1      35.993   0.703  21.556  1.00  0.00     0.169 HD
ATOM     25  H61 UNL     1      35.441   1.420  19.963  1.00  0.00     0.169 HD
ENDBRANCH  20  23
ENDBRANCH   6  20
TORSDOF 8
ENDMDL
MODEL 5
REMARK VINA RESULT: -6.100799799      1.314      1.596
REMARK  8 active torsions:
REMARK  status: ('A' for Active; 'I' for Inactive)
REMARK    1  A    between atoms: C1_2  and  C2_4 
REMARK    2  A    between atoms: C2_4  and  N2_5 
REMARK    3  A    between atoms: N2_5  and  C3_6 
REMARK    4  A    between atoms: C3_6  and  O2_7 
REMARK    5  A    between atoms: C3_6  and  C4_9 
REMARK       I    between atoms: C4_9  and  N3_11 
REMARK    6  A    between atoms: N3_11  and  C5_13 
REMARK    7  A    between atoms: C6_18  and  S1_19 
REMARK    8  A    between atoms: S1_19  and  N6_20 
ROOT
HETATM    1  C5  UNL     1      36.797  -4.161  12.771  1.00  0.00     0.169 A 
HETATM    2  N4  UNL     1      35.793  -3.730  12.001  1.00  0.00    -0.278 N 
ATOM      3  H4  UNL     1      35.803  -2.786  11.617  1.00  0.00     0.189 HD
HETATM    4  N5  UNL     1      34.830  -4.515  11.757  1.00  0.00    -0.281 N 
ATOM      5  H5  UNL     1      34.058  -4.201  11.170  1.00  0.00     0.188 HD
HETATM    6  C6  UNL     1      34.819  -5.739  12.259  1.00  0.00     0.208 A 
HETATM    7  S2  UNL     1      36.289  -5.758  13.133  1.00  0.00    -0.020 SA
ENDROOT
BRANCH   1   8
HETATM    8  N3  UNL     1      37.873  -3.498  13.133  1.00  0.00    -0.298 N 
HETATM    9  C4  UNL     1      37.808  -2.077  12.954  1.00  0.00     0.312 C 
HETATM   10  O3  UNL     1      37.999  -1.646  11.834  1.00  0.00    -0.262 OA
ATOM     11  H3  UNL     1      38.697  -3.963  13.514  1.00  0.00     0.171 HD
BRANCH   9  12
HETATM   12  C3  UNL     1      37.520  -1.259  14.118  1.00  0.00     0.283 C 
BRANCH  12  13
HETATM   13  N2  UNL     1      37.648   0.127  14.088  1.00  0.00    -0.384 NA
BRANCH  13  14
HETATM   14  C2  UNL     1      37.773   1.467  14.059  1.00  0.00     0.256 C 
BRANCH  14  15
HETATM   15  C1  UNL     1      36.680   2.243  13.441  1.00  0.00     0.283 C 
HETATM   16  N1  UNL     1      37.054   2.996  12.269  1.00  0.00    -0.056 NA
HETATM   17  O1  UNL     1      35.532   2.280  13.852  1.00  0.00    -0.269 OA
ENDBRANCH  14  15
ENDBRANCH  13  14
ENDBRANCH  12  13
BRANCH  12  18
HETATM   18  O2  UNL     1      37.137  -1.893  15.187  1.00  0.00    -0.331 OA
ATOM     19  H2  UNL     1      37.523  -2.721  15.447  1.00  0.00     0.220 HD
ENDBRANCH  12  18
ENDBRANCH   9  12
ENDBRANCH   1   8
BRANCH   6  20
HETATM   20  S1  UNL     1      33.632  -7.034  12.090  1.00  0.00     0.280 S 
HETATM   21  O4  UNL     1      34.145  -7.944  11.006  1.00  0.00    -0.199 OA
HETATM   22  O5  UNL     1      33.364  -7.729  13.366  1.00  0.00    -0.199 OA
BRANCH  20  23
HETATM   23  N6  UNL     1      32.184  -6.271  11.478  1.00  0.00    -0.323 N 
ATOM     24  H62 UNL     1      31.253  -6.686  11.437  1.00  0.00     0.169 HD
ATOM     25  H61 UNL     1      32.469  -5.340  11.176  1.00  0.00     0.169 HD
ENDBRANCH  20  23
ENDBRANCH   6  20
TORSDOF 8
ENDMDL
