MODEL 1
REMARK VINA RESULT: -5.111004158      0.000      0.000
REMARK  4 active torsions:
REMARK  status: ('A' for Active; 'I' for Inactive)
REMARK    1  A    between atoms: N1_2  and  S1_4 
REMARK    2  A    between atoms: S1_4  and  C3_7 
REMARK    3  A    between atoms: C4_8  and  S2_9 
REMARK    4  A    between atoms: S2_9  and  N2_10 
ROOT
HETATM    1  C3  UNL     1      37.164  -1.359  12.896  1.00  0.00     0.170 A 
HETATM    2  C4  UNL     1      37.101  -2.466  13.697  1.00  0.00     0.152 A 
HETATM    3  C5  UNL     1      36.308  -3.530  13.283  1.00  0.00     0.139 A 
HETATM    4  N3  UNL     1      36.107  -4.612  13.908  1.00  0.00    -0.383 N 
ATOM      5  H31 UNL     1      35.525  -5.393  13.605  1.00  0.00     0.157 HD
ATOM      6  H32 UNL     1      36.612  -4.684  14.792  1.00  0.00     0.157 HD
HETATM    7  N4  UNL     1      35.627  -3.433  12.092  1.00  0.00    -0.282 N 
ATOM      8  H4  UNL     1      35.049  -4.220  11.796  1.00  0.00     0.188 HD
HETATM    9  N5  UNL     1      35.687  -2.391  11.332  1.00  0.00    -0.264 N 
ATOM     10  H5  UNL     1      35.166  -2.360  10.455  1.00  0.00     0.190 HD
HETATM   11  C6  UNL     1      36.430  -1.366  11.703  1.00  0.00     0.284 A 
HETATM   12  O5  UNL     1      36.512  -0.334  10.990  1.00  0.00    -0.265 OA
ENDROOT
BRANCH   1  13
HETATM   13  S1  UNL     1      38.051   0.066  13.318  1.00  0.00     0.250 S 
HETATM   14  O1  UNL     1      37.922   0.514  14.715  1.00  0.00    -0.205 OA
HETATM   15  O2  UNL     1      37.655   1.216  12.361  1.00  0.00    -0.205 OA
BRANCH  13  16
HETATM   16  N1  UNL     1      39.716  -0.197  12.960  1.00  0.00    -0.215 NA
HETATM   17  C1  UNL     1      39.892  -0.976  11.748  1.00  0.00     0.129 C 
HETATM   18  C2  UNL     1      40.461   1.046  12.904  1.00  0.00     0.129 C 
ENDBRANCH  13  16
ENDBRANCH   1  13
BRANCH   2  19
HETATM   19  S2  UNL     1      38.000  -2.598  15.153  1.00  0.00     0.262 S 
HETATM   20  O3  UNL     1      39.425  -2.134  15.094  1.00  0.00    -0.201 OA
HETATM   21  O4  UNL     1      38.025  -4.015  15.729  1.00  0.00    -0.201 OA
BRANCH  19  22
HETATM   22  N2  UNL     1      37.215  -1.650  16.365  1.00  0.00    -0.324 N 
ATOM     23  H22 UNL     1      36.216  -1.443  16.391  1.00  0.00     0.169 HD
ATOM     24  H21 UNL     1      37.917  -1.339  17.036  1.00  0.00     0.169 HD
ENDBRANCH  19  22
ENDBRANCH   2  19
TORSDOF 4
ENDMDL
MODEL 2
REMARK VINA RESULT: -4.928613294      1.563      2.145
REMARK  4 active torsions:
REMARK  status: ('A' for Active; 'I' for Inactive)
REMARK    1  A    between atoms: N1_2  and  S1_4 
REMARK    2  A    between atoms: S1_4  and  C3_7 
REMARK    3  A    between atoms: C4_8  and  S2_9 
REMARK    4  A    between atoms: S2_9  and  N2_10 
ROOT
HETATM    1  C3  UNL     1      37.089  -2.047  12.524  1.00  0.00     0.170 A 
HETATM    2  C4  UNL     1      36.568  -3.300  12.696  1.00  0.00     0.152 A 
HETATM    3  C5  UNL     1      35.423  -3.636  11.982  1.00  0.00     0.139 A 
HETATM    4  N3  UNL     1      34.789  -4.730  12.041  1.00  0.00    -0.383 N 
ATOM      5  H31 UNL     1      33.950  -4.977  11.517  1.00  0.00     0.157 HD
ATOM      6  H32 UNL     1      35.203  -5.419  12.670  1.00  0.00     0.157 HD
HETATM    7  N4  UNL     1      34.866  -2.708  11.134  1.00  0.00    -0.282 N 
ATOM      8  H4  UNL     1      34.028  -2.965  10.613  1.00  0.00     0.188 HD
HETATM    9  N5  UNL     1      35.358  -1.525  10.967  1.00  0.00    -0.264 N 
ATOM     10  H5  UNL     1      34.914  -0.867  10.328  1.00  0.00     0.190 HD
HETATM   11  C6  UNL     1      36.442  -1.179  11.635  1.00  0.00     0.284 A 
HETATM   12  O5  UNL     1      36.948  -0.037  11.500  1.00  0.00    -0.265 OA
ENDROOT
BRANCH   1  13
HETATM   13  S1  UNL     1      38.464  -1.465  13.400  1.00  0.00     0.250 S 
HETATM   14  O1  UNL     1      39.533  -2.448  13.648  1.00  0.00    -0.205 OA
HETATM   15  O2  UNL     1      37.994  -0.854  14.742  1.00  0.00    -0.205 OA
BRANCH  13  16
HETATM   16  N1  UNL     1      39.123  -0.116  12.554  1.00  0.00    -0.215 NA
HETATM   17  C1  UNL     1      39.435   0.983  13.449  1.00  0.00     0.129 C 
HETATM   18  C2  UNL     1      40.273  -0.489  11.752  1.00  0.00     0.129 C 
ENDBRANCH  13  16
ENDBRANCH   1  13
BRANCH   2  19
HETATM   19  S2  UNL     1      37.303  -4.469  13.714  1.00  0.00     0.262 S 
HETATM   20  O3  UNL     1      38.601  -5.043  13.230  1.00  0.00    -0.201 OA
HETATM   21  O4  UNL     1      36.394  -5.656  14.038  1.00  0.00    -0.201 OA
BRANCH  19  22
HETATM   22  N2  UNL     1      37.622  -3.734  15.245  1.00  0.00    -0.324 N 
ATOM     23  H22 UNL     1      36.909  -3.408  15.898  1.00  0.00     0.169 HD
ATOM     24  H21 UNL     1      38.632  -3.687  15.376  1.00  0.00     0.169 HD
ENDBRANCH  19  22
ENDBRANCH   2  19
TORSDOF 4
ENDMDL
MODEL 3
REMARK VINA RESULT: -4.906798265      3.265      5.328
REMARK  4 active torsions:
REMARK  status: ('A' for Active; 'I' for Inactive)
REMARK    1  A    between atoms: N1_2  and  S1_4 
REMARK    2  A    between atoms: S1_4  and  C3_7 
REMARK    3  A    between atoms: C4_8  and  S2_9 
REMARK    4  A    between atoms: S2_9  and  N2_10 
ROOT
HETATM    1  C3  UNL     1      36.620  -4.152  12.306  1.00  0.00     0.170 A 
HETATM    2  C4  UNL     1      37.917  -3.839  12.610  1.00  0.00     0.152 A 
HETATM    3  C5  UNL     1      38.414  -2.616  12.174  1.00  0.00     0.139 A 
HETATM    4  N3  UNL     1      39.590  -2.177  12.334  1.00  0.00    -0.383 N 
ATOM      5  H31 UNL     1      39.956  -1.280  12.015  1.00  0.00     0.157 HD
ATOM      6  H32 UNL     1      40.201  -2.803  12.860  1.00  0.00     0.157 HD
HETATM    7  N4  UNL     1      37.590  -1.772  11.466  1.00  0.00    -0.282 N 
ATOM      8  H4  UNL     1      37.964  -0.876  11.153  1.00  0.00     0.188 HD
HETATM    9  N5  UNL     1      36.365  -2.064  11.180  1.00  0.00    -0.264 N 
ATOM     10  H5  UNL     1      35.788  -1.409  10.653  1.00  0.00     0.190 HD
HETATM   11  C6  UNL     1      35.869  -3.220  11.580  1.00  0.00     0.284 A 
HETATM   12  O5  UNL     1      34.682  -3.539  11.320  1.00  0.00    -0.265 OA
ENDROOT
BRANCH   1  13
HETATM   13  S1  UNL     1      35.890  -5.667  12.719  1.00  0.00     0.250 S 
HETATM   14  O1  UNL     1      35.451  -5.810  14.118  1.00  0.00    -0.205 OA
HETATM   15  O2  UNL     1      36.860  -6.817  12.354  1.00  0.00    -0.205 OA
BRANCH  13  16
HETATM   16  N1  UNL     1      34.545  -5.930  11.675  1.00  0.00    -0.215 NA
HETATM   17  C1  UNL     1      34.848  -6.899  10.638  1.00  0.00     0.129 C 
HETATM   18  C2  UNL     1      33.351  -6.298  12.412  1.00  0.00     0.129 C 
ENDBRANCH  13  16
ENDBRANCH   1  13
BRANCH   2  19
HETATM   19  S2  UNL     1      38.917  -4.875  13.543  1.00  0.00     0.262 S 
HETATM   20  O3  UNL     1      38.252  -5.583  14.685  1.00  0.00    -0.201 OA
HETATM   21  O4  UNL     1      40.150  -4.176  14.121  1.00  0.00    -0.201 OA
BRANCH  19  22
HETATM   22  N2  UNL     1      39.557  -6.095  12.502  1.00  0.00    -0.324 N 
ATOM     23  H22 UNL     1      40.249  -5.936  11.769  1.00  0.00     0.169 HD
ATOM     24  H21 UNL     1      39.128  -6.986  12.748  1.00  0.00     0.169 HD
ENDBRANCH  19  22
ENDBRANCH   2  19
TORSDOF 4
ENDMDL
MODEL 4
REMARK VINA RESULT: -4.901808677      3.180      4.147
REMARK  4 active torsions:
REMARK  status: ('A' for Active; 'I' for Inactive)
REMARK    1  A    between atoms: N1_2  and  S1_4 
REMARK    2  A    between atoms: S1_4  and  C3_7 
REMARK    3  A    between atoms: C4_8  and  S2_9 
REMARK    4  A    between atoms: S2_9  and  N2_10 
ROOT
HETATM    1  C3  UNL     1      39.155   0.626  12.423  1.00  0.00     0.170 A 
HETATM    2  C4  UNL     1      37.798   0.683  12.584  1.00  0.00     0.152 A 
HETATM    3  C5  UNL     1      37.057  -0.459  12.297  1.00  0.00     0.139 A 
HETATM    4  N3  UNL     1      35.799  -0.579  12.357  1.00  0.00    -0.383 N 
ATOM      5  H31 UNL     1      35.255  -1.416  12.148  1.00  0.00     0.157 HD
ATOM      6  H32 UNL     1      35.314   0.262  12.672  1.00  0.00     0.157 HD
HETATM    7  N4  UNL     1      37.711  -1.593  11.874  1.00  0.00    -0.282 N 
ATOM      8  H4  UNL     1      37.159  -2.425  11.668  1.00  0.00     0.188 HD
HETATM    9  N5  UNL     1      38.992  -1.650  11.724  1.00  0.00    -0.264 N 
ATOM     10  H5  UNL     1      39.438  -2.511  11.408  1.00  0.00     0.190 HD
HETATM   11  C6  UNL     1      39.718  -0.579  11.986  1.00  0.00     0.284 A 
HETATM   12  O5  UNL     1      40.968  -0.596  11.851  1.00  0.00    -0.265 OA
ENDROOT
BRANCH   1  13
HETATM   13  S1  UNL     1      40.195   1.988  12.670  1.00  0.00     0.250 S 
HETATM   14  O1  UNL     1      40.528   2.298  14.072  1.00  0.00    -0.205 OA
HETATM   15  O2  UNL     1      39.575   3.233  11.992  1.00  0.00    -0.205 OA
BRANCH  13  16
HETATM   16  N1  UNL     1      41.652   1.733  11.786  1.00  0.00    -0.215 NA
HETATM   17  C1  UNL     1      41.702   2.543  10.583  1.00  0.00     0.129 C 
HETATM   18  C2  UNL     1      42.828   1.936  12.611  1.00  0.00     0.129 C 
ENDBRANCH  13  16
ENDBRANCH   1  13
BRANCH   2  19
HETATM   19  S2  UNL     1      36.999   2.084  13.167  1.00  0.00     0.262 S 
HETATM   20  O3  UNL     1      35.576   1.901  13.602  1.00  0.00    -0.201 OA
HETATM   21  O4  UNL     1      37.005   3.249  12.174  1.00  0.00    -0.201 OA
BRANCH  19  22
HETATM   22  N2  UNL     1      37.869   2.676  14.537  1.00  0.00    -0.324 N 
ATOM     23  H22 UNL     1      37.462   2.856  15.455  1.00  0.00     0.169 HD
ATOM     24  H21 UNL     1      38.843   2.809  14.268  1.00  0.00     0.169 HD
ENDBRANCH  19  22
ENDBRANCH   2  19
TORSDOF 4
ENDMDL
MODEL 5
REMARK VINA RESULT: -4.863454713      1.332      1.682
REMARK  4 active torsions:
REMARK  status: ('A' for Active; 'I' for Inactive)
REMARK    1  A    between atoms: N1_2  and  S1_4 
REMARK    2  A    between atoms: S1_4  and  C3_7 
REMARK    3  A    between atoms: C4_8  and  S2_9 
REMARK    4  A    between atoms: S2_9  and  N2_10 
ROOT
HETATM    1  C3  UNL     1      37.343  -1.233  13.071  1.00  0.00     0.170 A 
HETATM    2  C4  UNL     1      37.190  -2.368  13.820  1.00  0.00     0.152 A 
HETATM    3  C5  UNL     1      36.318  -3.346  13.355  1.00  0.00     0.139 A 
HETATM    4  N3  UNL     1      36.030  -4.437  13.929  1.00  0.00    -0.383 N 
ATOM      5  H31 UNL     1      35.391  -5.155  13.588  1.00  0.00     0.157 HD
ATOM      6  H32 UNL     1      36.524  -4.589  14.808  1.00  0.00     0.157 HD
HETATM    7  N4  UNL     1      35.653  -3.141  12.169  1.00  0.00    -0.282 N 
ATOM      8  H4  UNL     1      35.018  -3.866  11.835  1.00  0.00     0.188 HD
HETATM    9  N5  UNL     1      35.798  -2.072  11.458  1.00  0.00    -0.264 N 
ATOM     10  H5  UNL     1      35.286  -1.960  10.584  1.00  0.00     0.190 HD
HETATM   11  C6  UNL     1      36.617  -1.127  11.879  1.00  0.00     0.284 A 
HETATM   12  O5  UNL     1      36.783  -0.073  11.215  1.00  0.00    -0.265 OA
ENDROOT
BRANCH   1  13
HETATM   13  S1  UNL     1      38.336   0.098  13.562  1.00  0.00     0.250 S 
HETATM   14  O1  UNL     1      39.771  -0.022  13.253  1.00  0.00    -0.205 OA
HETATM   15  O2  UNL     1      38.145   0.346  15.077  1.00  0.00    -0.205 OA
BRANCH  13  16
HETATM   16  N1  UNL     1      37.720   1.537  12.839  1.00  0.00    -0.215 NA
HETATM   17  C1  UNL     1      36.625   2.100  13.606  1.00  0.00     0.129 C 
HETATM   18  C2  UNL     1      38.765   2.516  12.609  1.00  0.00     0.129 C 
ENDBRANCH  13  16
ENDBRANCH   1  13
BRANCH   2  19
HETATM   19  S2  UNL     1      38.068  -2.637  15.270  1.00  0.00     0.262 S 
HETATM   20  O3  UNL     1      39.488  -2.157  15.280  1.00  0.00    -0.201 OA
HETATM   21  O4  UNL     1      38.100  -4.105  15.701  1.00  0.00    -0.201 OA
BRANCH  19  22
HETATM   22  N2  UNL     1      37.254  -1.823  16.558  1.00  0.00    -0.324 N 
ATOM     23  H22 UNL     1      37.602  -1.745  17.514  1.00  0.00     0.169 HD
ATOM     24  H21 UNL     1      36.380  -1.441  16.196  1.00  0.00     0.169 HD
ENDBRANCH  19  22
ENDBRANCH   2  19
TORSDOF 4
ENDMDL
