MODEL 1
REMARK VINA RESULT: -5.824946707      0.000      0.000
REMARK  7 active torsions:
REMARK  status: ('A' for Active; 'I' for Inactive)
REMARK    1  A    between atoms: N1_2  and  C3_4 
REMARK    2  A    between atoms: C3_4  and  C4_10 
REMARK    3  A    between atoms: N2_5  and  N3_7 
REMARK    4  A    between atoms: C5_13  and  C6_14 
REMARK    5  A    between atoms: N5_15  and  N6_17 
REMARK    6  A    between atoms: N9_23  and  O1_24 
REMARK    7  A    between atoms: C9_26  and  C10_27 
ROOT
HETATM    1  C4  UNL     1      37.759  -1.409  13.606  1.00  0.00     0.113 A 
HETATM    2  N4  UNL     1      37.388  -2.737  13.661  1.00  0.00    -0.349 N 
ATOM      3  H4  UNL     1      37.687  -3.289  14.465  1.00  0.00     0.166 HD
HETATM    4  C5  UNL     1      36.659  -3.337  12.718  1.00  0.00     0.068 A 
HETATM    5  C8  UNL     1      36.282  -2.547  11.655  1.00  0.00     0.154 A 
HETATM    6  N9  UNL     1      36.625  -1.254  11.569  1.00  0.00    -0.226 N 
HETATM    7  C9  UNL     1      37.377  -0.646  12.547  1.00  0.00     0.157 A 
ENDROOT
BRANCH   1   8
HETATM    8  C3  UNL     1      38.555  -0.866  14.692  1.00  0.00     0.146 C 
HETATM    9  N2  UNL     1      39.834  -0.894  14.595  1.00  0.00    -0.290 N 
ATOM     10  H2  UNL     1      40.384  -0.537  15.376  1.00  0.00     0.188 HD
BRANCH   8  11
HETATM   11  N1  UNL     1      37.974  -0.342  15.868  1.00  0.00    -0.373 N 
HETATM   12  C1  UNL     1      37.645  -1.214  16.995  1.00  0.00     0.150 C 
HETATM   13  C2  UNL     1      37.655   1.072  16.056  1.00  0.00     0.150 C 
ENDBRANCH   8  11
BRANCH   9  14
HETATM   14  N3  UNL     1      40.517  -1.390  13.479  1.00  0.00    -0.344 N 
ATOM     15  H32 UNL     1      39.951  -1.740  12.706  1.00  0.00     0.176 HD
ATOM     16  H31 UNL     1      41.533  -1.417  13.404  1.00  0.00     0.176 HD
ENDBRANCH   9  14
ENDBRANCH   1   8
BRANCH   7  17
HETATM   17  C10 UNL     1      37.745   0.742  12.414  1.00  0.00     0.286 C 
HETATM   18  N10 UNL     1      36.935   1.882  12.471  1.00  0.00    -0.056 NA
HETATM   19  O2  UNL     1      38.996   1.012  12.213  1.00  0.00    -0.269 OA
ENDBRANCH   7  17
BRANCH   4  20
HETATM   20  C6  UNL     1      36.279  -4.746  12.799  1.00  0.00     0.138 C 
HETATM   21  N5  UNL     1      35.157  -5.099  13.273  1.00  0.00    -0.308 N 
ATOM     22  H5  UNL     1      34.520  -4.372  13.599  1.00  0.00     0.186 HD
BRANCH  21  23
HETATM   23  N6  UNL     1      34.750  -6.419  13.370  1.00  0.00    -0.276 N 
HETATM   24  C7  UNL     1      33.690  -6.916  12.873  1.00  0.00     0.215 C 
HETATM   25  N7  UNL     1      33.468  -8.316  13.098  1.00  0.00    -0.065 NA
HETATM   26  N8  UNL     1      32.716  -6.227  12.124  1.00  0.00    -0.065 NA
ATOM     27  H6  UNL     1      35.358  -7.053  13.889  1.00  0.00     0.189 HD
ENDBRANCH  21  23
ENDBRANCH   4  20
BRANCH   6  28
HETATM   28  O1  UNL     1      36.242  -0.466  10.497  1.00  0.00    -0.283 OA
ATOM     29  H1  UNL     1      35.709   0.312  10.611  1.00  0.00     0.245 HD
ENDBRANCH   6  28
TORSDOF 7
ENDMDL
MODEL 2
REMARK VINA RESULT: -5.787183461      1.340      1.496
REMARK  7 active torsions:
REMARK  status: ('A' for Active; 'I' for Inactive)
REMARK    1  A    between atoms: N1_2  and  C3_4 
REMARK    2  A    between atoms: C3_4  and  C4_10 
REMARK    3  A    between atoms: N2_5  and  N3_7 
REMARK    4  A    between atoms: C5_13  and  C6_14 
REMARK    5  A    between atoms: N5_15  and  N6_17 
REMARK    6  A    between atoms: N9_23  and  O1_24 
REMARK    7  A    between atoms: C9_26  and  C10_27 
ROOT
HETATM    1  C4  UNL     1      37.561  -1.991  13.439  1.00  0.00     0.113 A 
HETATM    2  N4  UNL     1      36.743  -3.102  13.464  1.00  0.00    -0.349 N 
ATOM      3  H4  UNL     1      36.848  -3.762  14.234  1.00  0.00     0.166 HD
HETATM    4  C5  UNL     1      35.822  -3.359  12.534  1.00  0.00     0.068 A 
HETATM    5  C8  UNL     1      35.721  -2.436  11.516  1.00  0.00     0.154 A 
HETATM    6  N9  UNL     1      36.498  -1.347  11.460  1.00  0.00    -0.226 N 
HETATM    7  C9  UNL     1      37.445  -1.092  12.425  1.00  0.00     0.157 A 
ENDROOT
BRANCH   1   8
HETATM    8  C3  UNL     1      38.528  -1.818  14.508  1.00  0.00     0.146 C 
HETATM    9  N2  UNL     1      39.721  -2.256  14.338  1.00  0.00    -0.290 N 
ATOM     10  H2  UNL     1      40.386  -2.155  15.106  1.00  0.00     0.188 HD
BRANCH   8  11
HETATM   11  N1  UNL     1      38.193  -1.219  15.742  1.00  0.00    -0.373 N 
HETATM   12  C1  UNL     1      37.986  -2.033  16.940  1.00  0.00     0.150 C 
HETATM   13  C2  UNL     1      38.023   0.222  15.927  1.00  0.00     0.150 C 
ENDBRANCH   8  11
BRANCH   9  14
HETATM   14  N3  UNL     1      40.163  -2.866  13.158  1.00  0.00    -0.344 N 
ATOM     15  H32 UNL     1      39.755  -2.538  12.284  1.00  0.00     0.176 HD
ATOM     16  H31 UNL     1      40.861  -3.609  13.134  1.00  0.00     0.176 HD
ENDBRANCH   9  14
ENDBRANCH   1   8
BRANCH   7  17
HETATM   17  C10 UNL     1      38.279   0.080  12.325  1.00  0.00     0.286 C 
HETATM   18  N10 UNL     1      39.667   0.168  12.164  1.00  0.00    -0.056 NA
HETATM   19  O2  UNL     1      37.697   1.235  12.386  1.00  0.00    -0.269 OA
ENDBRANCH   7  17
BRANCH   4  20
HETATM   20  C6  UNL     1      34.967  -4.544  12.582  1.00  0.00     0.138 C 
HETATM   21  N5  UNL     1      34.542  -5.093  11.521  1.00  0.00    -0.308 N 
ATOM     22  H5  UNL     1      34.810  -4.686  10.626  1.00  0.00     0.186 HD
BRANCH  21  23
HETATM   23  N6  UNL     1      33.732  -6.216  11.514  1.00  0.00    -0.276 N 
HETATM   24  C7  UNL     1      34.123  -7.423  11.422  1.00  0.00     0.215 C 
HETATM   25  N7  UNL     1      33.104  -8.433  11.436  1.00  0.00    -0.065 NA
HETATM   26  N8  UNL     1      35.458  -7.861  11.308  1.00  0.00    -0.065 NA
ATOM     27  H6  UNL     1      32.726  -6.061  11.591  1.00  0.00     0.189 HD
ENDBRANCH  21  23
ENDBRANCH   4  20
BRANCH   6  28
HETATM   28  O1  UNL     1      36.391  -0.423  10.434  1.00  0.00    -0.283 OA
ATOM     29  H1  UNL     1      36.272   0.504  10.604  1.00  0.00     0.245 HD
ENDBRANCH   6  28
TORSDOF 7
ENDMDL
MODEL 3
REMARK VINA RESULT: -5.712752915      1.700      2.196
REMARK  7 active torsions:
REMARK  status: ('A' for Active; 'I' for Inactive)
REMARK    1  A    between atoms: N1_2  and  C3_4 
REMARK    2  A    between atoms: C3_4  and  C4_10 
REMARK    3  A    between atoms: N2_5  and  N3_7 
REMARK    4  A    between atoms: C5_13  and  C6_14 
REMARK    5  A    between atoms: N5_15  and  N6_17 
REMARK    6  A    between atoms: N9_23  and  O1_24 
REMARK    7  A    between atoms: C9_26  and  C10_27 
ROOT
HETATM    1  C4  UNL     1      37.955  -0.646  14.046  1.00  0.00     0.113 A 
HETATM    2  N4  UNL     1      37.216  -1.802  14.191  1.00  0.00    -0.349 N 
ATOM      3  H4  UNL     1      36.593  -1.879  14.996  1.00  0.00     0.166 HD
HETATM    4  C5  UNL     1      37.272  -2.825  13.336  1.00  0.00     0.068 A 
HETATM    5  C8  UNL     1      38.128  -2.669  12.268  1.00  0.00     0.154 A 
HETATM    6  N9  UNL     1      38.860  -1.561  12.095  1.00  0.00    -0.226 N 
HETATM    7  C9  UNL     1      38.794  -0.513  12.984  1.00  0.00     0.157 A 
ENDROOT
BRANCH   1   8
HETATM    8  C3  UNL     1      37.811   0.400  15.042  1.00  0.00     0.146 C 
HETATM    9  N2  UNL     1      37.025   1.384  14.797  1.00  0.00    -0.290 N 
ATOM     10  H2  UNL     1      36.953   2.127  15.491  1.00  0.00     0.188 HD
BRANCH   8  11
HETATM   11  N1  UNL     1      38.534   0.394  16.255  1.00  0.00    -0.373 N 
HETATM   12  C1  UNL     1      37.951   0.941  17.480  1.00  0.00     0.150 C 
HETATM   13  C2  UNL     1      39.890  -0.138  16.390  1.00  0.00     0.150 C 
ENDBRANCH   8  11
BRANCH   9  14
HETATM   14  N3  UNL     1      36.261   1.494  13.630  1.00  0.00    -0.344 N 
ATOM     15  H32 UNL     1      36.388   0.772  12.921  1.00  0.00     0.176 HD
ATOM     16  H31 UNL     1      35.597   2.248  13.459  1.00  0.00     0.176 HD
ENDBRANCH   9  14
ENDBRANCH   1   8
BRANCH   7  17
HETATM   17  C10 UNL     1      39.611   0.658  12.779  1.00  0.00     0.286 C 
HETATM   18  N10 UNL     1      39.227   1.950  12.402  1.00  0.00    -0.056 NA
HETATM   19  O2  UNL     1      40.887   0.536  12.962  1.00  0.00    -0.269 OA
ENDBRANCH   7  17
BRANCH   4  20
HETATM   20  C6  UNL     1      36.478  -4.040  13.513  1.00  0.00     0.138 C 
HETATM   21  N5  UNL     1      35.248  -4.073  13.207  1.00  0.00    -0.308 N 
ATOM     22  H5  UNL     1      34.821  -3.227  12.832  1.00  0.00     0.186 HD
BRANCH  21  23
HETATM   23  N6  UNL     1      34.455  -5.199  13.355  1.00  0.00    -0.276 N 
HETATM   24  C7  UNL     1      34.129  -6.013  12.434  1.00  0.00     0.215 C 
HETATM   25  N7  UNL     1      33.296  -7.117  12.816  1.00  0.00    -0.065 NA
HETATM   26  N8  UNL     1      34.509  -5.937  11.079  1.00  0.00    -0.065 NA
ATOM     27  H6  UNL     1      34.099  -5.393  14.291  1.00  0.00     0.189 HD
ENDBRANCH  21  23
ENDBRANCH   4  20
BRANCH   6  28
HETATM   28  O1  UNL     1      39.718  -1.411  11.019  1.00  0.00    -0.283 OA
ATOM     29  H1  UNL     1      40.407  -0.757  11.013  1.00  0.00     0.245 HD
ENDBRANCH   6  28
TORSDOF 7
ENDMDL
MODEL 4
REMARK VINA RESULT: -5.686810644      3.364      6.994
REMARK  7 active torsions:
REMARK  status: ('A' for Active; 'I' for Inactive)
REMARK    1  A    between atoms: N1_2  and  C3_4 
REMARK    2  A    between atoms: C3_4  and  C4_10 
REMARK    3  A    between atoms: N2_5  and  N3_7 
REMARK    4  A    between atoms: C5_13  and  C6_14 
REMARK    5  A    between atoms: N5_15  and  N6_17 
REMARK    6  A    between atoms: N9_23  and  O1_24 
REMARK    7  A    between atoms: C9_26  and  C10_27 
ROOT
HETATM    1  C4  UNL     1      37.631  -2.692  13.754  1.00  0.00     0.113 A 
HETATM    2  N4  UNL     1      37.529  -1.522  14.478  1.00  0.00    -0.349 N 
ATOM      3  H4  UNL     1      37.144  -0.699  14.015  1.00  0.00     0.166 HD
HETATM    4  C5  UNL     1      37.908  -1.410  15.752  1.00  0.00     0.068 A 
HETATM    5  C8  UNL     1      38.422  -2.550  16.330  1.00  0.00     0.154 A 
HETATM    6  N9  UNL     1      38.535  -3.703  15.657  1.00  0.00    -0.226 N 
HETATM    7  C9  UNL     1      38.141  -3.807  14.342  1.00  0.00     0.157 A 
ENDROOT
BRANCH   1   8
HETATM    8  C3  UNL     1      37.187  -2.693  12.372  1.00  0.00     0.146 C 
HETATM    9  N2  UNL     1      38.047  -2.479  11.445  1.00  0.00    -0.290 N 
ATOM     10  H2  UNL     1      37.720  -2.453  10.480  1.00  0.00     0.188 HD
BRANCH   8  11
HETATM   11  N1  UNL     1      35.834  -2.882  12.012  1.00  0.00    -0.373 N 
HETATM   12  C1  UNL     1      35.077  -1.818  11.354  1.00  0.00     0.150 C 
HETATM   13  C2  UNL     1      35.092  -4.117  12.262  1.00  0.00     0.150 C 
ENDBRANCH   8  11
BRANCH   9  14
HETATM   14  N3  UNL     1      39.412  -2.278  11.686  1.00  0.00    -0.344 N 
ATOM     15  H32 UNL     1      39.985  -3.108  11.835  1.00  0.00     0.176 HD
ATOM     16  H31 UNL     1      39.850  -1.358  11.717  1.00  0.00     0.176 HD
ENDBRANCH   9  14
ENDBRANCH   1   8
BRANCH   7  17
HETATM   17  C10 UNL     1      38.296  -5.057  13.641  1.00  0.00     0.286 C 
HETATM   18  N10 UNL     1      39.163  -5.382  12.591  1.00  0.00    -0.056 NA
HETATM   19  O2  UNL     1      37.542  -6.044  14.007  1.00  0.00    -0.269 OA
ENDBRANCH   7  17
BRANCH   4  20
HETATM   20  C6  UNL     1      37.790  -0.158  16.498  1.00  0.00     0.138 C 
HETATM   21  N5  UNL     1      37.420  -0.147  17.711  1.00  0.00    -0.308 N 
ATOM     22  H5  UNL     1      37.203  -1.038  18.158  1.00  0.00     0.186 HD
BRANCH  21  23
HETATM   23  N6  UNL     1      37.293   1.011  18.460  1.00  0.00    -0.276 N 
HETATM   24  C7  UNL     1      38.003   1.336  19.464  1.00  0.00     0.215 C 
HETATM   25  N7  UNL     1      37.696   2.589  20.092  1.00  0.00    -0.065 NA
HETATM   26  N8  UNL     1      39.061   0.586  20.017  1.00  0.00    -0.065 NA
ATOM     27  H6  UNL     1      36.562   1.665  18.181  1.00  0.00     0.189 HD
ENDBRANCH  21  23
ENDBRANCH   4  20
BRANCH   6  28
HETATM   28  O1  UNL     1      39.052  -4.846  16.244  1.00  0.00    -0.283 OA
ATOM     29  H1  UNL     1      38.510  -5.439  16.750  1.00  0.00     0.245 HD
ENDBRANCH   6  28
TORSDOF 7
ENDMDL
MODEL 5
REMARK VINA RESULT: -5.626182297      1.948      3.069
REMARK  7 active torsions:
REMARK  status: ('A' for Active; 'I' for Inactive)
REMARK    1  A    between atoms: N1_2  and  C3_4 
REMARK    2  A    between atoms: C3_4  and  C4_10 
REMARK    3  A    between atoms: N2_5  and  N3_7 
REMARK    4  A    between atoms: C5_13  and  C6_14 
REMARK    5  A    between atoms: N5_15  and  N6_17 
REMARK    6  A    between atoms: N9_23  and  O1_24 
REMARK    7  A    between atoms: C9_26  and  C10_27 
ROOT
HETATM    1  C4  UNL     1      38.116   0.115  14.570  1.00  0.00     0.113 A 
HETATM    2  N4  UNL     1      37.694  -1.011  13.895  1.00  0.00    -0.349 N 
ATOM      3  H4  UNL     1      37.926  -1.924  14.286  1.00  0.00     0.166 HD
HETATM    4  C5  UNL     1      36.998  -0.970  12.757  1.00  0.00     0.068 A 
HETATM    5  C8  UNL     1      36.711   0.287  12.272  1.00  0.00     0.154 A 
HETATM    6  N9  UNL     1      37.105   1.402  12.902  1.00  0.00    -0.226 N 
HETATM    7  C9  UNL     1      37.823   1.347  14.074  1.00  0.00     0.157 A 
ENDROOT
BRANCH   1   8
HETATM    8  C3  UNL     1      38.869  -0.054  15.800  1.00  0.00     0.146 C 
HETATM    9  N2  UNL     1      38.239  -0.040  16.917  1.00  0.00    -0.290 N 
ATOM     10  H2  UNL     1      38.781  -0.132  17.776  1.00  0.00     0.188 HD
BRANCH   8  11
HETATM   11  N1  UNL     1      40.274  -0.194  15.813  1.00  0.00    -0.373 N 
HETATM   12  C1  UNL     1      41.129   0.866  16.348  1.00  0.00     0.150 C 
HETATM   13  C2  UNL     1      40.978  -1.370  15.305  1.00  0.00     0.150 C 
ENDBRANCH   8  11
BRANCH   9  14
HETATM   14  N3  UNL     1      36.850   0.093  17.023  1.00  0.00    -0.344 N 
ATOM     15  H32 UNL     1      36.482   1.034  17.157  1.00  0.00     0.176 HD
ATOM     16  H31 UNL     1      36.202  -0.693  16.972  1.00  0.00     0.176 HD
ENDBRANCH   9  14
ENDBRANCH   1   8
BRANCH   7  17
HETATM   17  C10 UNL     1      38.248   2.567  14.716  1.00  0.00     0.286 C 
HETATM   18  N10 UNL     1      37.836   3.116  15.935  1.00  0.00    -0.056 NA
HETATM   19  O2  UNL     1      39.139   3.283  14.107  1.00  0.00    -0.269 OA
ENDBRANCH   7  17
BRANCH   4  20
HETATM   20  C6  UNL     1      36.562  -2.179  12.060  1.00  0.00     0.138 C 
HETATM   21  N5  UNL     1      35.440  -2.714  12.308  1.00  0.00    -0.308 N 
ATOM     22  H5  UNL     1      34.842  -2.279  13.011  1.00  0.00     0.186 HD
BRANCH  21  23
HETATM   23  N6  UNL     1      34.982  -3.858  11.675  1.00  0.00    -0.276 N 
HETATM   24  C7  UNL     1      34.848  -5.006  12.205  1.00  0.00     0.215 C 
HETATM   25  N7  UNL     1      34.354  -6.053  11.358  1.00  0.00    -0.065 NA
HETATM   26  N8  UNL     1      35.137  -5.348  13.542  1.00  0.00    -0.065 NA
ATOM     27  H6  UNL     1      34.728  -3.771  10.691  1.00  0.00     0.189 HD
ENDBRANCH  21  23
ENDBRANCH   4  20
BRANCH   6  28
HETATM   28  O1  UNL     1      36.812   2.663  12.408  1.00  0.00    -0.283 OA
ATOM     29  H1  UNL     1      37.494   3.288  12.195  1.00  0.00     0.245 HD
ENDBRANCH   6  28
TORSDOF 7
ENDMDL
