MODEL 1
REMARK VINA RESULT: -6.462266937      0.000      0.000
REMARK  7 active torsions:
REMARK  status: ('A' for Active; 'I' for Inactive)
REMARK    1  A    between atoms: N1_1  and  N2_4 
REMARK       I    between atoms: N2_4  and  C1_6 
REMARK    2  A    between atoms: C1_6  and  C2_8 
REMARK    3  A    between atoms: C2_8  and  N3_9 
REMARK       I    between atoms: N3_9  and  C3_11 
REMARK    4  A    between atoms: C3_11  and  C4_13 
REMARK       I    between atoms: C4_13  and  N4_15 
REMARK    5  A    between atoms: N4_15  and  C5_17 
REMARK    6  A    between atoms: C7_21  and  S1_22 
REMARK    7  A    between atoms: S1_22  and  N6_23 
ROOT
HETATM    1  C4  UNL     1      36.734  -3.812  12.878  1.00  0.00     0.315 C 
HETATM    2  O3  UNL     1      36.719  -3.710  14.134  1.00  0.00    -0.262 OA
HETATM    3  N4  UNL     1      37.527  -2.896  12.130  1.00  0.00    -0.299 N 
ATOM      4  H4  UNL     1      38.053  -3.179  11.303  1.00  0.00     0.171 HD
ENDROOT
BRANCH   1   5
HETATM    5  C3  UNL     1      35.941  -4.857  12.257  1.00  0.00     0.310 C 
HETATM    6  N3  UNL     1      36.049  -6.179  12.707  1.00  0.00    -0.344 N 
ATOM      7  H3  UNL     1      36.682  -6.405  13.475  1.00  0.00     0.163 HD
HETATM    8  O2  UNL     1      35.165  -4.570  11.321  1.00  0.00    -0.262 OA
BRANCH   6   9
HETATM    9  C2  UNL     1      35.272  -7.220  12.091  1.00  0.00     0.227 C 
BRANCH   9  10
HETATM   10  C1  UNL     1      33.822  -7.105  12.285  1.00  0.00     0.253 C 
HETATM   11  N2  UNL     1      33.060  -6.403  11.317  1.00  0.00    -0.275 N 
ATOM     12  H2  UNL     1      33.525  -5.993  10.507  1.00  0.00     0.189 HD
HETATM   13  O1  UNL     1      33.264  -7.627  13.307  1.00  0.00    -0.270 OA
BRANCH  11  14
HETATM   14  N1  UNL     1      31.698  -6.272  11.459  1.00  0.00    -0.343 N 
ATOM     15  H12 UNL     1      31.320  -5.369  11.749  1.00  0.00     0.176 HD
ATOM     16  H11 UNL     1      31.078  -7.061  11.278  1.00  0.00     0.176 HD
ENDBRANCH  11  14
ENDBRANCH   9  10
ENDBRANCH   6   9
ENDBRANCH   1   5
BRANCH   3  17
HETATM   17  C5  UNL     1      37.535  -1.664  12.579  1.00  0.00     0.152 A 
HETATM   18  N5  UNL     1      38.261  -1.185  13.577  1.00  0.00    -0.344 N 
HETATM   19  C6  UNL     1      38.160   0.063  13.907  1.00  0.00     0.123 A 
ATOM     20  H5  UNL     1      38.899  -1.799  14.084  1.00  0.00     0.167 HD
HETATM   21  C7  UNL     1      37.286   0.843  13.192  1.00  0.00     0.138 A 
HETATM   22  S2  UNL     1      36.658  -0.292  12.073  1.00  0.00    -0.039 SA
BRANCH  21  23
HETATM   23  S1  UNL     1      36.925   2.555  13.394  1.00  0.00     0.264 S 
HETATM   24  O4  UNL     1      37.052   3.210  12.075  1.00  0.00    -0.200 OA
HETATM   25  O5  UNL     1      35.526   2.661  13.947  1.00  0.00    -0.200 OA
BRANCH  23  26
HETATM   26  N6  UNL     1      38.003   3.170  14.573  1.00  0.00    -0.324 N 
ATOM     27  H62 UNL     1      38.942   2.819  14.757  1.00  0.00     0.169 HD
ATOM     28  H61 UNL     1      37.531   3.942  15.045  1.00  0.00     0.169 HD
ENDBRANCH  23  26
ENDBRANCH  21  23
ENDBRANCH   3  17
TORSDOF 7
ENDMDL
MODEL 2
REMARK VINA RESULT: -6.388790204      1.297      1.303
REMARK  7 active torsions:
REMARK  status: ('A' for Active; 'I' for Inactive)
REMARK    1  A    between atoms: N1_1  and  N2_4 
REMARK       I    between atoms: N2_4  and  C1_6 
REMARK    2  A    between atoms: C1_6  and  C2_8 
REMARK    3  A    between atoms: C2_8  and  N3_9 
REMARK       I    between atoms: N3_9  and  C3_11 
REMARK    4  A    between atoms: C3_11  and  C4_13 
REMARK       I    between atoms: C4_13  and  N4_15 
REMARK    5  A    between atoms: N4_15  and  C5_17 
REMARK    6  A    between atoms: C7_21  and  S1_22 
REMARK    7  A    between atoms: S1_22  and  N6_23 
ROOT
HETATM    1  C4  UNL     1      37.784  -4.006  12.757  1.00  0.00     0.315 C 
HETATM    2  O3  UNL     1      38.922  -3.702  13.208  1.00  0.00    -0.262 OA
HETATM    3  N4  UNL     1      37.147  -3.106  11.856  1.00  0.00    -0.299 N 
ATOM      4  H4  UNL     1      36.605  -3.428  11.054  1.00  0.00     0.171 HD
ENDROOT
BRANCH   1   5
HETATM    5  C3  UNL     1      37.182  -5.257  13.179  1.00  0.00     0.310 C 
HETATM    6  N3  UNL     1      36.094  -5.784  12.471  1.00  0.00    -0.344 N 
ATOM      7  H3  UNL     1      35.729  -5.290  11.656  1.00  0.00     0.163 HD
HETATM    8  O2  UNL     1      37.639  -5.858  14.174  1.00  0.00    -0.262 OA
BRANCH   6   9
HETATM    9  C2  UNL     1      35.488  -7.019  12.890  1.00  0.00     0.227 C 
BRANCH   9  10
HETATM   10  C1  UNL     1      34.033  -7.083  12.717  1.00  0.00     0.253 C 
HETATM   11  N2  UNL     1      33.434  -6.296  11.700  1.00  0.00    -0.275 N 
ATOM     12  H2  UNL     1      34.017  -5.703  11.110  1.00  0.00     0.189 HD
HETATM   13  O1  UNL     1      33.325  -7.833  13.468  1.00  0.00    -0.270 OA
BRANCH  11  14
HETATM   14  N1  UNL     1      32.073  -6.325  11.502  1.00  0.00    -0.343 N 
ATOM     15  H12 UNL     1      31.460  -6.379  12.317  1.00  0.00     0.176 HD
ATOM     16  H11 UNL     1      31.684  -6.294  10.560  1.00  0.00     0.176 HD
ENDBRANCH  11  14
ENDBRANCH   9  10
ENDBRANCH   6   9
ENDBRANCH   1   5
BRANCH   3  17
HETATM   17  C5  UNL     1      37.305  -1.833  12.129  1.00  0.00     0.152 A 
HETATM   18  N5  UNL     1      38.419  -1.127  12.014  1.00  0.00    -0.344 N 
HETATM   19  C6  UNL     1      38.420   0.131  12.324  1.00  0.00     0.123 A 
ATOM     20  H5  UNL     1      39.274  -1.573  11.682  1.00  0.00     0.167 HD
HETATM   21  C7  UNL     1      37.242   0.680  12.766  1.00  0.00     0.138 A 
HETATM   22  S2  UNL     1      36.195  -0.674  12.704  1.00  0.00    -0.039 SA
BRANCH  21  23
HETATM   23  S1  UNL     1      36.923   2.340  13.259  1.00  0.00     0.264 S 
HETATM   24  O4  UNL     1      37.064   3.208  12.070  1.00  0.00    -0.200 OA
HETATM   25  O5  UNL     1      35.526   2.383  13.828  1.00  0.00    -0.200 OA
BRANCH  23  26
HETATM   26  N6  UNL     1      38.015   2.720  14.521  1.00  0.00    -0.324 N 
ATOM     27  H62 UNL     1      39.029   2.776  14.429  1.00  0.00     0.169 HD
ATOM     28  H61 UNL     1      37.464   2.876  15.365  1.00  0.00     0.169 HD
ENDBRANCH  23  26
ENDBRANCH  21  23
ENDBRANCH   3  17
TORSDOF 7
ENDMDL
MODEL 3
REMARK VINA RESULT: -6.159554115      2.593      8.000
REMARK  7 active torsions:
REMARK  status: ('A' for Active; 'I' for Inactive)
REMARK    1  A    between atoms: N1_1  and  N2_4 
REMARK       I    between atoms: N2_4  and  C1_6 
REMARK    2  A    between atoms: C1_6  and  C2_8 
REMARK    3  A    between atoms: C2_8  and  N3_9 
REMARK       I    between atoms: N3_9  and  C3_11 
REMARK    4  A    between atoms: C3_11  and  C4_13 
REMARK       I    between atoms: C4_13  and  N4_15 
REMARK    5  A    between atoms: N4_15  and  C5_17 
REMARK    6  A    between atoms: C7_21  and  S1_22 
REMARK    7  A    between atoms: S1_22  and  N6_23 
ROOT
HETATM    1  C4  UNL     1      37.359  -1.876  12.741  1.00  0.00     0.315 C 
HETATM    2  O3  UNL     1      38.124  -2.667  12.126  1.00  0.00    -0.262 OA
HETATM    3  N4  UNL     1      36.510  -2.402  13.755  1.00  0.00    -0.299 N 
ATOM      4  H4  UNL     1      36.320  -1.900  14.623  1.00  0.00     0.171 HD
ENDROOT
BRANCH   1   5
HETATM    5  C3  UNL     1      37.382  -0.470  12.384  1.00  0.00     0.310 C 
HETATM    6  N3  UNL     1      37.802   0.484  13.321  1.00  0.00    -0.344 N 
ATOM      7  H3  UNL     1      38.096   0.188  14.251  1.00  0.00     0.163 HD
HETATM    8  O2  UNL     1      37.026  -0.116  11.239  1.00  0.00    -0.262 OA
BRANCH   6   9
HETATM    9  C2  UNL     1      37.820   1.880  12.974  1.00  0.00     0.227 C 
BRANCH   9  10
HETATM   10  C1  UNL     1      36.627   2.631  13.379  1.00  0.00     0.253 C 
HETATM   11  N2  UNL     1      36.723   4.040  13.512  1.00  0.00    -0.275 N 
ATOM     12  H2  UNL     1      37.611   4.506  13.326  1.00  0.00     0.189 HD
HETATM   13  O1  UNL     1      35.527   2.025  13.605  1.00  0.00    -0.270 OA
BRANCH  11  14
HETATM   14  N1  UNL     1      35.629   4.784  13.889  1.00  0.00    -0.343 N 
ATOM     15  H12 UNL     1      35.240   5.455  13.225  1.00  0.00     0.176 HD
ATOM     16  H11 UNL     1      35.214   4.667  14.813  1.00  0.00     0.176 HD
ENDBRANCH  11  14
ENDBRANCH   9  10
ENDBRANCH   6   9
ENDBRANCH   1   5
BRANCH   3  17
HETATM   17  C5  UNL     1      35.987  -3.577  13.497  1.00  0.00     0.152 A 
HETATM   18  N5  UNL     1      36.297  -4.728  14.072  1.00  0.00    -0.344 N 
HETATM   19  C6  UNL     1      35.691  -5.814  13.708  1.00  0.00     0.123 A 
ATOM     20  H5  UNL     1      37.011  -4.760  14.800  1.00  0.00     0.167 HD
HETATM   21  C7  UNL     1      34.739  -5.714  12.724  1.00  0.00     0.138 A 
HETATM   22  S2  UNL     1      34.782  -4.036  12.383  1.00  0.00    -0.039 SA
BRANCH  21  23
HETATM   23  S1  UNL     1      33.752  -6.991  12.018  1.00  0.00     0.264 S 
HETATM   24  O4  UNL     1      34.526  -7.620  10.927  1.00  0.00    -0.200 OA
HETATM   25  O5  UNL     1      33.425  -7.969  13.118  1.00  0.00    -0.200 OA
BRANCH  23  26
HETATM   26  N6  UNL     1      32.286  -6.277  11.497  1.00  0.00    -0.324 N 
ATOM     27  H62 UNL     1      32.158  -5.293  11.262  1.00  0.00     0.169 HD
ATOM     28  H61 UNL     1      31.581  -7.014  11.468  1.00  0.00     0.169 HD
ENDBRANCH  23  26
ENDBRANCH  21  23
ENDBRANCH   3  17
TORSDOF 7
ENDMDL
MODEL 4
REMARK VINA RESULT: -6.095407341      1.577      1.717
REMARK  7 active torsions:
REMARK  status: ('A' for Active; 'I' for Inactive)
REMARK    1  A    between atoms: N1_1  and  N2_4 
REMARK       I    between atoms: N2_4  and  C1_6 
REMARK    2  A    between atoms: C1_6  and  C2_8 
REMARK    3  A    between atoms: C2_8  and  N3_9 
REMARK       I    between atoms: N3_9  and  C3_11 
REMARK    4  A    between atoms: C3_11  and  C4_13 
REMARK       I    between atoms: C4_13  and  N4_15 
REMARK    5  A    between atoms: N4_15  and  C5_17 
REMARK    6  A    between atoms: C7_21  and  S1_22 
REMARK    7  A    between atoms: S1_22  and  N6_23 
ROOT
HETATM    1  C4  UNL     1      36.561  -4.058  12.728  1.00  0.00     0.315 C 
HETATM    2  O3  UNL     1      37.504  -3.954  13.558  1.00  0.00    -0.262 OA
HETATM    3  N4  UNL     1      36.486  -3.117  11.663  1.00  0.00    -0.299 N 
ATOM      4  H4  UNL     1      36.205  -3.383  10.719  1.00  0.00     0.171 HD
ENDROOT
BRANCH   1   5
HETATM    5  C3  UNL     1      35.599  -5.131  12.901  1.00  0.00     0.310 C 
HETATM    6  N3  UNL     1      34.606  -5.344  11.936  1.00  0.00    -0.344 N 
ATOM      7  H3  UNL     1      34.563  -4.747  11.110  1.00  0.00     0.163 HD
HETATM    8  O2  UNL     1      35.662  -5.860  13.914  1.00  0.00    -0.262 OA
BRANCH   6   9
HETATM    9  C2  UNL     1      33.645  -6.400  12.107  1.00  0.00     0.227 C 
BRANCH   9  10
HETATM   10  C1  UNL     1      33.910  -7.608  11.317  1.00  0.00     0.253 C 
HETATM   11  N2  UNL     1      32.972  -8.670  11.364  1.00  0.00    -0.275 N 
ATOM     12  H2  UNL     1      32.135  -8.581  11.941  1.00  0.00     0.189 HD
HETATM   13  O1  UNL     1      34.964  -7.695  10.603  1.00  0.00    -0.270 OA
BRANCH  11  14
HETATM   14  N1  UNL     1      33.180  -9.821  10.639  1.00  0.00    -0.343 N 
ATOM     15  H12 UNL     1      34.056  -9.926  10.128  1.00  0.00     0.176 HD
ATOM     16  H11 UNL     1      32.471 -10.554  10.614  1.00  0.00     0.176 HD
ENDBRANCH  11  14
ENDBRANCH   9  10
ENDBRANCH   6   9
ENDBRANCH   1   5
BRANCH   3  17
HETATM   17  C5  UNL     1      36.803  -1.884  11.979  1.00  0.00     0.152 A 
HETATM   18  N5  UNL     1      38.005  -1.333  11.923  1.00  0.00    -0.344 N 
HETATM   19  C6  UNL     1      38.164  -0.095  12.271  1.00  0.00     0.123 A 
ATOM     20  H5  UNL     1      38.805  -1.883  11.607  1.00  0.00     0.167 HD
HETATM   21  C7  UNL     1      37.054   0.596  12.688  1.00  0.00     0.138 A 
HETATM   22  S2  UNL     1      35.837  -0.601  12.550  1.00  0.00    -0.039 SA
BRANCH  21  23
HETATM   23  S1  UNL     1      36.942   2.272  13.220  1.00  0.00     0.264 S 
HETATM   24  O4  UNL     1      36.968   3.137  12.021  1.00  0.00    -0.200 OA
HETATM   25  O5  UNL     1      35.656   2.416  13.995  1.00  0.00    -0.200 OA
BRANCH  23  26
HETATM   26  N6  UNL     1      38.240   2.556  14.299  1.00  0.00    -0.324 N 
ATOM     27  H62 UNL     1      38.659   1.861  14.916  1.00  0.00     0.169 HD
ATOM     28  H61 UNL     1      38.506   3.536  14.206  1.00  0.00     0.169 HD
ENDBRANCH  23  26
ENDBRANCH  21  23
ENDBRANCH   3  17
TORSDOF 7
ENDMDL
MODEL 5
REMARK VINA RESULT: -6.084560667      3.627      8.832
REMARK  7 active torsions:
REMARK  status: ('A' for Active; 'I' for Inactive)
REMARK    1  A    between atoms: N1_1  and  N2_4 
REMARK       I    between atoms: N2_4  and  C1_6 
REMARK    2  A    between atoms: C1_6  and  C2_8 
REMARK    3  A    between atoms: C2_8  and  N3_9 
REMARK       I    between atoms: N3_9  and  C3_11 
REMARK    4  A    between atoms: C3_11  and  C4_13 
REMARK       I    between atoms: C4_13  and  N4_15 
REMARK    5  A    between atoms: N4_15  and  C5_17 
REMARK    6  A    between atoms: C7_21  and  S1_22 
REMARK    7  A    between atoms: S1_22  and  N6_23 
ROOT
HETATM    1  C4  UNL     1      35.509  -4.137  12.051  1.00  0.00     0.315 C 
HETATM    2  O3  UNL     1      36.548  -4.790  12.342  1.00  0.00    -0.262 OA
HETATM    3  N4  UNL     1      34.245  -4.780  12.176  1.00  0.00    -0.299 N 
ATOM      4  H4  UNL     1      33.417  -4.294  12.522  1.00  0.00     0.171 HD
ENDROOT
BRANCH   1   5
HETATM    5  C3  UNL     1      35.655  -2.765  11.604  1.00  0.00     0.310 C 
HETATM    6  N3  UNL     1      36.800  -2.033  11.948  1.00  0.00    -0.344 N 
ATOM      7  H3  UNL     1      37.532  -2.469  12.509  1.00  0.00     0.163 HD
HETATM    8  O2  UNL     1      34.756  -2.241  10.911  1.00  0.00    -0.262 OA
BRANCH   6   9
HETATM    9  C2  UNL     1      36.946  -0.671  11.514  1.00  0.00     0.227 C 
BRANCH   9  10
HETATM   10  C1  UNL     1      36.966   0.322  12.593  1.00  0.00     0.253 C 
HETATM   11  N2  UNL     1      37.273  -0.109  13.909  1.00  0.00    -0.275 N 
ATOM     12  H2  UNL     1      37.472  -1.094  14.084  1.00  0.00     0.189 HD
HETATM   13  O1  UNL     1      36.714   1.549  12.348  1.00  0.00    -0.270 OA
BRANCH  11  14
HETATM   14  N1  UNL     1      37.303   0.788  14.951  1.00  0.00    -0.343 N 
ATOM     15  H12 UNL     1      36.459   0.921  15.508  1.00  0.00     0.176 HD
ATOM     16  H11 UNL     1      38.155   1.309  15.163  1.00  0.00     0.176 HD
ENDBRANCH  11  14
ENDBRANCH   9  10
ENDBRANCH   6   9
ENDBRANCH   1   5
BRANCH   3  17
HETATM   17  C5  UNL     1      34.217  -6.040  11.815  1.00  0.00     0.152 A 
HETATM   18  N5  UNL     1      34.630  -6.547  10.663  1.00  0.00    -0.344 N 
HETATM   19  C6  UNL     1      34.538  -7.821  10.449  1.00  0.00     0.123 A 
ATOM     20  H5  UNL     1      35.019  -5.934   9.946  1.00  0.00     0.167 HD
HETATM   21  C7  UNL     1      34.006  -8.598  11.448  1.00  0.00     0.138 A 
HETATM   22  S2  UNL     1      33.668  -7.422  12.647  1.00  0.00    -0.039 SA
BRANCH  21  23
HETATM   23  S1  UNL     1      33.751 -10.341  11.463  1.00  0.00     0.264 S 
HETATM   24  O4  UNL     1      34.957 -10.977  12.034  1.00  0.00    -0.200 OA
HETATM   25  O5  UNL     1      32.521 -10.611  12.295  1.00  0.00    -0.200 OA
BRANCH  23  26
HETATM   26  N6  UNL     1      33.414 -10.824   9.856  1.00  0.00    -0.324 N 
ATOM     27  H62 UNL     1      32.623 -11.398   9.564  1.00  0.00     0.169 HD
ATOM     28  H61 UNL     1      34.145 -10.434   9.261  1.00  0.00     0.169 HD
ENDBRANCH  23  26
ENDBRANCH  21  23
ENDBRANCH   3  17
TORSDOF 7
ENDMDL
