MODEL 1
REMARK VINA RESULT: -6.127471215      0.000      0.000
REMARK  6 active torsions:
REMARK  status: ('A' for Active; 'I' for Inactive)
REMARK    1  A    between atoms: O1_1  and  C1_3 
REMARK    2  A    between atoms: C1_3  and  C2_4 
REMARK    3  A    between atoms: C2_4  and  C3_5 
REMARK    4  A    between atoms: C3_5  and  N1_6 
REMARK    5  A    between atoms: N1_6  and  C4_7 
REMARK    6  A    between atoms: N1_6  and  C7_10 
ROOT
HETATM    1  C2  UNL     1      13.596  17.692   2.416  1.00  0.00     0.020 C 
HETATM    2  C10 UNL     1      13.923  17.977   1.010  1.00  0.00     0.002 C 
HETATM    3  C11 UNL     1      14.982  18.935   1.504  1.00  0.00     0.011 C 
HETATM    4  C12 UNL     1      15.096  17.769   2.419  1.00  0.00     0.002 C 
HETATM    5  C13 UNL     1      15.050  16.972   1.140  1.00  0.00     0.011 C 
ENDROOT
BRANCH   1   6
HETATM    6  C1  UNL     1      12.862  18.755   3.187  1.00  0.00     0.179 C 
BRANCH   6   7
HETATM    7  O1  UNL     1      13.301  18.771   4.543  1.00  0.00    -0.400 OA
ATOM      8  H1  UNL     1      12.562  18.649   5.127  1.00  0.00     0.209 HD
ENDBRANCH   6   7
ENDBRANCH   1   6
BRANCH   1   9
HETATM    9  C3  UNL     1      13.048  16.336   2.789  1.00  0.00     0.071 C 
BRANCH   9  10
HETATM   10  N1  UNL     1      11.699  16.156   2.997  1.00  0.00    -0.383 N 
BRANCH  10  11
HETATM   11  C4  UNL     1      11.258  15.843   4.309  1.00  0.00     0.084 A 
HETATM   12  C5  UNL     1      10.249  16.848   4.939  1.00  0.00     0.027 A 
HETATM   13  C6  UNL     1       9.879  15.409   4.623  1.00  0.00     0.027 A 
ENDBRANCH  10  11
BRANCH  10  14
HETATM   14  C7  UNL     1      10.706  16.022   2.013  1.00  0.00     0.084 A 
HETATM   15  C8  UNL     1      10.999  16.107   0.555  1.00  0.00     0.027 A 
HETATM   16  C9  UNL     1      10.724  14.766   1.124  1.00  0.00     0.027 A 
ENDBRANCH  10  14
ENDBRANCH   9  10
ENDBRANCH   1   9
TORSDOF 6
ENDMDL
MODEL 2
REMARK VINA RESULT: -5.912316986      1.311      4.066
REMARK  6 active torsions:
REMARK  status: ('A' for Active; 'I' for Inactive)
REMARK    1  A    between atoms: O1_1  and  C1_3 
REMARK    2  A    between atoms: C1_3  and  C2_4 
REMARK    3  A    between atoms: C2_4  and  C3_5 
REMARK    4  A    between atoms: C3_5  and  N1_6 
REMARK    5  A    between atoms: N1_6  and  C4_7 
REMARK    6  A    between atoms: N1_6  and  C7_10 
ROOT
HETATM    1  C2  UNL     1      11.659  18.013   4.476  1.00  0.00     0.020 C 
HETATM    2  C10 UNL     1      10.607  17.692   5.453  1.00  0.00     0.002 C 
HETATM    3  C11 UNL     1       9.829  18.877   4.929  1.00  0.00     0.011 C 
HETATM    4  C12 UNL     1      10.390  18.244   3.705  1.00  0.00     0.002 C 
HETATM    5  C13 UNL     1       9.884  16.970   4.332  1.00  0.00     0.011 C 
ENDROOT
BRANCH   1   6
HETATM    6  C1  UNL     1      12.514  19.221   4.750  1.00  0.00     0.179 C 
BRANCH   6   7
HETATM    7  O1  UNL     1      13.224  19.054   5.973  1.00  0.00    -0.400 OA
ATOM      8  H1  UNL     1      12.615  18.929   6.691  1.00  0.00     0.209 HD
ENDBRANCH   6   7
ENDBRANCH   1   6
BRANCH   1   9
HETATM    9  C3  UNL     1      12.521  16.905   3.924  1.00  0.00     0.071 C 
BRANCH   9  10
HETATM   10  N1  UNL     1      12.977  16.949   2.625  1.00  0.00    -0.383 N 
BRANCH  10  11
HETATM   11  C4  UNL     1      13.746  18.072   2.221  1.00  0.00     0.084 A 
HETATM   12  C5  UNL     1      15.287  17.851   2.178  1.00  0.00     0.027 A 
HETATM   13  C6  UNL     1      14.469  18.143   0.932  1.00  0.00     0.027 A 
ENDBRANCH  10  11
BRANCH  10  14
HETATM   14  C7  UNL     1      12.582  16.116   1.566  1.00  0.00     0.084 A 
HETATM   15  C8  UNL     1      11.436  15.170   1.669  1.00  0.00     0.027 A 
HETATM   16  C9  UNL     1      11.241  16.403   0.871  1.00  0.00     0.027 A 
ENDBRANCH  10  14
ENDBRANCH   9  10
ENDBRANCH   1   9
TORSDOF 6
ENDMDL
MODEL 3
REMARK VINA RESULT: -5.906437655      4.208      5.905
REMARK  6 active torsions:
REMARK  status: ('A' for Active; 'I' for Inactive)
REMARK    1  A    between atoms: O1_1  and  C1_3 
REMARK    2  A    between atoms: C1_3  and  C2_4 
REMARK    3  A    between atoms: C2_4  and  C3_5 
REMARK    4  A    between atoms: C3_5  and  N1_6 
REMARK    5  A    between atoms: N1_6  and  C4_7 
REMARK    6  A    between atoms: N1_6  and  C7_10 
ROOT
HETATM    1  C2  UNL     1      14.088  21.944   3.191  1.00  0.00     0.020 C 
HETATM    2  C10 UNL     1      15.164  22.443   4.062  1.00  0.00     0.002 C 
HETATM    3  C11 UNL     1      15.946  22.784   2.814  1.00  0.00     0.011 C 
HETATM    4  C12 UNL     1      14.553  23.187   2.488  1.00  0.00     0.002 C 
HETATM    5  C13 UNL     1      14.597  23.833   3.849  1.00  0.00     0.011 C 
ENDROOT
BRANCH   1   6
HETATM    6  C1  UNL     1      14.321  20.638   2.480  1.00  0.00     0.179 C 
BRANCH   6   7
HETATM    7  O1  UNL     1      15.154  19.791   3.267  1.00  0.00    -0.400 OA
ATOM      8  H1  UNL     1      15.239  18.940   2.854  1.00  0.00     0.209 HD
ENDBRANCH   6   7
ENDBRANCH   1   6
BRANCH   1   9
HETATM    9  C3  UNL     1      12.659  22.005   3.670  1.00  0.00     0.071 C 
BRANCH   9  10
HETATM   10  N1  UNL     1      12.318  21.548   4.924  1.00  0.00    -0.383 N 
BRANCH  10  11
HETATM   11  C4  UNL     1      11.514  22.381   5.745  1.00  0.00     0.084 A 
HETATM   12  C5  UNL     1      12.289  23.374   6.661  1.00  0.00     0.027 A 
HETATM   13  C6  UNL     1      11.376  23.839   5.540  1.00  0.00     0.027 A 
ENDBRANCH  10  11
BRANCH  10  14
HETATM   14  C7  UNL     1      12.859  20.438   5.591  1.00  0.00     0.084 A 
HETATM   15  C8  UNL     1      12.082  19.628   6.571  1.00  0.00     0.027 A 
HETATM   16  C9  UNL     1      12.327  19.039   5.233  1.00  0.00     0.027 A 
ENDBRANCH  10  14
ENDBRANCH   9  10
ENDBRANCH   1   9
TORSDOF 6
ENDMDL
MODEL 4
REMARK VINA RESULT: -5.895359479      1.630      4.606
REMARK  6 active torsions:
REMARK  status: ('A' for Active; 'I' for Inactive)
REMARK    1  A    between atoms: O1_1  and  C1_3 
REMARK    2  A    between atoms: C1_3  and  C2_4 
REMARK    3  A    between atoms: C2_4  and  C3_5 
REMARK    4  A    between atoms: C3_5  and  N1_6 
REMARK    5  A    between atoms: N1_6  and  C4_7 
REMARK    6  A    between atoms: N1_6  and  C7_10 
ROOT
HETATM    1  C2  UNL     1      11.458  15.238   2.527  1.00  0.00     0.020 C 
HETATM    2  C10 UNL     1      11.034  14.602   1.270  1.00  0.00     0.002 C 
HETATM    3  C11 UNL     1       9.603  14.871   1.676  1.00  0.00     0.011 C 
HETATM    4  C12 UNL     1      10.327  16.111   2.063  1.00  0.00     0.002 C 
HETATM    5  C13 UNL     1      10.924  15.996   0.683  1.00  0.00     0.011 C 
ENDROOT
BRANCH   1   6
HETATM    6  C1  UNL     1      11.239  14.468   3.801  1.00  0.00     0.179 C 
BRANCH   6   7
HETATM    7  O1  UNL     1      10.329  15.165   4.647  1.00  0.00    -0.400 OA
ATOM      8  H1  UNL     1       9.694  14.561   5.013  1.00  0.00     0.209 HD
ENDBRANCH   6   7
ENDBRANCH   1   6
BRANCH   1   9
HETATM    9  C3  UNL     1      12.792  15.940   2.589  1.00  0.00     0.071 C 
BRANCH   9  10
HETATM   10  N1  UNL     1      12.880  17.246   3.016  1.00  0.00    -0.383 N 
BRANCH  10  11
HETATM   11  C4  UNL     1      13.555  18.179   2.187  1.00  0.00     0.084 A 
HETATM   12  C5  UNL     1      15.096  17.989   2.075  1.00  0.00     0.027 A 
HETATM   13  C6  UNL     1      14.164  17.822   0.887  1.00  0.00     0.027 A 
ENDBRANCH  10  11
BRANCH  10  14
HETATM   14  C7  UNL     1      12.575  17.735   4.297  1.00  0.00     0.084 A 
HETATM   15  C8  UNL     1      12.595  19.187   4.631  1.00  0.00     0.027 A 
HETATM   16  C9  UNL     1      11.273  18.533   4.483  1.00  0.00     0.027 A 
ENDBRANCH  10  14
ENDBRANCH   9  10
ENDBRANCH   1   9
TORSDOF 6
ENDMDL
MODEL 5
REMARK VINA RESULT: -5.874598363      1.178      2.794
REMARK  6 active torsions:
REMARK  status: ('A' for Active; 'I' for Inactive)
REMARK    1  A    between atoms: O1_1  and  C1_3 
REMARK    2  A    between atoms: C1_3  and  C2_4 
REMARK    3  A    between atoms: C2_4  and  C3_5 
REMARK    4  A    between atoms: C3_5  and  N1_6 
REMARK    5  A    between atoms: N1_6  and  C4_7 
REMARK    6  A    between atoms: N1_6  and  C7_10 
ROOT
HETATM    1  C2  UNL     1      13.849  17.218   2.244  1.00  0.00     0.020 C 
HETATM    2  C10 UNL     1      15.002  18.125   2.357  1.00  0.00     0.002 C 
HETATM    3  C11 UNL     1      15.740  17.224   1.394  1.00  0.00     0.011 C 
HETATM    4  C12 UNL     1      14.364  17.298   0.835  1.00  0.00     0.002 C 
HETATM    5  C13 UNL     1      14.525  18.778   1.074  1.00  0.00     0.011 C 
ENDROOT
BRANCH   1   6
HETATM    6  C1  UNL     1      13.949  15.881   2.926  1.00  0.00     0.179 C 
BRANCH   6   7
HETATM    7  O1  UNL     1      14.086  16.055   4.334  1.00  0.00    -0.400 OA
ATOM      8  H1  UNL     1      14.854  15.594   4.648  1.00  0.00     0.209 HD
ENDBRANCH   6   7
ENDBRANCH   1   6
BRANCH   1   9
HETATM    9  C3  UNL     1      12.455  17.767   2.422  1.00  0.00     0.071 C 
BRANCH   9  10
HETATM   10  N1  UNL     1      11.383  16.920   2.594  1.00  0.00    -0.383 N 
BRANCH  10  11
HETATM   11  C4  UNL     1      10.822  16.305   1.444  1.00  0.00     0.084 A 
HETATM   12  C5  UNL     1      11.143  14.792   1.266  1.00  0.00     0.027 A 
HETATM   13  C6  UNL     1       9.734  15.305   1.504  1.00  0.00     0.027 A 
ENDBRANCH  10  11
BRANCH  10  14
HETATM   14  C7  UNL     1      10.617  16.757   3.760  1.00  0.00     0.084 A 
HETATM   15  C8  UNL     1      10.846  17.561   4.993  1.00  0.00     0.027 A 
HETATM   16  C9  UNL     1       9.659  17.889   4.169  1.00  0.00     0.027 A 
ENDBRANCH  10  14
ENDBRANCH   9  10
ENDBRANCH   1   9
TORSDOF 6
ENDMDL
