MODEL 1
REMARK VINA RESULT: -6.835375564      0.000      0.000
REMARK  5 active torsions:
REMARK  status: ('A' for Active; 'I' for Inactive)
REMARK    1  A    between atoms: C1_2  and  C2_4 
REMARK    2  A    between atoms: C2_4  and  C7_9 
REMARK    3  A    between atoms: C3_5  and  C4_6 
REMARK    4  A    between atoms: C7_9  and  C8_10 
REMARK    5  A    between atoms: C8_10  and  N1_11 
ROOT
HETATM    1  C2  UNL     1       9.784  16.395   5.124  1.00  0.00     0.020 C 
HETATM    2  C3  UNL     1       9.087  16.450   6.208  1.00  0.00    -0.008 C 
ENDROOT
BRANCH   1   3
HETATM    3  C1  UNL     1      10.501  17.602   4.702  1.00  0.00     0.205 C 
HETATM    4  O1  UNL     1       9.960  18.367   3.824  1.00  0.00    -0.644 OA
HETATM    5  O2  UNL     1      11.722  18.010   5.155  1.00  0.00    -0.644 OA
ENDBRANCH   1   3
BRANCH   1   6
HETATM    6  C7  UNL     1       9.894  15.189   4.300  1.00  0.00     0.089 C 
BRANCH   6   7
HETATM    7  C8  UNL     1      11.317  14.820   3.913  1.00  0.00     0.063 C 
BRANCH   7   8
HETATM    8  N1  UNL     1      11.536  15.066   2.577  1.00  0.00    -0.393 N 
HETATM    9  C9  UNL     1      10.624  14.828   1.569  1.00  0.00     0.122 C 
HETATM   10  C10 UNL     1      10.860  15.986   0.588  1.00  0.00     0.021 C 
HETATM   11  C11 UNL     1      11.917  16.874   1.257  1.00  0.00     0.021 C 
HETATM   12  C12 UNL     1      12.630  15.847   2.153  1.00  0.00     0.122 C 
ENDBRANCH   7   8
ENDBRANCH   6   7
ENDBRANCH   1   6
BRANCH   2  13
HETATM   13  C4  UNL     1       8.316  15.332   6.758  1.00  0.00     0.009 A 
HETATM   14  C5  UNL     1       7.489  15.527   7.987  1.00  0.00     0.009 A 
HETATM   15  C6  UNL     1       8.774  14.851   8.137  1.00  0.00     0.009 A 
ENDBRANCH   2  13
TORSDOF 5
ENDMDL
MODEL 2
REMARK VINA RESULT: -6.479908419      0.843      1.083
REMARK  5 active torsions:
REMARK  status: ('A' for Active; 'I' for Inactive)
REMARK    1  A    between atoms: C1_2  and  C2_4 
REMARK    2  A    between atoms: C2_4  and  C7_9 
REMARK    3  A    between atoms: C3_5  and  C4_6 
REMARK    4  A    between atoms: C7_9  and  C8_10 
REMARK    5  A    between atoms: C8_10  and  N1_11 
ROOT
HETATM    1  C2  UNL     1       9.711  17.225   5.490  1.00  0.00     0.020 C 
HETATM    2  C3  UNL     1       9.090  16.881   6.566  1.00  0.00    -0.008 C 
ENDROOT
BRANCH   1   3
HETATM    3  C1  UNL     1      10.364  18.538   5.459  1.00  0.00     0.205 C 
HETATM    4  O1  UNL     1      10.698  19.088   6.570  1.00  0.00    -0.644 OA
HETATM    5  O2  UNL     1      10.661  19.260   4.340  1.00  0.00    -0.644 OA
ENDBRANCH   1   3
BRANCH   1   6
HETATM    6  C7  UNL     1       9.795  16.372   4.302  1.00  0.00     0.089 C 
BRANCH   6   7
HETATM    7  C8  UNL     1      11.146  15.706   4.101  1.00  0.00     0.063 C 
BRANCH   7   8
HETATM    8  N1  UNL     1      11.384  15.484   2.764  1.00  0.00    -0.393 N 
HETATM    9  C9  UNL     1      10.468  14.963   1.874  1.00  0.00     0.122 C 
HETATM   10  C10 UNL     1      10.763  15.718   0.569  1.00  0.00     0.021 C 
HETATM   11  C11 UNL     1      11.857  16.733   0.927  1.00  0.00     0.021 C 
HETATM   12  C12 UNL     1      12.516  16.034   2.128  1.00  0.00     0.122 C 
ENDBRANCH   7   8
ENDBRANCH   6   7
ENDBRANCH   1   6
BRANCH   2  13
HETATM   13  C4  UNL     1       8.389  15.607   6.749  1.00  0.00     0.009 A 
HETATM   14  C5  UNL     1       7.422  15.442   7.877  1.00  0.00     0.009 A 
HETATM   15  C6  UNL     1       8.749  14.854   8.032  1.00  0.00     0.009 A 
ENDBRANCH   2  13
TORSDOF 5
ENDMDL
MODEL 3
REMARK VINA RESULT: -6.453588970      3.654      6.275
REMARK  5 active torsions:
REMARK  status: ('A' for Active; 'I' for Inactive)
REMARK    1  A    between atoms: C1_2  and  C2_4 
REMARK    2  A    between atoms: C2_4  and  C7_9 
REMARK    3  A    between atoms: C3_5  and  C4_6 
REMARK    4  A    between atoms: C7_9  and  C8_10 
REMARK    5  A    between atoms: C8_10  and  N1_11 
ROOT
HETATM    1  C2  UNL     1      14.584  17.959   1.963  1.00  0.00     0.020 C 
HETATM    2  C3  UNL     1      15.154  19.111   2.072  1.00  0.00    -0.008 C 
ENDROOT
BRANCH   1   3
HETATM    3  C1  UNL     1      15.419  16.805   1.616  1.00  0.00     0.205 C 
HETATM    4  O1  UNL     1      15.467  15.810   2.427  1.00  0.00    -0.644 OA
HETATM    5  O2  UNL     1      16.177  16.673   0.489  1.00  0.00    -0.644 OA
ENDBRANCH   1   3
BRANCH   1   6
HETATM    6  C7  UNL     1      13.148  17.750   2.167  1.00  0.00     0.089 C 
BRANCH   6   7
HETATM    7  C8  UNL     1      12.462  16.975   1.055  1.00  0.00     0.063 C 
BRANCH   7   8
HETATM    8  N1  UNL     1      11.842  15.853   1.555  1.00  0.00    -0.393 N 
HETATM    9  C9  UNL     1      11.916  15.427   2.865  1.00  0.00     0.122 C 
HETATM   10  C10 UNL     1      10.518  14.853   3.138  1.00  0.00     0.021 C 
HETATM   11  C11 UNL     1       9.713  15.124   1.860  1.00  0.00     0.021 C 
HETATM   12  C12 UNL     1      10.841  15.187   0.818  1.00  0.00     0.122 C 
ENDBRANCH   7   8
ENDBRANCH   6   7
ENDBRANCH   1   6
BRANCH   2  13
HETATM   13  C4  UNL     1      14.456  20.354   2.409  1.00  0.00     0.009 A 
HETATM   14  C5  UNL     1      15.087  21.673   2.098  1.00  0.00     0.009 A 
HETATM   15  C6  UNL     1      15.141  21.206   3.480  1.00  0.00     0.009 A 
ENDBRANCH   2  13
TORSDOF 5
ENDMDL
MODEL 4
REMARK VINA RESULT: -6.323816265      2.340      5.802
REMARK  5 active torsions:
REMARK  status: ('A' for Active; 'I' for Inactive)
REMARK    1  A    between atoms: C1_2  and  C2_4 
REMARK    2  A    between atoms: C2_4  and  C7_9 
REMARK    3  A    between atoms: C3_5  and  C4_6 
REMARK    4  A    between atoms: C7_9  and  C8_10 
REMARK    5  A    between atoms: C8_10  and  N1_11 
ROOT
HETATM    1  C2  UNL     1      12.335  16.037   2.179  1.00  0.00     0.020 C 
HETATM    2  C3  UNL     1      13.426  16.432   1.616  1.00  0.00    -0.008 C 
ENDROOT
BRANCH   1   3
HETATM    3  C1  UNL     1      11.178  15.758   1.323  1.00  0.00     0.205 C 
HETATM    4  O1  UNL     1      10.856  16.611   0.419  1.00  0.00    -0.644 OA
HETATM    5  O2  UNL     1      10.380  14.653   1.389  1.00  0.00    -0.644 OA
ENDBRANCH   1   3
BRANCH   1   6
HETATM    6  C7  UNL     1      12.198  15.855   3.626  1.00  0.00     0.089 C 
BRANCH   6   7
HETATM    7  C8  UNL     1      11.497  16.999   4.339  1.00  0.00     0.063 C 
BRANCH   7   8
HETATM    8  N1  UNL     1      10.234  16.624   4.737  1.00  0.00    -0.393 N 
HETATM    9  C9  UNL     1       9.783  15.322   4.809  1.00  0.00     0.122 C 
HETATM   10  C10 UNL     1       8.865  15.327   6.041  1.00  0.00     0.021 C 
HETATM   11  C11 UNL     1       8.980  16.740   6.626  1.00  0.00     0.021 C 
HETATM   12  C12 UNL     1       9.371  17.540   5.372  1.00  0.00     0.122 C 
ENDBRANCH   7   8
ENDBRANCH   6   7
ENDBRANCH   1   6
BRANCH   2  13
HETATM   13  C4  UNL     1      14.663  16.752   2.333  1.00  0.00     0.009 A 
HETATM   14  C5  UNL     1      15.367  18.044   2.070  1.00  0.00     0.009 A 
HETATM   15  C6  UNL     1      15.912  16.838   1.454  1.00  0.00     0.009 A 
ENDBRANCH   2  13
TORSDOF 5
ENDMDL
MODEL 5
REMARK VINA RESULT: -6.149974110      7.260      8.837
REMARK  5 active torsions:
REMARK  status: ('A' for Active; 'I' for Inactive)
REMARK    1  A    between atoms: C1_2  and  C2_4 
REMARK    2  A    between atoms: C2_4  and  C7_9 
REMARK    3  A    between atoms: C3_5  and  C4_6 
REMARK    4  A    between atoms: C7_9  and  C8_10 
REMARK    5  A    between atoms: C8_10  and  N1_11 
ROOT
HETATM    1  C2  UNL     1      10.387  23.987   6.710  1.00  0.00     0.020 C 
HETATM    2  C3  UNL     1       9.791  24.961   6.111  1.00  0.00    -0.008 C 
ENDROOT
BRANCH   1   3
HETATM    3  C1  UNL     1       9.582  23.099   7.555  1.00  0.00     0.205 C 
HETATM    4  O1  UNL     1       8.633  23.606   8.257  1.00  0.00    -0.644 OA
HETATM    5  O2  UNL     1       9.741  21.750   7.680  1.00  0.00    -0.644 OA
ENDBRANCH   1   3
BRANCH   1   6
HETATM    6  C7  UNL     1      11.823  23.726   6.586  1.00  0.00     0.089 C 
BRANCH   6   7
HETATM    7  C8  UNL     1      12.186  22.698   5.527  1.00  0.00     0.063 C 
BRANCH   7   8
HETATM    8  N1  UNL     1      12.885  23.287   4.499  1.00  0.00    -0.393 N 
HETATM    9  C9  UNL     1      13.996  24.091   4.656  1.00  0.00     0.122 C 
HETATM   10  C10 UNL     1      14.874  23.733   3.448  1.00  0.00     0.021 C 
HETATM   11  C11 UNL     1      14.129  22.603   2.726  1.00  0.00     0.021 C 
HETATM   12  C12 UNL     1      12.682  22.888   3.162  1.00  0.00     0.122 C 
ENDBRANCH   7   8
ENDBRANCH   6   7
ENDBRANCH   1   6
BRANCH   2  13
HETATM   13  C4  UNL     1      10.456  25.931   5.237  1.00  0.00     0.009 A 
HETATM   14  C5  UNL     1       9.942  27.332   5.148  1.00  0.00     0.009 A 
HETATM   15  C6  UNL     1       9.612  26.419   4.058  1.00  0.00     0.009 A 
ENDBRANCH   2  13
TORSDOF 5
ENDMDL
