MODEL 1
REMARK VINA RESULT: -6.424218904      0.000      0.000
REMARK  5 active torsions:
REMARK  status: ('A' for Active; 'I' for Inactive)
REMARK    1  A    between atoms: C2_2  and  C3_3 
REMARK    2  A    between atoms: C3_3  and  O1_4 
REMARK    3  A    between atoms: C3_3  and  C9_10 
REMARK    4  A    between atoms: O1_4  and  C4_5 
REMARK       I    between atoms: C9_10  and  N1_12 
REMARK    5  A    between atoms: N1_12  and  C10_14 
ROOT
HETATM    1  C3  UNL     1      13.873  18.355   2.269  1.00  0.00     0.235 C 
ENDROOT
BRANCH   1   2
HETATM    2  C2  UNL     1      15.293  17.931   2.085  1.00  0.00     0.004 C 
HETATM    3  C1  UNL     1      15.657  16.918   1.334  1.00  0.00     0.010 C 
ENDBRANCH   1   2
BRANCH   1   4
HETATM    4  O1  UNL     1      13.204  17.326   2.893  1.00  0.00    -0.367 OA
BRANCH   4   5
HETATM    5  C4  UNL     1      11.919  17.243   2.410  1.00  0.00     0.123 C 
HETATM    6  C5  UNL     1      11.810  16.336   1.207  1.00  0.00     0.032 C 
HETATM    7  C6  UNL     1      11.542  14.953   1.741  1.00  0.00     0.002 C 
HETATM    8  C7  UNL     1      11.537  15.088   3.259  1.00  0.00     0.002 C 
HETATM    9  C8  UNL     1      11.071  16.521   3.436  1.00  0.00     0.032 C 
ENDBRANCH   4   5
ENDBRANCH   1   4
BRANCH   1  10
HETATM   10  C9  UNL     1      13.783  19.628   3.027  1.00  0.00     0.250 C 
HETATM   11  O2  UNL     1      13.281  19.679   4.201  1.00  0.00    -0.270 OA
HETATM   12  N1  UNL     1      14.259  20.837   2.461  1.00  0.00    -0.354 N 
ATOM     13  H1  UNL     1      14.661  20.808   1.525  1.00  0.00     0.162 HD
BRANCH  12  14
HETATM   14  C10 UNL     1      14.201  22.106   3.143  1.00  0.00     0.084 A 
HETATM   15  C11 UNL     1      15.524  22.648   3.613  1.00  0.00     0.027 A 
HETATM   16  C12 UNL     1      14.836  23.276   2.435  1.00  0.00     0.027 A 
ENDBRANCH  12  14
ENDBRANCH   1  10
TORSDOF 5
ENDMDL
MODEL 2
REMARK VINA RESULT: -6.364487863      1.525      5.614
REMARK  5 active torsions:
REMARK  status: ('A' for Active; 'I' for Inactive)
REMARK    1  A    between atoms: C2_2  and  C3_3 
REMARK    2  A    between atoms: C3_3  and  O1_4 
REMARK    3  A    between atoms: C3_3  and  C9_10 
REMARK    4  A    between atoms: O1_4  and  C4_5 
REMARK       I    between atoms: C9_10  and  N1_12 
REMARK    5  A    between atoms: N1_12  and  C10_14 
ROOT
HETATM    1  C3  UNL     1      14.367  18.472   2.450  1.00  0.00     0.235 C 
ENDROOT
BRANCH   1   2
HETATM    2  C2  UNL     1      15.119  17.918   1.285  1.00  0.00     0.004 C 
HETATM    3  C1  UNL     1      15.815  16.806   1.333  1.00  0.00     0.010 C 
ENDBRANCH   1   2
BRANCH   1   4
HETATM    4  O1  UNL     1      14.078  19.790   2.175  1.00  0.00    -0.367 OA
BRANCH   4   5
HETATM    5  C4  UNL     1      14.037  20.513   3.344  1.00  0.00     0.123 C 
HETATM    6  C5  UNL     1      15.412  20.911   3.827  1.00  0.00     0.032 C 
HETATM    7  C6  UNL     1      15.719  22.240   3.188  1.00  0.00     0.002 C 
HETATM    8  C7  UNL     1      14.515  22.567   2.313  1.00  0.00     0.002 C 
HETATM    9  C8  UNL     1      13.398  21.855   3.053  1.00  0.00     0.032 C 
ENDBRANCH   4   5
ENDBRANCH   1   4
BRANCH   1  10
HETATM   10  C9  UNL     1      13.148  17.675   2.735  1.00  0.00     0.250 C 
HETATM   11  O2  UNL     1      12.774  17.420   3.929  1.00  0.00    -0.270 OA
HETATM   12  N1  UNL     1      12.356  17.169   1.674  1.00  0.00    -0.354 N 
ATOM     13  H1  UNL     1      12.646  17.366   0.716  1.00  0.00     0.162 HD
BRANCH  12  14
HETATM   14  C10 UNL     1      11.162  16.389   1.881  1.00  0.00     0.084 A 
HETATM   15  C11 UNL     1      10.605  15.720   0.654  1.00  0.00     0.027 A 
HETATM   16  C12 UNL     1      11.296  14.897   1.703  1.00  0.00     0.027 A 
ENDBRANCH  12  14
ENDBRANCH   1  10
TORSDOF 5
ENDMDL
MODEL 3
REMARK VINA RESULT: -6.319916469      1.493      1.680
REMARK  5 active torsions:
REMARK  status: ('A' for Active; 'I' for Inactive)
REMARK    1  A    between atoms: C2_2  and  C3_3 
REMARK    2  A    between atoms: C3_3  and  O1_4 
REMARK    3  A    between atoms: C3_3  and  C9_10 
REMARK    4  A    between atoms: O1_4  and  C4_5 
REMARK       I    between atoms: C9_10  and  N1_12 
REMARK    5  A    between atoms: N1_12  and  C10_14 
ROOT
HETATM    1  C3  UNL     1      13.873  17.528   1.963  1.00  0.00     0.235 C 
ENDROOT
BRANCH   1   2
HETATM    2  C2  UNL     1      15.121  16.713   2.024  1.00  0.00     0.004 C 
HETATM    3  C1  UNL     1      15.971  16.611   1.028  1.00  0.00     0.010 C 
ENDBRANCH   1   2
BRANCH   1   4
HETATM    4  O1  UNL     1      12.946  16.941   2.793  1.00  0.00    -0.367 OA
BRANCH   4   5
HETATM    5  C4  UNL     1      11.685  17.085   2.263  1.00  0.00     0.123 C 
HETATM    6  C5  UNL     1      11.545  16.420   0.914  1.00  0.00     0.032 C 
HETATM    7  C6  UNL     1      11.111  15.002   1.181  1.00  0.00     0.002 C 
HETATM    8  C7  UNL     1      11.042  14.869   2.698  1.00  0.00     0.002 C 
HETATM    9  C8  UNL     1      10.716  16.291   3.115  1.00  0.00     0.032 C 
ENDBRANCH   4   5
ENDBRANCH   1   4
BRANCH   1  10
HETATM   10  C9  UNL     1      14.135  18.945   2.323  1.00  0.00     0.250 C 
HETATM   11  O2  UNL     1      14.692  19.755   1.508  1.00  0.00    -0.270 OA
HETATM   12  N1  UNL     1      13.768  19.441   3.599  1.00  0.00    -0.354 N 
ATOM     13  H1  UNL     1      13.322  18.803   4.257  1.00  0.00     0.162 HD
BRANCH  12  14
HETATM   14  C10 UNL     1      13.993  20.804   4.012  1.00  0.00     0.084 A 
HETATM   15  C11 UNL     1      12.896  21.774   3.666  1.00  0.00     0.027 A 
HETATM   16  C12 UNL     1      13.084  21.336   5.091  1.00  0.00     0.027 A 
ENDBRANCH  12  14
ENDBRANCH   1  10
TORSDOF 5
ENDMDL
MODEL 4
REMARK VINA RESULT: -6.304807941      2.675      5.250
REMARK  5 active torsions:
REMARK  status: ('A' for Active; 'I' for Inactive)
REMARK    1  A    between atoms: C2_2  and  C3_3 
REMARK    2  A    between atoms: C3_3  and  O1_4 
REMARK    3  A    between atoms: C3_3  and  C9_10 
REMARK    4  A    between atoms: O1_4  and  C4_5 
REMARK       I    between atoms: C9_10  and  N1_12 
REMARK    5  A    between atoms: N1_12  and  C10_14 
ROOT
HETATM    1  C3  UNL     1      12.040  15.786   2.622  1.00  0.00     0.235 C 
ENDROOT
BRANCH   1   2
HETATM    2  C2  UNL     1      11.391  15.209   1.409  1.00  0.00     0.004 C 
HETATM    3  C1  UNL     1      10.656  15.909   0.576  1.00  0.00     0.010 C 
ENDBRANCH   1   2
BRANCH   1   4
HETATM    4  O1  UNL     1      12.420  17.074   2.324  1.00  0.00    -0.367 OA
BRANCH   4   5
HETATM    5  C4  UNL     1      13.625  17.357   2.923  1.00  0.00     0.123 C 
HETATM    6  C5  UNL     1      14.721  16.410   2.495  1.00  0.00     0.032 C 
HETATM    7  C6  UNL     1      15.355  17.018   1.270  1.00  0.00     0.002 C 
HETATM    8  C7  UNL     1      14.578  18.301   0.996  1.00  0.00     0.002 C 
HETATM    9  C8  UNL     1      14.122  18.685   2.391  1.00  0.00     0.032 C 
ENDBRANCH   4   5
ENDBRANCH   1   4
BRANCH   1  10
HETATM   10  C9  UNL     1      11.137  15.722   3.800  1.00  0.00     0.250 C 
HETATM   11  O2  UNL     1      10.976  14.646   4.468  1.00  0.00    -0.270 OA
HETATM   12  N1  UNL     1      10.421  16.871   4.218  1.00  0.00    -0.354 N 
ATOM     13  H1  UNL     1      10.542  17.736   3.692  1.00  0.00     0.162 HD
BRANCH  12  14
HETATM   14  C10 UNL     1       9.530  16.878   5.351  1.00  0.00     0.084 A 
HETATM   15  C11 UNL     1       9.688  18.041   6.292  1.00  0.00     0.027 A 
HETATM   16  C12 UNL     1       8.495  17.974   5.383  1.00  0.00     0.027 A 
ENDBRANCH  12  14
ENDBRANCH   1  10
TORSDOF 5
ENDMDL
MODEL 5
REMARK VINA RESULT: -6.293924208      1.663      2.809
REMARK  5 active torsions:
REMARK  status: ('A' for Active; 'I' for Inactive)
REMARK    1  A    between atoms: C2_2  and  C3_3 
REMARK    2  A    between atoms: C3_3  and  O1_4 
REMARK    3  A    between atoms: C3_3  and  C9_10 
REMARK    4  A    between atoms: O1_4  and  C4_5 
REMARK       I    between atoms: C9_10  and  N1_12 
REMARK    5  A    between atoms: N1_12  and  C10_14 
ROOT
HETATM    1  C3  UNL     1      12.473  17.483   3.065  1.00  0.00     0.235 C 
ENDROOT
BRANCH   1   2
HETATM    2  C2  UNL     1      11.619  18.283   3.991  1.00  0.00     0.004 C 
HETATM    3  C1  UNL     1      10.342  18.508   3.788  1.00  0.00     0.010 C 
ENDBRANCH   1   2
BRANCH   1   4
HETATM    4  O1  UNL     1      11.662  16.978   2.074  1.00  0.00    -0.367 OA
BRANCH   4   5
HETATM    5  C4  UNL     1      11.833  15.617   1.977  1.00  0.00     0.123 C 
HETATM    6  C5  UNL     1      11.437  14.892   3.241  1.00  0.00     0.032 C 
HETATM    7  C6  UNL     1       9.971  14.570   3.105  1.00  0.00     0.002 C 
HETATM    8  C7  UNL     1       9.542  15.154   1.764  1.00  0.00     0.002 C 
HETATM    9  C8  UNL     1      10.834  15.082   0.972  1.00  0.00     0.032 C 
ENDBRANCH   4   5
ENDBRANCH   1   4
BRANCH   1  10
HETATM   10  C9  UNL     1      13.590  18.296   2.521  1.00  0.00     0.250 C 
HETATM   11  O2  UNL     1      14.095  18.063   1.371  1.00  0.00    -0.270 OA
HETATM   12  N1  UNL     1      14.132  19.367   3.274  1.00  0.00    -0.354 N 
ATOM     13  H1  UNL     1      13.737  19.562   4.193  1.00  0.00     0.162 HD
BRANCH  12  14
HETATM   14  C10 UNL     1      15.215  20.195   2.804  1.00  0.00     0.084 A 
HETATM   15  C11 UNL     1      14.821  21.566   2.325  1.00  0.00     0.027 A 
HETATM   16  C12 UNL     1      15.538  21.411   3.636  1.00  0.00     0.027 A 
ENDBRANCH  12  14
ENDBRANCH   1  10
TORSDOF 5
ENDMDL
