MODEL 1
REMARK VINA RESULT: -5.936504630      0.000      0.000
REMARK  6 active torsions:
REMARK  status: ('A' for Active; 'I' for Inactive)
REMARK    1  A    between atoms: C2_2  and  N1_3 
REMARK    2  A    between atoms: N1_3  and  C3_4 
REMARK    3  A    between atoms: C3_4  and  C4_5 
REMARK    4  A    between atoms: C4_5  and  O1_6 
REMARK    5  A    between atoms: O1_6  and  C5_7 
REMARK    6  A    between atoms: C5_7  and  C6_9 
ROOT
HETATM    1  C3  UNL     1      11.049  17.044   2.943  1.00  0.00     0.269 C 
ENDROOT
BRANCH   1   2
HETATM    2  N1  UNL     1      12.167  16.301   2.339  1.00  0.00    -0.046 N 
HETATM    3  C9  UNL     1      13.192  16.219   3.351  1.00  0.00     0.243 C 
HETATM    4  C10 UNL     1      14.488  16.629   2.730  1.00  0.00     0.030 C 
HETATM    5  C11 UNL     1      14.176  17.008   1.314  1.00  0.00     0.030 C 
HETATM    6  C12 UNL     1      12.668  17.105   1.273  1.00  0.00     0.243 C 
BRANCH   2   7
HETATM    7  C2  UNL     1      11.650  15.049   1.961  1.00  0.00     0.192 C 
HETATM    8  C1  UNL     1      10.698  14.832   1.085  1.00  0.00     0.038 C 
ENDBRANCH   2   7
ENDBRANCH   1   2
BRANCH   1   9
HETATM    9  C4  UNL     1      11.065  16.658   4.409  1.00  0.00     0.207 C 
BRANCH   9  10
HETATM   10  O1  UNL     1       9.910  15.928   4.765  1.00  0.00    -0.319 OA
BRANCH  10  11
HETATM   11  C5  UNL     1       9.183  16.285   5.891  1.00  0.00     0.263 C 
HETATM   12  O2  UNL     1       9.302  17.465   6.304  1.00  0.00    -0.265 OA
BRANCH  11  13
HETATM   13  C6  UNL     1       8.315  15.270   6.541  1.00  0.00     0.085 A 
HETATM   14  C7  UNL     1       8.777  14.835   7.971  1.00  0.00     0.015 A 
HETATM   15  C8  UNL     1       7.576  15.673   7.769  1.00  0.00     0.015 A 
ENDBRANCH  11  13
ENDBRANCH  10  11
ENDBRANCH   9  10
ENDBRANCH   1   9
TORSDOF 6
ENDMDL
MODEL 2
REMARK VINA RESULT: -5.935574342      2.420      5.815
REMARK  6 active torsions:
REMARK  status: ('A' for Active; 'I' for Inactive)
REMARK    1  A    between atoms: C2_2  and  N1_3 
REMARK    2  A    between atoms: N1_3  and  C3_4 
REMARK    3  A    between atoms: C3_4  and  C4_5 
REMARK    4  A    between atoms: C4_5  and  O1_6 
REMARK    5  A    between atoms: O1_6  and  C5_7 
REMARK    6  A    between atoms: C5_7  and  C6_9 
ROOT
HETATM    1  C3  UNL     1      11.758  15.291   3.884  1.00  0.00     0.269 C 
ENDROOT
BRANCH   1   2
HETATM    2  N1  UNL     1      10.446  15.949   3.993  1.00  0.00    -0.046 N 
HETATM    3  C9  UNL     1      10.705  17.297   4.437  1.00  0.00     0.243 C 
HETATM    4  C10 UNL     1       9.791  17.592   5.581  1.00  0.00     0.030 C 
HETATM    5  C11 UNL     1       9.010  16.337   5.831  1.00  0.00     0.030 C 
HETATM    6  C12 UNL     1       9.733  15.278   5.030  1.00  0.00     0.243 C 
BRANCH   2   7
HETATM    7  C2  UNL     1       9.863  15.882   2.715  1.00  0.00     0.192 C 
HETATM    8  C1  UNL     1       9.683  14.798   1.998  1.00  0.00     0.038 C 
ENDBRANCH   2   7
ENDBRANCH   1   2
BRANCH   1   9
HETATM    9  C4  UNL     1      12.719  16.391   3.477  1.00  0.00     0.207 C 
BRANCH   9  10
HETATM   10  O1  UNL     1      13.381  16.078   2.270  1.00  0.00    -0.319 OA
BRANCH  10  11
HETATM   11  C5  UNL     1      13.347  16.971   1.208  1.00  0.00     0.263 C 
HETATM   12  O2  UNL     1      12.266  17.076   0.578  1.00  0.00    -0.265 OA
BRANCH  11  13
HETATM   13  C6  UNL     1      14.571  17.744   0.877  1.00  0.00     0.085 A 
HETATM   14  C7  UNL     1      14.709  19.106   1.634  1.00  0.00     0.015 A 
HETATM   15  C8  UNL     1      15.575  17.951   1.958  1.00  0.00     0.015 A 
ENDBRANCH  11  13
ENDBRANCH  10  11
ENDBRANCH   9  10
ENDBRANCH   1   9
TORSDOF 6
ENDMDL
MODEL 3
REMARK VINA RESULT: -5.901609593      2.546      5.557
REMARK  6 active torsions:
REMARK  status: ('A' for Active; 'I' for Inactive)
REMARK    1  A    between atoms: C2_2  and  N1_3 
REMARK    2  A    between atoms: N1_3  and  C3_4 
REMARK    3  A    between atoms: C3_4  and  C4_5 
REMARK    4  A    between atoms: C4_5  and  O1_6 
REMARK    5  A    between atoms: O1_6  and  C5_7 
REMARK    6  A    between atoms: C5_7  and  C6_9 
ROOT
HETATM    1  C3  UNL     1      12.224  17.266   4.279  1.00  0.00     0.269 C 
ENDROOT
BRANCH   1   2
HETATM    2  N1  UNL     1      11.191  16.452   3.618  1.00  0.00    -0.046 N 
HETATM    3  C9  UNL     1      11.760  15.137   3.447  1.00  0.00     0.243 C 
HETATM    4  C10 UNL     1      11.529  14.712   2.033  1.00  0.00     0.030 C 
HETATM    5  C11 UNL     1      10.840  15.859   1.356  1.00  0.00     0.030 C 
HETATM    6  C12 UNL     1      10.991  17.012   2.322  1.00  0.00     0.243 C 
BRANCH   2   7
HETATM    7  C2  UNL     1      10.069  16.472   4.466  1.00  0.00     0.192 C 
HETATM    8  C1  UNL     1       9.571  15.452   5.122  1.00  0.00     0.038 C 
ENDBRANCH   2   7
ENDBRANCH   1   2
BRANCH   1   9
HETATM    9  C4  UNL     1      12.374  18.497   3.407  1.00  0.00     0.207 C 
BRANCH   9  10
HETATM   10  O1  UNL     1      13.731  18.853   3.245  1.00  0.00    -0.319 OA
BRANCH  10  11
HETATM   11  C5  UNL     1      14.327  18.766   1.996  1.00  0.00     0.263 C 
HETATM   12  O2  UNL     1      14.739  19.834   1.478  1.00  0.00    -0.265 OA
BRANCH  11  13
HETATM   13  C6  UNL     1      14.446  17.437   1.344  1.00  0.00     0.085 A 
HETATM   14  C7  UNL     1      15.914  16.930   1.157  1.00  0.00     0.015 A 
HETATM   15  C8  UNL     1      15.006  16.316   2.150  1.00  0.00     0.015 A 
ENDBRANCH  11  13
ENDBRANCH  10  11
ENDBRANCH   9  10
ENDBRANCH   1   9
TORSDOF 6
ENDMDL
MODEL 4
REMARK VINA RESULT: -5.848770348      4.854      6.691
REMARK  6 active torsions:
REMARK  status: ('A' for Active; 'I' for Inactive)
REMARK    1  A    between atoms: C2_2  and  N1_3 
REMARK    2  A    between atoms: N1_3  and  C3_4 
REMARK    3  A    between atoms: C3_4  and  C4_5 
REMARK    4  A    between atoms: C4_5  and  O1_6 
REMARK    5  A    between atoms: O1_6  and  C5_7 
REMARK    6  A    between atoms: C5_7  and  C6_9 
ROOT
HETATM    1  C3  UNL     1      14.653  19.270   1.639  1.00  0.00     0.269 C 
ENDROOT
BRANCH   1   2
HETATM    2  N1  UNL     1      14.275  17.857   1.806  1.00  0.00    -0.046 N 
HETATM    3  C9  UNL     1      13.526  17.496   0.627  1.00  0.00     0.243 C 
HETATM    4  C10 UNL     1      12.274  16.808   1.067  1.00  0.00     0.030 C 
HETATM    5  C11 UNL     1      12.290  16.822   2.566  1.00  0.00     0.030 C 
HETATM    6  C12 UNL     1      13.388  17.797   2.922  1.00  0.00     0.243 C 
BRANCH   2   7
HETATM    7  C2  UNL     1      15.477  17.141   1.948  1.00  0.00     0.192 C 
HETATM    8  C1  UNL     1      16.111  16.490   1.002  1.00  0.00     0.038 C 
ENDBRANCH   2   7
ENDBRANCH   1   2
BRANCH   1   9
HETATM    9  C4  UNL     1      14.272  19.938   2.945  1.00  0.00     0.207 C 
BRANCH   9  10
HETATM   10  O1  UNL     1      13.929  21.294   2.751  1.00  0.00    -0.319 OA
BRANCH  10  11
HETATM   11  C5  UNL     1      14.717  22.294   3.300  1.00  0.00     0.263 C 
HETATM   12  O2  UNL     1      15.931  22.034   3.490  1.00  0.00    -0.265 OA
BRANCH  11  13
HETATM   13  C6  UNL     1      14.095  23.602   3.631  1.00  0.00     0.085 A 
HETATM   14  C7  UNL     1      13.265  23.615   4.957  1.00  0.00     0.015 A 
HETATM   15  C8  UNL     1      14.569  24.306   4.855  1.00  0.00     0.015 A 
ENDBRANCH  11  13
ENDBRANCH  10  11
ENDBRANCH   9  10
ENDBRANCH   1   9
TORSDOF 6
ENDMDL
MODEL 5
REMARK VINA RESULT: -5.829747314      5.291      7.165
REMARK  6 active torsions:
REMARK  status: ('A' for Active; 'I' for Inactive)
REMARK    1  A    between atoms: C2_2  and  N1_3 
REMARK    2  A    between atoms: N1_3  and  C3_4 
REMARK    3  A    between atoms: C3_4  and  C4_5 
REMARK    4  A    between atoms: C4_5  and  O1_6 
REMARK    5  A    between atoms: O1_6  and  C5_7 
REMARK    6  A    between atoms: C5_7  and  C6_9 
ROOT
HETATM    1  C3  UNL     1      13.841  21.652   2.533  1.00  0.00     0.269 C 
ENDROOT
BRANCH   1   2
HETATM    2  N1  UNL     1      13.913  22.101   3.934  1.00  0.00    -0.046 N 
HETATM    3  C9  UNL     1      12.687  22.816   4.192  1.00  0.00     0.243 C 
HETATM    4  C10 UNL     1      13.037  24.115   4.843  1.00  0.00     0.030 C 
HETATM    5  C11 UNL     1      14.534  24.161   4.913  1.00  0.00     0.030 C 
HETATM    6  C12 UNL     1      14.988  23.035   4.013  1.00  0.00     0.243 C 
BRANCH   2   7
HETATM    7  C2  UNL     1      14.060  20.939   4.713  1.00  0.00     0.192 C 
HETATM    8  C1  UNL     1      13.130  20.367   5.440  1.00  0.00     0.038 C 
ENDBRANCH   2   7
ENDBRANCH   1   2
BRANCH   1   9
HETATM    9  C4  UNL     1      15.048  20.754   2.344  1.00  0.00     0.207 C 
BRANCH   9  10
HETATM   10  O1  UNL     1      14.774  19.703   1.443  1.00  0.00    -0.319 OA
BRANCH  10  11
HETATM   11  C5  UNL     1      14.713  18.395   1.900  1.00  0.00     0.263 C 
HETATM   12  O2  UNL     1      15.797  17.766   1.994  1.00  0.00    -0.265 OA
BRANCH  11  13
HETATM   13  C6  UNL     1      13.392  17.813   2.249  1.00  0.00     0.085 A 
HETATM   14  C7  UNL     1      12.711  17.001   1.098  1.00  0.00     0.015 A 
HETATM   15  C8  UNL     1      13.276  16.328   2.288  1.00  0.00     0.015 A 
ENDBRANCH  11  13
ENDBRANCH  10  11
ENDBRANCH   9  10
ENDBRANCH   1   9
TORSDOF 6
ENDMDL
