MODEL 1
REMARK VINA RESULT: -6.555988213      0.000      0.000
REMARK  5 active torsions:
REMARK  status: ('A' for Active; 'I' for Inactive)
REMARK    1  A    between atoms: C1_2  and  C2_4 
REMARK    2  A    between atoms: C4_6  and  C5_7 
REMARK    3  A    between atoms: C6_8  and  C7_9 
REMARK    4  A    between atoms: C7_9  and  C8_10 
REMARK    5  A    between atoms: C8_10  and  N1_11 
ROOT
HETATM    1  C5  UNL     1      14.608  19.915   2.208  1.00  0.00    -0.025 C 
HETATM    2  C6  UNL     1      14.737  19.011   1.254  1.00  0.00    -0.025 C 
ENDROOT
BRANCH   2   3
HETATM    3  C7  UNL     1      14.195  17.631   1.409  1.00  0.00     0.071 C 
BRANCH   3   4
HETATM    4  C8  UNL     1      13.145  17.575   2.480  1.00  0.00     0.066 C 
BRANCH   4   5
HETATM    5  N1  UNL     1      12.008  16.821   2.213  1.00  0.00    -0.374 N 
HETATM    6  C9  UNL     1      11.630  15.743   3.013  1.00  0.00     0.063 C 
HETATM    7  C10 UNL     1      11.392  14.628   2.015  1.00  0.00     0.046 C 
HETATM    8  C11 UNL     1      10.726  15.395   0.875  1.00  0.00     0.025 C 
HETATM    9  C12 UNL     1      11.575  16.675   0.867  1.00  0.00     0.127 C 
ENDBRANCH   4   5
ENDBRANCH   3   4
ENDBRANCH   2   3
BRANCH   1  10
HETATM   10  C4  UNL     1      15.106  21.288   2.143  1.00  0.00     0.023 A 
HETATM   11  C2  UNL     1      14.390  22.473   2.631  1.00  0.00     0.095 A 
HETATM   12  C3  UNL     1      15.533  21.948   3.478  1.00  0.00     0.025 A 
BRANCH  11  13
HETATM   13  C1  UNL     1      13.041  22.473   3.207  1.00  0.00     0.177 C 
HETATM   14  O1  UNL     1      12.078  22.924   2.549  1.00  0.00    -0.648 OA
HETATM   15  O2  UNL     1      12.762  21.982   4.492  1.00  0.00    -0.648 OA
ENDBRANCH  11  13
ENDBRANCH   1  10
TORSDOF 5
ENDMDL
MODEL 2
REMARK VINA RESULT: -6.425605696      2.370      4.077
REMARK  5 active torsions:
REMARK  status: ('A' for Active; 'I' for Inactive)
REMARK    1  A    between atoms: C1_2  and  C2_4 
REMARK    2  A    between atoms: C4_6  and  C5_7 
REMARK    3  A    between atoms: C6_8  and  C7_9 
REMARK    4  A    between atoms: C7_9  and  C8_10 
REMARK    5  A    between atoms: C8_10  and  N1_11 
ROOT
HETATM    1  C5  UNL     1      12.850  16.923   1.463  1.00  0.00    -0.025 C 
HETATM    2  C6  UNL     1      11.733  16.487   0.911  1.00  0.00    -0.025 C 
ENDROOT
BRANCH   2   3
HETATM    3  C7  UNL     1      10.676  15.813   1.717  1.00  0.00     0.071 C 
BRANCH   3   4
HETATM    4  C8  UNL     1      10.994  15.862   3.183  1.00  0.00     0.066 C 
BRANCH   4   5
HETATM    5  N1  UNL     1       9.999  16.331   4.031  1.00  0.00    -0.374 N 
HETATM    6  C9  UNL     1       9.824  17.692   4.286  1.00  0.00     0.063 C 
HETATM    7  C10 UNL     1       9.763  17.765   5.798  1.00  0.00     0.046 C 
HETATM    8  C11 UNL     1       8.957  16.508   6.118  1.00  0.00     0.025 C 
HETATM    9  C12 UNL     1       9.575  15.518   5.118  1.00  0.00     0.127 C 
ENDBRANCH   4   5
ENDBRANCH   3   4
ENDBRANCH   2   3
BRANCH   1  10
HETATM   10  C4  UNL     1      13.937  17.594   0.752  1.00  0.00     0.023 A 
HETATM   11  C2  UNL     1      14.709  18.733   1.265  1.00  0.00     0.095 A 
HETATM   12  C3  UNL     1      15.374  17.371   1.287  1.00  0.00     0.025 A 
BRANCH  11  13
HETATM   13  C1  UNL     1      14.474  19.412   2.544  1.00  0.00     0.177 C 
HETATM   14  O1  UNL     1      15.420  19.970   3.142  1.00  0.00    -0.648 OA
HETATM   15  O2  UNL     1      13.210  19.472   3.152  1.00  0.00    -0.648 OA
ENDBRANCH  11  13
ENDBRANCH   1  10
TORSDOF 5
ENDMDL
MODEL 3
REMARK VINA RESULT: -6.382798234      3.268      6.450
REMARK  5 active torsions:
REMARK  status: ('A' for Active; 'I' for Inactive)
REMARK    1  A    between atoms: C1_2  and  C2_4 
REMARK    2  A    between atoms: C4_6  and  C5_7 
REMARK    3  A    between atoms: C6_8  and  C7_9 
REMARK    4  A    between atoms: C7_9  and  C8_10 
REMARK    5  A    between atoms: C8_10  and  N1_11 
ROOT
HETATM    1  C5  UNL     1      15.072  19.094   1.898  1.00  0.00    -0.025 C 
HETATM    2  C6  UNL     1      15.250  20.166   2.649  1.00  0.00    -0.025 C 
ENDROOT
BRANCH   2   3
HETATM    3  C7  UNL     1      14.678  21.489   2.269  1.00  0.00     0.071 C 
BRANCH   3   4
HETATM    4  C8  UNL     1      15.066  22.553   3.253  1.00  0.00     0.066 C 
BRANCH   4   5
HETATM    5  N1  UNL     1      14.062  23.412   3.686  1.00  0.00    -0.374 N 
HETATM    6  C9  UNL     1      14.208  24.208   4.822  1.00  0.00     0.063 C 
HETATM    7  C10 UNL     1      12.943  23.937   5.610  1.00  0.00     0.046 C 
HETATM    8  C11 UNL     1      11.911  23.860   4.486  1.00  0.00     0.025 C 
HETATM    9  C12 UNL     1      12.705  23.073   3.433  1.00  0.00     0.127 C 
ENDBRANCH   4   5
ENDBRANCH   3   4
ENDBRANCH   2   3
BRANCH   1  10
HETATM   10  C4  UNL     1      15.593  17.761   2.192  1.00  0.00     0.023 A 
HETATM   11  C2  UNL     1      14.792  16.532   2.251  1.00  0.00     0.095 A 
HETATM   12  C3  UNL     1      15.648  16.750   1.019  1.00  0.00     0.025 A 
BRANCH  11  13
HETATM   13  C1  UNL     1      13.337  16.458   2.082  1.00  0.00     0.177 C 
HETATM   14  O1  UNL     1      12.614  16.076   3.029  1.00  0.00    -0.648 OA
HETATM   15  O2  UNL     1      12.691  16.798   0.883  1.00  0.00    -0.648 OA
ENDBRANCH  11  13
ENDBRANCH   1  10
TORSDOF 5
ENDMDL
MODEL 4
REMARK VINA RESULT: -6.377386174      1.285      1.567
REMARK  5 active torsions:
REMARK  status: ('A' for Active; 'I' for Inactive)
REMARK    1  A    between atoms: C1_2  and  C2_4 
REMARK    2  A    between atoms: C4_6  and  C5_7 
REMARK    3  A    between atoms: C6_8  and  C7_9 
REMARK    4  A    between atoms: C7_9  and  C8_10 
REMARK    5  A    between atoms: C8_10  and  N1_11 
ROOT
HETATM    1  C5  UNL     1      14.910  20.080   2.489  1.00  0.00    -0.025 C 
HETATM    2  C6  UNL     1      15.144  18.820   2.175  1.00  0.00    -0.025 C 
ENDROOT
BRANCH   2   3
HETATM    3  C7  UNL     1      14.475  18.168   1.013  1.00  0.00     0.071 C 
BRANCH   3   4
HETATM    4  C8  UNL     1      14.047  16.768   1.346  1.00  0.00     0.066 C 
BRANCH   4   5
HETATM    5  N1  UNL     1      12.740  16.593   1.786  1.00  0.00    -0.374 N 
HETATM    6  C9  UNL     1      12.440  15.904   2.961  1.00  0.00     0.063 C 
HETATM    7  C10 UNL     1      11.373  14.918   2.532  1.00  0.00     0.046 C 
HETATM    8  C11 UNL     1      10.562  15.772   1.559  1.00  0.00     0.025 C 
HETATM    9  C12 UNL     1      11.693  16.512   0.828  1.00  0.00     0.127 C 
ENDBRANCH   4   5
ENDBRANCH   3   4
ENDBRANCH   2   3
BRANCH   1  10
HETATM   10  C4  UNL     1      15.520  20.799   3.606  1.00  0.00     0.023 A 
HETATM   11  C2  UNL     1      15.438  22.249   3.827  1.00  0.00     0.095 A 
HETATM   12  C3  UNL     1      14.565  21.359   4.690  1.00  0.00     0.025 A 
BRANCH  11  13
HETATM   13  C1  UNL     1      14.783  23.208   2.933  1.00  0.00     0.177 C 
HETATM   14  O1  UNL     1      15.419  24.192   2.492  1.00  0.00    -0.648 OA
HETATM   15  O2  UNL     1      13.443  23.084   2.532  1.00  0.00    -0.648 OA
ENDBRANCH  11  13
ENDBRANCH   1  10
TORSDOF 5
ENDMDL
MODEL 5
REMARK VINA RESULT: -6.374723146      5.150      7.811
REMARK  5 active torsions:
REMARK  status: ('A' for Active; 'I' for Inactive)
REMARK    1  A    between atoms: C1_2  and  C2_4 
REMARK    2  A    between atoms: C4_6  and  C5_7 
REMARK    3  A    between atoms: C6_8  and  C7_9 
REMARK    4  A    between atoms: C7_9  and  C8_10 
REMARK    5  A    between atoms: C8_10  and  N1_11 
ROOT
HETATM    1  C5  UNL     1      13.008  23.925   5.227  1.00  0.00    -0.025 C 
HETATM    2  C6  UNL     1      12.558  23.469   6.382  1.00  0.00    -0.025 C 
ENDROOT
BRANCH   2   3
HETATM    3  C7  UNL     1      11.103  23.468   6.707  1.00  0.00     0.071 C 
BRANCH   3   4
HETATM    4  C8  UNL     1      10.671  24.788   7.276  1.00  0.00     0.066 C 
BRANCH   4   5
HETATM    5  N1  UNL     1       9.916  25.615   6.452  1.00  0.00    -0.374 N 
HETATM    6  C9  UNL     1       9.166  25.115   5.388  1.00  0.00     0.063 C 
HETATM    7  C10 UNL     1       9.574  25.994   4.223  1.00  0.00     0.046 C 
HETATM    8  C11 UNL     1       9.677  27.355   4.909  1.00  0.00     0.025 C 
HETATM    9  C12 UNL     1      10.347  26.951   6.231  1.00  0.00     0.127 C 
ENDBRANCH   4   5
ENDBRANCH   3   4
ENDBRANCH   2   3
BRANCH   1  10
HETATM   10  C4  UNL     1      14.412  23.963   4.824  1.00  0.00     0.023 A 
HETATM   11  C2  UNL     1      15.170  22.829   4.281  1.00  0.00     0.095 A 
HETATM   12  C3  UNL     1      14.713  23.897   3.306  1.00  0.00     0.025 A 
BRANCH  11  13
HETATM   13  C1  UNL     1      14.654  21.467   4.111  1.00  0.00     0.177 C 
HETATM   14  O1  UNL     1      14.762  20.634   5.039  1.00  0.00    -0.648 OA
HETATM   15  O2  UNL     1      14.029  21.031   2.932  1.00  0.00    -0.648 OA
ENDBRANCH  11  13
ENDBRANCH   1  10
TORSDOF 5
ENDMDL
