MODEL 1
REMARK VINA RESULT: -7.564509213      0.000      0.000
REMARK  19 active torsions:
REMARK  status: ('A' for Active; 'I' for Inactive)
REMARK    1  A    between atoms: C3_3  and  C5_5 
REMARK    2  A    between atoms: C5_5  and  O2_7 
REMARK    3  A    between atoms: O2_7  and  C6_8 
REMARK    4  A    between atoms: C6_8  and  C7_9 
REMARK    5  A    between atoms: C6_8  and  C10_14 
REMARK    6  A    between atoms: C7_9  and  C8_10 
REMARK    7  A    between atoms: C8_10  and  O4_12 
REMARK    8  A    between atoms: C10_14  and  C11_15 
REMARK    9  A    between atoms: C10_14  and  C14_24 
REMARK   10  A    between atoms: C13_18  and  N1_19 
REMARK   11  A    between atoms: C14_24  and  N3_26 
REMARK   12  A    between atoms: N3_26  and  C16_29 
REMARK   13  A    between atoms: C19_35  and  S2_36 
REMARK   14  A    between atoms: S2_36  and  C20_37 
REMARK   15  A    between atoms: C21_38  and  C22_39 
REMARK   16  A    between atoms: C22_39  and  O6_41 
REMARK   17  A    between atoms: C24_43  and  O7_44 
REMARK   18  A    between atoms: C25_46  and  O8_47 
REMARK   19  A    between atoms: C25_46  and  O9_49 
ROOT
HETATM    1  N3  UNL     1     -39.233  22.032   8.395  1.00  0.00    -0.063 N 
ATOM      2  H31 UNL     1     -39.899  22.554   7.826  1.00  0.00     0.278 HD
ATOM      3  H32 UNL     1     -39.815  21.859   9.215  1.00  0.00     0.278 HD
ENDROOT
BRANCH   1   4
HETATM    4  C14 UNL     1     -38.087  22.851   8.737  1.00  0.00     0.194 C 
HETATM    5  C15 UNL     1     -38.608  24.196   9.153  1.00  0.00     0.041 C 
BRANCH   4   6
HETATM    6  C10 UNL     1     -37.168  22.188   9.711  1.00  0.00     0.096 C 
BRANCH   6   7
HETATM    7  C6  UNL     1     -35.822  21.841   9.116  1.00  0.00     0.153 C 
BRANCH   7   8
HETATM    8  O2  UNL     1     -35.783  20.495   8.677  1.00  0.00    -0.311 OA
BRANCH   8   9
HETATM    9  C5  UNL     1     -35.507  19.433   9.507  1.00  0.00     0.289 C 
HETATM   10  O1  UNL     1     -36.393  18.580   9.762  1.00  0.00    -0.260 OA
BRANCH   9  11
HETATM   11  C3  UNL     1     -34.180  19.299  10.093  1.00  0.00     0.009 C 
HETATM   12  C2  UNL     1     -33.119  19.367   9.326  1.00  0.00    -0.018 C 
HETATM   13  C1  UNL     1     -31.754  19.233   9.919  1.00  0.00     0.036 C 
HETATM   14  C4  UNL     1     -34.022  19.087  11.561  1.00  0.00     0.054 C 
ENDBRANCH   9  11
ENDBRANCH   8   9
ENDBRANCH   7   8
BRANCH   7  15
HETATM   15  C7  UNL     1     -35.483  22.691   7.925  1.00  0.00     0.144 C 
BRANCH  15  16
HETATM   16  C8  UNL     1     -34.126  23.260   8.139  1.00  0.00     0.260 C 
HETATM   17  O3  UNL     1     -33.902  24.172   9.006  1.00  0.00    -0.265 OA
BRANCH  16  18
HETATM   18  O4  UNL     1     -33.014  22.846   7.422  1.00  0.00    -0.326 OA
HETATM   19  C9  UNL     1     -31.740  22.672   8.062  1.00  0.00     0.213 C 
ENDBRANCH  16  18
ENDBRANCH  15  16
ENDBRANCH   7  15
ENDBRANCH   6   7
BRANCH   6  20
HETATM   20  C11 UNL     1     -36.969  23.020  10.970  1.00  0.00     0.026 A 
HETATM   21  C12 UNL     1     -37.928  23.048  11.953  1.00  0.00     0.078 A 
HETATM   22  S1  UNL     1     -37.237  24.089  13.115  1.00  0.00    -0.064 SA
HETATM   23  C13 UNL     1     -35.782  24.429  12.299  1.00  0.00     0.142 A 
HETATM   24  N2  UNL     1     -35.891  23.730  11.174  1.00  0.00    -0.340 N 
ATOM     25  H2  UNL     1     -35.143  23.748  10.480  1.00  0.00     0.168 HD
BRANCH  23  26
HETATM   26  N1  UNL     1     -34.775  25.194  12.669  1.00  0.00    -0.380 N 
ATOM     27  H12 UNL     1     -34.469  26.065  12.234  1.00  0.00     0.158 HD
ATOM     28  H11 UNL     1     -34.117  25.071  13.439  1.00  0.00     0.158 HD
ENDBRANCH  23  26
ENDBRANCH   6  20
ENDBRANCH   4   6
ENDBRANCH   1   4
BRANCH   1  29
HETATM   29  C16 UNL     1     -38.867  20.799   7.755  1.00  0.00     0.227 C 
HETATM   30  C17 UNL     1     -38.436  20.993   6.320  1.00  0.00     0.266 C 
HETATM   31  N4  UNL     1     -39.037  19.919   5.552  1.00  0.00    -0.072 N 
HETATM   32  C18 UNL     1     -39.550  18.973   6.527  1.00  0.00     0.249 C 
ATOM     33  H42 UNL     1     -39.739  20.238   4.884  1.00  0.00     0.277 HD
ATOM     34  H41 UNL     1     -38.403  19.499   4.872  1.00  0.00     0.277 HD
HETATM   35  C19 UNL     1     -40.159  19.974   7.546  1.00  0.00     0.110 C 
BRANCH  35  36
HETATM   36  S2  UNL     1     -41.377  20.959   6.698  1.00  0.00    -0.118 SA
BRANCH  36  37
HETATM   37  C20 UNL     1     -42.537  20.085   5.707  1.00  0.00     0.043 C 
HETATM   38  C21 UNL     1     -42.593  20.273   4.364  1.00  0.00     0.070 C 
HETATM   39  C24 UNL     1     -43.670  19.408   3.821  1.00  0.00     0.227 C 
HETATM   40  C25 UNL     1     -44.583  19.148   5.006  1.00  0.00     0.236 C 
HETATM   41  C26 UNL     1     -43.532  19.098   6.110  1.00  0.00     0.086 C 
HETATM   42  N5  UNL     1     -43.628  18.318   7.110  1.00  0.00    -0.397 N 
ATOM     43  H52 UNL     1     -42.925  18.284   7.848  1.00  0.00     0.156 HD
ATOM     44  H51 UNL     1     -44.324  17.628   7.392  1.00  0.00     0.156 HD
BRANCH  38  45
HETATM   45  C22 UNL     1     -41.777  21.156   3.546  1.00  0.00     0.293 C 
HETATM   46  O5  UNL     1     -41.824  21.014   2.298  1.00  0.00    -0.259 OA
BRANCH  45  47
HETATM   47  O6  UNL     1     -40.968  22.123   4.073  1.00  0.00    -0.323 OA
HETATM   48  C23 UNL     1     -40.594  23.307   3.429  1.00  0.00     0.213 C 
ENDBRANCH  45  47
ENDBRANCH  38  45
BRANCH  39  49
HETATM   49  O7  UNL     1     -43.131  18.218   3.401  1.00  0.00    -0.385 OA
ATOM     50  H7  UNL     1     -43.032  17.636   4.146  1.00  0.00     0.210 HD
ENDBRANCH  39  49
BRANCH  40  51
HETATM   51  O8  UNL     1     -45.488  20.171   5.221  1.00  0.00    -0.358 OA
ATOM     52  H8  UNL     1     -46.232  19.901   5.746  1.00  0.00     0.213 HD
ENDBRANCH  40  51
BRANCH  40  53
HETATM   53  O9  UNL     1     -45.258  17.945   4.920  1.00  0.00    -0.358 OA
ATOM     54  H9  UNL     1     -45.257  17.457   5.735  1.00  0.00     0.213 HD
ENDBRANCH  40  53
ENDBRANCH  36  37
ENDBRANCH  35  36
ENDBRANCH   1  29
TORSDOF 19
ENDMDL
MODEL 2
REMARK VINA RESULT: -7.476127948      1.714      3.135
REMARK  19 active torsions:
REMARK  status: ('A' for Active; 'I' for Inactive)
REMARK    1  A    between atoms: C3_3  and  C5_5 
REMARK    2  A    between atoms: C5_5  and  O2_7 
REMARK    3  A    between atoms: O2_7  and  C6_8 
REMARK    4  A    between atoms: C6_8  and  C7_9 
REMARK    5  A    between atoms: C6_8  and  C10_14 
REMARK    6  A    between atoms: C7_9  and  C8_10 
REMARK    7  A    between atoms: C8_10  and  O4_12 
REMARK    8  A    between atoms: C10_14  and  C11_15 
REMARK    9  A    between atoms: C10_14  and  C14_24 
REMARK   10  A    between atoms: C13_18  and  N1_19 
REMARK   11  A    between atoms: C14_24  and  N3_26 
REMARK   12  A    between atoms: N3_26  and  C16_29 
REMARK   13  A    between atoms: C19_35  and  S2_36 
REMARK   14  A    between atoms: S2_36  and  C20_37 
REMARK   15  A    between atoms: C21_38  and  C22_39 
REMARK   16  A    between atoms: C22_39  and  O6_41 
REMARK   17  A    between atoms: C24_43  and  O7_44 
REMARK   18  A    between atoms: C25_46  and  O8_47 
REMARK   19  A    between atoms: C25_46  and  O9_49 
ROOT
HETATM    1  N3  UNL     1     -38.453  22.925   8.897  1.00  0.00    -0.063 N 
ATOM      2  H31 UNL     1     -38.781  23.532   8.145  1.00  0.00     0.278 HD
ATOM      3  H32 UNL     1     -39.341  22.745   9.365  1.00  0.00     0.278 HD
ENDROOT
BRANCH   1   4
HETATM    4  C14 UNL     1     -37.540  23.633   9.773  1.00  0.00     0.194 C 
HETATM    5  C15 UNL     1     -38.253  24.858  10.266  1.00  0.00     0.041 C 
BRANCH   4   6
HETATM    6  C10 UNL     1     -36.956  22.758  10.834  1.00  0.00     0.096 C 
BRANCH   6   7
HETATM    7  C6  UNL     1     -35.586  22.226  10.480  1.00  0.00     0.153 C 
BRANCH   7   8
HETATM    8  O2  UNL     1     -34.633  23.270  10.397  1.00  0.00    -0.311 OA
BRANCH   8   9
HETATM    9  C5  UNL     1     -33.898  23.539   9.264  1.00  0.00     0.289 C 
HETATM   10  O1  UNL     1     -34.391  24.234   8.341  1.00  0.00    -0.260 OA
BRANCH   9  11
HETATM   11  C3  UNL     1     -32.546  23.014   9.138  1.00  0.00     0.009 C 
HETATM   12  C2  UNL     1     -32.006  22.881   7.952  1.00  0.00    -0.018 C 
HETATM   13  C1  UNL     1     -30.618  22.345   7.814  1.00  0.00     0.036 C 
HETATM   14  C4  UNL     1     -31.771  22.629  10.354  1.00  0.00     0.054 C 
ENDBRANCH   9  11
ENDBRANCH   8   9
ENDBRANCH   7   8
BRANCH   7  15
HETATM   15  C7  UNL     1     -35.067  21.250  11.497  1.00  0.00     0.144 C 
BRANCH  15  16
HETATM   16  C8  UNL     1     -34.512  20.079  10.768  1.00  0.00     0.260 C 
HETATM   17  O3  UNL     1     -33.484  19.445  11.186  1.00  0.00    -0.265 OA
BRANCH  16  18
HETATM   18  O4  UNL     1     -35.063  19.595   9.592  1.00  0.00    -0.326 OA
HETATM   19  C9  UNL     1     -36.113  18.614   9.612  1.00  0.00     0.213 C 
ENDBRANCH  16  18
ENDBRANCH  15  16
ENDBRANCH   7  15
ENDBRANCH   6   7
BRANCH   6  20
HETATM   20  C11 UNL     1     -36.898  23.455  12.186  1.00  0.00     0.026 A 
HETATM   21  C12 UNL     1     -37.789  23.136  13.181  1.00  0.00     0.078 A 
HETATM   22  S1  UNL     1     -37.306  24.165  14.455  1.00  0.00    -0.064 SA
HETATM   23  C13 UNL     1     -36.012  24.937  13.663  1.00  0.00     0.142 A 
HETATM   24  N2  UNL     1     -36.007  24.372  12.460  1.00  0.00    -0.340 N 
ATOM     25  H2  UNL     1     -35.318  24.651  11.761  1.00  0.00     0.168 HD
BRANCH  23  26
HETATM   26  N1  UNL     1     -35.194  25.869  14.110  1.00  0.00    -0.380 N 
ATOM     27  H12 UNL     1     -34.901  26.022  15.075  1.00  0.00     0.158 HD
ATOM     28  H11 UNL     1     -34.708  26.604  13.596  1.00  0.00     0.158 HD
ENDBRANCH  23  26
ENDBRANCH   6  20
ENDBRANCH   4   6
ENDBRANCH   1   4
BRANCH   1  29
HETATM   29  C16 UNL     1     -37.894  21.711   8.371  1.00  0.00     0.227 C 
HETATM   30  C17 UNL     1     -36.842  21.965   7.316  1.00  0.00     0.266 C 
HETATM   31  N4  UNL     1     -37.073  21.004   6.253  1.00  0.00    -0.072 N 
HETATM   32  C18 UNL     1     -38.023  20.044   6.787  1.00  0.00     0.249 C 
ATOM     33  H42 UNL     1     -37.373  21.430   5.376  1.00  0.00     0.277 HD
ATOM     34  H41 UNL     1     -36.218  20.577   5.896  1.00  0.00     0.277 HD
HETATM   35  C19 UNL     1     -38.983  21.023   7.515  1.00  0.00     0.110 C 
BRANCH  35  36
HETATM   36  S2  UNL     1     -39.624  22.169   6.312  1.00  0.00    -0.118 SA
BRANCH  36  37
HETATM   37  C20 UNL     1     -40.582  21.480   5.008  1.00  0.00     0.043 C 
HETATM   38  C21 UNL     1     -40.908  22.215   3.915  1.00  0.00     0.070 C 
HETATM   39  C24 UNL     1     -41.720  21.364   3.011  1.00  0.00     0.227 C 
HETATM   40  C25 UNL     1     -42.301  20.292   3.917  1.00  0.00     0.236 C 
HETATM   41  C26 UNL     1     -41.129  20.134   4.881  1.00  0.00     0.086 C 
HETATM   42  N5  UNL     1     -40.809  19.013   5.389  1.00  0.00    -0.397 N 
ATOM     43  H52 UNL     1     -40.025  18.907   6.033  1.00  0.00     0.156 HD
ATOM     44  H51 UNL     1     -41.191  18.072   5.299  1.00  0.00     0.156 HD
BRANCH  38  45
HETATM   45  C22 UNL     1     -40.560  23.597   3.626  1.00  0.00     0.293 C 
HETATM   46  O5  UNL     1     -39.360  23.859   3.361  1.00  0.00    -0.259 OA
BRANCH  45  47
HETATM   47  O6  UNL     1     -41.476  24.612   3.631  1.00  0.00    -0.323 OA
HETATM   48  C23 UNL     1     -41.268  25.894   3.110  1.00  0.00     0.213 C 
ENDBRANCH  45  47
ENDBRANCH  38  45
BRANCH  39  49
HETATM   49  O7  UNL     1     -40.901  20.770   2.084  1.00  0.00    -0.385 OA
ATOM     50  H7  UNL     1     -41.402  20.145   1.573  1.00  0.00     0.210 HD
ENDBRANCH  39  49
BRANCH  40  51
HETATM   51  O8  UNL     1     -43.441  20.709   4.579  1.00  0.00    -0.358 OA
ATOM     52  H8  UNL     1     -43.415  20.526   5.511  1.00  0.00     0.213 HD
ENDBRANCH  40  51
BRANCH  40  53
HETATM   53  O9  UNL     1     -42.557  19.103   3.261  1.00  0.00    -0.358 OA
ATOM     54  H9  UNL     1     -41.769  18.625   3.031  1.00  0.00     0.213 HD
ENDBRANCH  40  53
ENDBRANCH  36  37
ENDBRANCH  35  36
ENDBRANCH   1  29
TORSDOF 19
ENDMDL
MODEL 3
REMARK VINA RESULT: -7.385577736      2.767      8.941
REMARK  19 active torsions:
REMARK  status: ('A' for Active; 'I' for Inactive)
REMARK    1  A    between atoms: C3_3  and  C5_5 
REMARK    2  A    between atoms: C5_5  and  O2_7 
REMARK    3  A    between atoms: O2_7  and  C6_8 
REMARK    4  A    between atoms: C6_8  and  C7_9 
REMARK    5  A    between atoms: C6_8  and  C10_14 
REMARK    6  A    between atoms: C7_9  and  C8_10 
REMARK    7  A    between atoms: C8_10  and  O4_12 
REMARK    8  A    between atoms: C10_14  and  C11_15 
REMARK    9  A    between atoms: C10_14  and  C14_24 
REMARK   10  A    between atoms: C13_18  and  N1_19 
REMARK   11  A    between atoms: C14_24  and  N3_26 
REMARK   12  A    between atoms: N3_26  and  C16_29 
REMARK   13  A    between atoms: C19_35  and  S2_36 
REMARK   14  A    between atoms: S2_36  and  C20_37 
REMARK   15  A    between atoms: C21_38  and  C22_39 
REMARK   16  A    between atoms: C22_39  and  O6_41 
REMARK   17  A    between atoms: C24_43  and  O7_44 
REMARK   18  A    between atoms: C25_46  and  O8_47 
REMARK   19  A    between atoms: C25_46  and  O9_49 
ROOT
HETATM    1  N3  UNL     1     -37.812  20.226   8.557  1.00  0.00    -0.063 N 
ATOM      2  H31 UNL     1     -38.335  19.747   9.290  1.00  0.00     0.278 HD
ATOM      3  H32 UNL     1     -37.770  21.159   8.966  1.00  0.00     0.278 HD
ENDROOT
BRANCH   1   4
HETATM    4  C14 UNL     1     -38.557  20.239   7.313  1.00  0.00     0.194 C 
HETATM    5  C15 UNL     1     -38.808  18.810   6.928  1.00  0.00     0.041 C 
BRANCH   4   6
HETATM    6  C10 UNL     1     -39.768  21.112   7.369  1.00  0.00     0.096 C 
BRANCH   6   7
HETATM    7  C6  UNL     1     -39.487  22.544   6.975  1.00  0.00     0.153 C 
BRANCH   7   8
HETATM    8  O2  UNL     1     -38.803  23.239   8.002  1.00  0.00    -0.311 OA
BRANCH   8   9
HETATM    9  C5  UNL     1     -39.197  23.226   9.320  1.00  0.00     0.289 C 
HETATM   10  O1  UNL     1     -40.089  22.431   9.707  1.00  0.00    -0.260 OA
BRANCH   9  11
HETATM   11  C3  UNL     1     -38.577  24.141  10.269  1.00  0.00     0.009 C 
HETATM   12  C2  UNL     1     -38.084  23.680  11.392  1.00  0.00    -0.018 C 
HETATM   13  C1  UNL     1     -37.444  24.611  12.370  1.00  0.00     0.036 C 
HETATM   14  C4  UNL     1     -38.498  25.600   9.967  1.00  0.00     0.054 C 
ENDBRANCH   9  11
ENDBRANCH   8   9
ENDBRANCH   7   8
BRANCH   7  15
HETATM   15  C7  UNL     1     -38.631  22.644   5.744  1.00  0.00     0.144 C 
BRANCH  15  16
HETATM   16  C8  UNL     1     -39.372  23.444   4.733  1.00  0.00     0.260 C 
HETATM   17  O3  UNL     1     -38.772  24.107   3.820  1.00  0.00    -0.265 OA
BRANCH  16  18
HETATM   18  O4  UNL     1     -40.755  23.528   4.707  1.00  0.00    -0.326 OA
HETATM   19  C9  UNL     1     -41.444  24.089   3.578  1.00  0.00     0.213 C 
ENDBRANCH  16  18
ENDBRANCH  15  16
ENDBRANCH   7  15
ENDBRANCH   6   7
BRANCH   6  20
HETATM   20  C11 UNL     1     -40.910  20.566   6.524  1.00  0.00     0.026 A 
HETATM   21  C12 UNL     1     -42.053  20.083   7.113  1.00  0.00     0.078 A 
HETATM   22  S1  UNL     1     -42.993  19.612   5.769  1.00  0.00    -0.064 SA
HETATM   23  C13 UNL     1     -41.895  20.049   4.542  1.00  0.00     0.142 A 
HETATM   24  N2  UNL     1     -40.859  20.536   5.217  1.00  0.00    -0.340 N 
ATOM     25  H2  UNL     1     -40.036  20.881   4.723  1.00  0.00     0.168 HD
BRANCH  23  26
HETATM   26  N1  UNL     1     -42.016  19.943   3.234  1.00  0.00    -0.380 N 
ATOM     27  H12 UNL     1     -41.615  19.223   2.634  1.00  0.00     0.158 HD
ATOM     28  H11 UNL     1     -42.519  20.543   2.580  1.00  0.00     0.158 HD
ENDBRANCH  23  26
ENDBRANCH   6  20
ENDBRANCH   4   6
ENDBRANCH   1   4
BRANCH   1  29
HETATM   29  C16 UNL     1     -36.497  19.667   8.414  1.00  0.00     0.227 C 
HETATM   30  C17 UNL     1     -36.166  18.673   9.503  1.00  0.00     0.266 C 
HETATM   31  N4  UNL     1     -34.797  18.934   9.908  1.00  0.00    -0.072 N 
HETATM   32  C18 UNL     1     -34.253  19.836   8.907  1.00  0.00     0.249 C 
ATOM     33  H42 UNL     1     -34.713  19.286  10.861  1.00  0.00     0.277 HD
ATOM     34  H41 UNL     1     -34.242  18.089  10.040  1.00  0.00     0.277 HD
HETATM   35  C19 UNL     1     -35.474  20.780   8.736  1.00  0.00     0.110 C 
BRANCH  35  36
HETATM   36  S2  UNL     1     -35.843  21.504  10.321  1.00  0.00    -0.118 SA
BRANCH  36  37
HETATM   37  C20 UNL     1     -34.580  22.495  11.041  1.00  0.00     0.043 C 
HETATM   38  C21 UNL     1     -34.081  23.575  10.389  1.00  0.00     0.070 C 
HETATM   39  C24 UNL     1     -33.035  24.188  11.245  1.00  0.00     0.227 C 
HETATM   40  C25 UNL     1     -32.588  23.065  12.164  1.00  0.00     0.236 C 
HETATM   41  C26 UNL     1     -33.925  22.352  12.336  1.00  0.00     0.086 C 
HETATM   42  N5  UNL     1     -34.267  21.795  13.427  1.00  0.00    -0.397 N 
ATOM     43  H52 UNL     1     -35.162  21.318  13.542  1.00  0.00     0.156 HD
ATOM     44  H51 UNL     1     -33.809  21.695  14.333  1.00  0.00     0.156 HD
BRANCH  38  45
HETATM   45  C22 UNL     1     -34.455  24.086   9.080  1.00  0.00     0.293 C 
HETATM   46  O5  UNL     1     -35.314  25.002   9.029  1.00  0.00    -0.259 OA
BRANCH  45  47
HETATM   47  O6  UNL     1     -33.917  23.616   7.915  1.00  0.00    -0.323 OA
HETATM   48  C23 UNL     1     -32.644  23.053   7.779  1.00  0.00     0.213 C 
ENDBRANCH  45  47
ENDBRANCH  38  45
BRANCH  39  49
HETATM   49  O7  UNL     1     -33.592  25.189  12.000  1.00  0.00    -0.385 OA
ATOM     50  H7  UNL     1     -32.946  25.520  12.612  1.00  0.00     0.210 HD
ENDBRANCH  39  49
BRANCH  40  51
HETATM   51  O8  UNL     1     -31.649  22.235  11.579  1.00  0.00    -0.358 OA
ATOM     52  H8  UNL     1     -30.801  22.651  11.480  1.00  0.00     0.213 HD
ENDBRANCH  40  51
BRANCH  40  53
HETATM   53  O9  UNL     1     -32.114  23.513  13.382  1.00  0.00    -0.358 OA
ATOM     54  H9  UNL     1     -31.932  22.810  13.995  1.00  0.00     0.213 HD
ENDBRANCH  40  53
ENDBRANCH  36  37
ENDBRANCH  35  36
ENDBRANCH   1  29
TORSDOF 19
ENDMDL
MODEL 4
REMARK VINA RESULT: -7.379743556      0.955      2.482
REMARK  19 active torsions:
REMARK  status: ('A' for Active; 'I' for Inactive)
REMARK    1  A    between atoms: C3_3  and  C5_5 
REMARK    2  A    between atoms: C5_5  and  O2_7 
REMARK    3  A    between atoms: O2_7  and  C6_8 
REMARK    4  A    between atoms: C6_8  and  C7_9 
REMARK    5  A    between atoms: C6_8  and  C10_14 
REMARK    6  A    between atoms: C7_9  and  C8_10 
REMARK    7  A    between atoms: C8_10  and  O4_12 
REMARK    8  A    between atoms: C10_14  and  C11_15 
REMARK    9  A    between atoms: C10_14  and  C14_24 
REMARK   10  A    between atoms: C13_18  and  N1_19 
REMARK   11  A    between atoms: C14_24  and  N3_26 
REMARK   12  A    between atoms: N3_26  and  C16_29 
REMARK   13  A    between atoms: C19_35  and  S2_36 
REMARK   14  A    between atoms: S2_36  and  C20_37 
REMARK   15  A    between atoms: C21_38  and  C22_39 
REMARK   16  A    between atoms: C22_39  and  O6_41 
REMARK   17  A    between atoms: C24_43  and  O7_44 
REMARK   18  A    between atoms: C25_46  and  O8_47 
REMARK   19  A    between atoms: C25_46  and  O9_49 
ROOT
HETATM    1  N3  UNL     1     -39.092  22.452   8.095  1.00  0.00    -0.063 N 
ATOM      2  H31 UNL     1     -39.333  22.947   7.237  1.00  0.00     0.278 HD
ATOM      3  H32 UNL     1     -39.973  22.552   8.598  1.00  0.00     0.278 HD
ENDROOT
BRANCH   1   4
HETATM    4  C14 UNL     1     -38.015  23.124   8.797  1.00  0.00     0.194 C 
HETATM    5  C15 UNL     1     -38.530  24.468   9.222  1.00  0.00     0.041 C 
BRANCH   4   6
HETATM    6  C10 UNL     1     -37.420  22.290   9.884  1.00  0.00     0.096 C 
BRANCH   6   7
HETATM    7  C6  UNL     1     -36.222  21.488   9.429  1.00  0.00     0.153 C 
BRANCH   7   8
HETATM    8  O2  UNL     1     -35.205  22.326   8.910  1.00  0.00    -0.311 OA
BRANCH   8   9
HETATM    9  C5  UNL     1     -34.344  21.944   7.906  1.00  0.00     0.289 C 
HETATM   10  O1  UNL     1     -34.794  21.484   6.828  1.00  0.00    -0.260 OA
BRANCH   9  11
HETATM   11  C3  UNL     1     -32.907  22.075   8.099  1.00  0.00     0.009 C 
HETATM   12  C2  UNL     1     -32.237  22.976   7.423  1.00  0.00    -0.018 C 
HETATM   13  C1  UNL     1     -30.762  23.117   7.616  1.00  0.00     0.036 C 
HETATM   14  C4  UNL     1     -32.192  21.188   9.063  1.00  0.00     0.054 C 
ENDBRANCH   9  11
ENDBRANCH   8   9
ENDBRANCH   7   8
BRANCH   7  15
HETATM   15  C7  UNL     1     -35.599  20.700  10.547  1.00  0.00     0.144 C 
BRANCH  15  16
HETATM   16  C8  UNL     1     -35.771  19.255  10.240  1.00  0.00     0.260 C 
HETATM   17  O3  UNL     1     -36.224  18.850   9.116  1.00  0.00    -0.265 OA
BRANCH  16  18
HETATM   18  O4  UNL     1     -35.458  18.251  11.143  1.00  0.00    -0.326 OA
HETATM   19  C9  UNL     1     -34.698  18.530  12.330  1.00  0.00     0.213 C 
ENDBRANCH  16  18
ENDBRANCH  15  16
ENDBRANCH   7  15
ENDBRANCH   6   7
BRANCH   6  20
HETATM   20  C11 UNL     1     -37.044  23.119  11.103  1.00  0.00     0.026 A 
HETATM   21  C12 UNL     1     -37.863  23.159  12.206  1.00  0.00     0.078 A 
HETATM   22  S1  UNL     1     -37.010  24.192  13.264  1.00  0.00    -0.064 SA
HETATM   23  C13 UNL     1     -35.673  24.515  12.260  1.00  0.00     0.142 A 
HETATM   24  N2  UNL     1     -35.940  23.817  11.160  1.00  0.00    -0.340 N 
ATOM     25  H2  UNL     1     -35.292  23.826  10.372  1.00  0.00     0.168 HD
BRANCH  23  26
HETATM   26  N1  UNL     1     -34.617  25.267  12.489  1.00  0.00    -0.380 N 
ATOM     27  H12 UNL     1     -33.713  25.223  12.018  1.00  0.00     0.158 HD
ATOM     28  H11 UNL     1     -34.494  26.022  13.165  1.00  0.00     0.158 HD
ENDBRANCH  23  26
ENDBRANCH   6  20
ENDBRANCH   4   6
ENDBRANCH   1   4
BRANCH   1  29
HETATM   29  C16 UNL     1     -38.807  21.070   7.828  1.00  0.00     0.227 C 
HETATM   30  C17 UNL     1     -38.115  20.864   6.501  1.00  0.00     0.266 C 
HETATM   31  N4  UNL     1     -38.727  19.702   5.884  1.00  0.00    -0.072 N 
HETATM   32  C18 UNL     1     -39.531  19.080   6.921  1.00  0.00     0.249 C 
ATOM     33  H42 UNL     1     -39.252  19.918   5.036  1.00  0.00     0.277 HD
ATOM     34  H41 UNL     1     -38.055  19.066   5.453  1.00  0.00     0.277 HD
HETATM   35  C19 UNL     1     -40.150  20.356   7.553  1.00  0.00     0.110 C 
BRANCH  35  36
HETATM   36  S2  UNL     1     -41.050  21.223   6.284  1.00  0.00    -0.118 SA
BRANCH  36  37
HETATM   37  C20 UNL     1     -42.238  20.286   5.388  1.00  0.00     0.043 C 
HETATM   38  C21 UNL     1     -42.411  20.468   4.054  1.00  0.00     0.070 C 
HETATM   39  C24 UNL     1     -43.481  19.546   3.597  1.00  0.00     0.227 C 
HETATM   40  C25 UNL     1     -44.282  19.241   4.852  1.00  0.00     0.236 C 
HETATM   41  C26 UNL     1     -43.144  19.250   5.868  1.00  0.00     0.086 C 
HETATM   42  N5  UNL     1     -43.119  18.469   6.871  1.00  0.00    -0.397 N 
ATOM     43  H52 UNL     1     -42.358  18.474   7.551  1.00  0.00     0.156 HD
ATOM     44  H51 UNL     1     -43.753  17.744   7.207  1.00  0.00     0.156 HD
BRANCH  38  45
HETATM   45  C22 UNL     1     -41.711  21.390   3.175  1.00  0.00     0.293 C 
HETATM   46  O5  UNL     1     -41.085  20.910   2.196  1.00  0.00    -0.259 OA
BRANCH  45  47
HETATM   47  O6  UNL     1     -41.704  22.743   3.368  1.00  0.00    -0.323 OA
HETATM   48  C23 UNL     1     -40.576  23.567   3.293  1.00  0.00     0.213 C 
ENDBRANCH  45  47
ENDBRANCH  38  45
BRANCH  39  49
HETATM   49  O7  UNL     1     -42.916  18.385   3.134  1.00  0.00    -0.385 OA
ATOM     50  H7  UNL     1     -42.904  17.740   3.831  1.00  0.00     0.210 HD
ENDBRANCH  39  49
BRANCH  40  51
HETATM   51  O8  UNL     1     -45.219  20.216   5.140  1.00  0.00    -0.358 OA
ATOM     52  H8  UNL     1     -45.916  20.259   4.496  1.00  0.00     0.213 HD
ENDBRANCH  40  51
BRANCH  40  53
HETATM   53  O9  UNL     1     -44.897  18.005   4.818  1.00  0.00    -0.358 OA
ATOM     54  H9  UNL     1     -44.631  17.435   5.530  1.00  0.00     0.213 HD
ENDBRANCH  40  53
ENDBRANCH  36  37
ENDBRANCH  35  36
ENDBRANCH   1  29
TORSDOF 19
ENDMDL
MODEL 5
REMARK VINA RESULT: -7.326643723      1.839      2.522
REMARK  19 active torsions:
REMARK  status: ('A' for Active; 'I' for Inactive)
REMARK    1  A    between atoms: C3_3  and  C5_5 
REMARK    2  A    between atoms: C5_5  and  O2_7 
REMARK    3  A    between atoms: O2_7  and  C6_8 
REMARK    4  A    between atoms: C6_8  and  C7_9 
REMARK    5  A    between atoms: C6_8  and  C10_14 
REMARK    6  A    between atoms: C7_9  and  C8_10 
REMARK    7  A    between atoms: C8_10  and  O4_12 
REMARK    8  A    between atoms: C10_14  and  C11_15 
REMARK    9  A    between atoms: C10_14  and  C14_24 
REMARK   10  A    between atoms: C13_18  and  N1_19 
REMARK   11  A    between atoms: C14_24  and  N3_26 
REMARK   12  A    between atoms: N3_26  and  C16_29 
REMARK   13  A    between atoms: C19_35  and  S2_36 
REMARK   14  A    between atoms: S2_36  and  C20_37 
REMARK   15  A    between atoms: C21_38  and  C22_39 
REMARK   16  A    between atoms: C22_39  and  O6_41 
REMARK   17  A    between atoms: C24_43  and  O7_44 
REMARK   18  A    between atoms: C25_46  and  O8_47 
REMARK   19  A    between atoms: C25_46  and  O9_49 
ROOT
HETATM    1  N3  UNL     1     -38.355  22.713   8.821  1.00  0.00    -0.063 N 
ATOM      2  H31 UNL     1     -38.808  23.257   8.086  1.00  0.00     0.278 HD
ATOM      3  H32 UNL     1     -39.133  22.640   9.476  1.00  0.00     0.278 HD
ENDROOT
BRANCH   1   4
HETATM    4  C14 UNL     1     -37.251  23.449   9.406  1.00  0.00     0.194 C 
HETATM    5  C15 UNL     1     -37.780  24.791   9.822  1.00  0.00     0.041 C 
BRANCH   4   6
HETATM    6  C10 UNL     1     -36.540  22.679  10.471  1.00  0.00     0.096 C 
BRANCH   6   7
HETATM    7  C6  UNL     1     -35.048  22.590  10.244  1.00  0.00     0.153 C 
BRANCH   7   8
HETATM    8  O2  UNL     1     -34.649  21.264   9.948  1.00  0.00    -0.311 OA
BRANCH   8   9
HETATM    9  C5  UNL     1     -34.231  20.365  10.904  1.00  0.00     0.289 C 
HETATM   10  O1  UNL     1     -33.182  20.580  11.559  1.00  0.00    -0.260 OA
BRANCH   9  11
HETATM   11  C3  UNL     1     -35.010  19.160  11.152  1.00  0.00     0.009 C 
HETATM   12  C2  UNL     1     -35.010  18.617  12.345  1.00  0.00    -0.018 C 
HETATM   13  C1  UNL     1     -35.808  17.382  12.609  1.00  0.00     0.036 C 
HETATM   14  C4  UNL     1     -35.810  18.541  10.055  1.00  0.00     0.054 C 
ENDBRANCH   9  11
ENDBRANCH   8   9
ENDBRANCH   7   8
BRANCH   7  15
HETATM   15  C7  UNL     1     -34.589  23.443   9.096  1.00  0.00     0.144 C 
BRANCH  15  16
HETATM   16  C8  UNL     1     -33.125  23.242   8.933  1.00  0.00     0.260 C 
HETATM   17  O3  UNL     1     -32.316  23.322   9.920  1.00  0.00    -0.265 OA
BRANCH  16  18
HETATM   18  O4  UNL     1     -32.535  22.957   7.712  1.00  0.00    -0.326 OA
HETATM   19  C9  UNL     1     -31.107  22.972   7.554  1.00  0.00     0.213 C 
ENDBRANCH  16  18
ENDBRANCH  15  16
ENDBRANCH   7  15
ENDBRANCH   6   7
BRANCH   6  20
HETATM   20  C11 UNL     1     -36.811  23.238  11.861  1.00  0.00     0.026 A 
HETATM   21  C12 UNL     1     -35.892  24.044  12.487  1.00  0.00     0.078 A 
HETATM   22  S1  UNL     1     -36.658  24.396  13.971  1.00  0.00    -0.064 SA
HETATM   23  C13 UNL     1     -38.090  23.511  13.719  1.00  0.00     0.142 A 
HETATM   24  N2  UNL     1     -37.918  22.986  12.511  1.00  0.00    -0.340 N 
ATOM     25  H2  UNL     1     -38.638  22.394  12.096  1.00  0.00     0.168 HD
BRANCH  23  26
HETATM   26  N1  UNL     1     -39.133  23.364  14.511  1.00  0.00    -0.380 N 
ATOM     27  H12 UNL     1     -39.526  24.057  15.149  1.00  0.00     0.158 HD
ATOM     28  H11 UNL     1     -39.738  22.553  14.641  1.00  0.00     0.158 HD
ENDBRANCH  23  26
ENDBRANCH   6  20
ENDBRANCH   4   6
ENDBRANCH   1   4
BRANCH   1  29
HETATM   29  C16 UNL     1     -37.968  21.418   8.335  1.00  0.00     0.227 C 
HETATM   30  C17 UNL     1     -36.913  21.492   7.256  1.00  0.00     0.266 C 
HETATM   31  N4  UNL     1     -37.287  20.530   6.236  1.00  0.00    -0.072 N 
HETATM   32  C18 UNL     1     -38.342  19.722   6.822  1.00  0.00     0.249 C 
ATOM     33  H42 UNL     1     -37.546  20.957   5.347  1.00  0.00     0.277 HD
ATOM     34  H41 UNL     1     -36.502  19.982   5.884  1.00  0.00     0.277 HD
HETATM   35  C19 UNL     1     -39.153  20.845   7.524  1.00  0.00     0.110 C 
BRANCH  35  36
HETATM   36  S2  UNL     1     -39.665  22.018   6.285  1.00  0.00    -0.118 SA
BRANCH  36  37
HETATM   37  C20 UNL     1     -40.634  21.385   4.961  1.00  0.00     0.043 C 
HETATM   38  C21 UNL     1     -40.940  22.156   3.887  1.00  0.00     0.070 C 
HETATM   39  C24 UNL     1     -41.768  21.347   2.959  1.00  0.00     0.227 C 
HETATM   40  C25 UNL     1     -42.375  20.265   3.835  1.00  0.00     0.236 C 
HETATM   41  C26 UNL     1     -41.210  20.055   4.796  1.00  0.00     0.086 C 
HETATM   42  N5  UNL     1     -40.916  18.915   5.275  1.00  0.00    -0.397 N 
ATOM     43  H52 UNL     1     -40.136  18.775   5.918  1.00  0.00     0.156 HD
ATOM     44  H51 UNL     1     -41.319  17.985   5.159  1.00  0.00     0.156 HD
BRANCH  38  45
HETATM   45  C22 UNL     1     -40.561  23.538   3.636  1.00  0.00     0.293 C 
HETATM   46  O5  UNL     1     -39.364  23.775   3.337  1.00  0.00    -0.259 OA
BRANCH  45  47
HETATM   47  O6  UNL     1     -41.445  24.578   3.712  1.00  0.00    -0.323 OA
HETATM   48  C23 UNL     1     -41.246  25.851   3.168  1.00  0.00     0.213 C 
ENDBRANCH  45  47
ENDBRANCH  38  45
BRANCH  39  49
HETATM   49  O7  UNL     1     -40.959  20.761   2.019  1.00  0.00    -0.385 OA
ATOM     50  H7  UNL     1     -40.062  21.042   2.155  1.00  0.00     0.210 HD
ENDBRANCH  39  49
BRANCH  40  51
HETATM   51  O8  UNL     1     -43.508  20.689   4.504  1.00  0.00    -0.358 OA
ATOM     52  H8  UNL     1     -44.152  21.082   3.927  1.00  0.00     0.213 HD
ENDBRANCH  40  51
BRANCH  40  53
HETATM   53  O9  UNL     1     -42.655  19.100   3.146  1.00  0.00    -0.358 OA
ATOM     54  H9  UNL     1     -43.519  19.095   2.753  1.00  0.00     0.213 HD
ENDBRANCH  40  53
ENDBRANCH  36  37
ENDBRANCH  35  36
ENDBRANCH   1  29
TORSDOF 19
ENDMDL
