MODEL 1
REMARK VINA RESULT: -8.909434634      0.000      0.000
REMARK  22 active torsions:
REMARK  status: ('A' for Active; 'I' for Inactive)
REMARK    1  A    between atoms: N2_3  and  C2_5 
REMARK    2  A    between atoms: C2_5  and  C9_25 
REMARK    3  A    between atoms: N3_6  and  O1_8 
REMARK    4  A    between atoms: O1_8  and  C3_9 
REMARK    5  A    between atoms: C3_9  and  C4_11 
REMARK    6  A    between atoms: C4_11  and  O3_12 
REMARK    7  A    between atoms: C4_11  and  N4_14 
REMARK    8  A    between atoms: N4_14  and  C5_16 
REMARK    9  A    between atoms: C7_19  and  O5_20 
REMARK   10  A    between atoms: C8_22  and  O6_23 
REMARK   11  A    between atoms: C11_28  and  C12_29 
REMARK       I    between atoms: C12_29  and  N5_31 
REMARK   12  A    between atoms: C13_33  and  C14_34 
REMARK   13  A    between atoms: C14_34  and  C15_35 
REMARK   14  A    between atoms: C15_35  and  C16_36 
REMARK   15  A    between atoms: C16_36  and  C17_37 
REMARK   16  A    between atoms: C17_37  and  C18_38 
REMARK   17  A    between atoms: C18_38  and  C19_40 
REMARK   18  A    between atoms: C20_41  and  C21_42 
REMARK   19  A    between atoms: C23_44  and  O9_45 
REMARK   20  A    between atoms: C24_47  and  O10_48 
REMARK   21  A    between atoms: C25_50  and  O11_51 
REMARK   22  A    between atoms: C27_54  and  O12_55 
ROOT
HETATM    1  N1  UNL     1     -42.733  19.258   5.019  1.00  0.00    -0.172 NA
HETATM    2  C1  UNL     1     -41.654  19.501   5.352  1.00  0.00     0.183 C 
HETATM    3  N2  UNL     1     -40.331  19.787   5.730  1.00  0.00    -0.277 N 
ATOM      4  H2  UNL     1     -39.674  19.006   5.746  1.00  0.00     0.179 HD
ENDROOT
BRANCH   3   5
HETATM    5  C2  UNL     1     -39.832  21.047   6.088  1.00  0.00     0.154 C 
HETATM    6  N3  UNL     1     -40.125  22.175   5.551  1.00  0.00    -0.239 N 
ATOM      7  H3  UNL     1     -39.695  23.033   5.899  1.00  0.00     0.196 HD
BRANCH   6   8
HETATM    8  O1  UNL     1     -41.008  22.229   4.519  1.00  0.00    -0.194 OA
BRANCH   8   9
HETATM    9  C3  UNL     1     -40.673  22.577   3.194  1.00  0.00     0.329 C 
HETATM   10  O2  UNL     1     -40.816  21.645   2.376  1.00  0.00    -0.258 OA
BRANCH   9  11
HETATM   11  C4  UNL     1     -40.211  23.942   2.926  1.00  0.00     0.319 C 
BRANCH  11  12
HETATM   12  O3  UNL     1     -39.005  24.122   3.666  1.00  0.00    -0.368 OA
ATOM     13  H3  UNL     1     -39.085  23.598   4.454  1.00  0.00     0.212 HD
ENDBRANCH  11  12
BRANCH  11  14
HETATM   14  N4  UNL     1     -41.154  24.923   3.215  1.00  0.00    -0.361 N 
ATOM     15  H4  UNL     1     -41.987  24.626   3.722  1.00  0.00     0.158 HD
BRANCH  14  16
HETATM   16  C5  UNL     1     -41.070  26.248   2.884  1.00  0.00     0.250 C 
HETATM   17  O4  UNL     1     -40.076  27.073   3.291  1.00  0.00    -0.362 OA
HETATM   18  C6  UNL     1     -40.356  28.303   2.693  1.00  0.00     0.205 C 
HETATM   19  C7  UNL     1     -41.870  28.390   2.529  1.00  0.00     0.175 C 
HETATM   20  C8  UNL     1     -42.302  27.090   3.200  1.00  0.00     0.197 C 
BRANCH  19  21
HETATM   21  O5  UNL     1     -42.189  28.261   1.183  1.00  0.00    -0.391 OA
ATOM     22  H5  UNL     1     -43.092  28.524   1.051  1.00  0.00     0.210 HD
ENDBRANCH  19  21
BRANCH  20  23
HETATM   23  O6  UNL     1     -43.463  26.563   2.693  1.00  0.00    -0.389 OA
ATOM     24  H6  UNL     1     -44.244  26.992   3.022  1.00  0.00     0.210 HD
ENDBRANCH  20  23
ENDBRANCH  14  16
ENDBRANCH  11  14
ENDBRANCH   9  11
ENDBRANCH   8   9
ENDBRANCH   6   8
BRANCH   5  25
HETATM   25  C9  UNL     1     -38.871  21.130   7.212  1.00  0.00     0.085 A 
HETATM   26  S1  UNL     1     -37.981  19.805   7.868  1.00  0.00    -0.094 SA
HETATM   27  C10 UNL     1     -37.131  20.628   9.086  1.00  0.00     0.070 A 
HETATM   28  C11 UNL     1     -37.559  21.916   8.957  1.00  0.00     0.073 A 
HETATM   29  C27 UNL     1     -38.466  22.173   7.978  1.00  0.00     0.102 A 
BRANCH  28  30
HETATM   30  C12 UNL     1     -37.023  22.978   9.867  1.00  0.00     0.258 C 
HETATM   31  O7  UNL     1     -37.397  23.055  11.067  1.00  0.00    -0.267 OA
HETATM   32  N5  UNL     1     -36.089  23.922   9.432  1.00  0.00    -0.337 N 
HETATM   33  C13 UNL     1     -35.057  24.294  10.098  1.00  0.00     0.064 C 
ATOM     34  H5  UNL     1     -36.240  24.348   8.517  1.00  0.00     0.168 HD
BRANCH  33  35
HETATM   35  C14 UNL     1     -34.799  23.712  11.418  1.00  0.00     0.044 C 
BRANCH  35  36
HETATM   36  C15 UNL     1     -33.371  23.278  11.596  1.00  0.00     0.006 C 
BRANCH  36  37
HETATM   37  C16 UNL     1     -33.304  22.084  12.495  1.00  0.00     0.008 C 
BRANCH  37  38
HETATM   38  C17 UNL     1     -34.405  21.101  12.321  1.00  0.00     0.083 C 
BRANCH  38  39
HETATM   39  C18 UNL     1     -33.939  19.652  12.311  1.00  0.00     0.149 C 
HETATM   40  O8  UNL     1     -34.336  18.976  13.289  1.00  0.00    -0.293 OA
BRANCH  39  41
HETATM   41  C19 UNL     1     -33.120  19.135  11.262  1.00  0.00     0.051 C 
HETATM   42  C20 UNL     1     -32.593  19.472  10.164  1.00  0.00     0.015 C 
BRANCH  42  43
HETATM   43  C21 UNL     1     -32.510  20.610   9.309  1.00  0.00    -0.031 A 
HETATM   44  C22 UNL     1     -33.652  20.974   8.566  1.00  0.00     0.051 A 
HETATM   45  C23 UNL     1     -33.608  22.028   7.692  1.00  0.00     0.102 A 
HETATM   46  C24 UNL     1     -32.459  22.741   7.528  1.00  0.00     0.132 A 
HETATM   47  C25 UNL     1     -31.317  22.436   8.220  1.00  0.00     0.102 A 
HETATM   48  C26 UNL     1     -31.377  21.348   9.116  1.00  0.00     0.051 A 
BRANCH  45  49
HETATM   49  O9  UNL     1     -34.756  22.342   6.991  1.00  0.00    -0.358 OA
ATOM     50  H9  UNL     1     -35.285  23.069   7.298  1.00  0.00     0.217 HD
ENDBRANCH  45  49
BRANCH  46  51
HETATM   51  O10 UNL     1     -32.470  23.795   6.634  1.00  0.00    -0.356 OA
ATOM     52  H10 UNL     1     -32.506  23.594   5.706  1.00  0.00     0.218 HD
ENDBRANCH  46  51
BRANCH  47  53
HETATM   53  O11 UNL     1     -30.138  23.155   8.061  1.00  0.00    -0.358 OA
ATOM     54  H11 UNL     1     -29.382  22.796   7.610  1.00  0.00     0.217 HD
ENDBRANCH  47  53
ENDBRANCH  42  43
ENDBRANCH  39  41
ENDBRANCH  38  39
ENDBRANCH  37  38
ENDBRANCH  36  37
ENDBRANCH  35  36
ENDBRANCH  33  35
ENDBRANCH  28  30
BRANCH  29  55
HETATM   55  O12 UNL     1     -38.978  23.478   7.759  1.00  0.00    -0.358 OA
ATOM     56  H12 UNL     1     -39.207  24.040   8.490  1.00  0.00     0.217 HD
ENDBRANCH  29  55
ENDBRANCH   5  25
ENDBRANCH   3   5
TORSDOF 22
ENDMDL
MODEL 2
REMARK VINA RESULT: -8.866461591      1.925      3.834
REMARK  22 active torsions:
REMARK  status: ('A' for Active; 'I' for Inactive)
REMARK    1  A    between atoms: N2_3  and  C2_5 
REMARK    2  A    between atoms: C2_5  and  C9_25 
REMARK    3  A    between atoms: N3_6  and  O1_8 
REMARK    4  A    between atoms: O1_8  and  C3_9 
REMARK    5  A    between atoms: C3_9  and  C4_11 
REMARK    6  A    between atoms: C4_11  and  O3_12 
REMARK    7  A    between atoms: C4_11  and  N4_14 
REMARK    8  A    between atoms: N4_14  and  C5_16 
REMARK    9  A    between atoms: C7_19  and  O5_20 
REMARK   10  A    between atoms: C8_22  and  O6_23 
REMARK   11  A    between atoms: C11_28  and  C12_29 
REMARK       I    between atoms: C12_29  and  N5_31 
REMARK   12  A    between atoms: C13_33  and  C14_34 
REMARK   13  A    between atoms: C14_34  and  C15_35 
REMARK   14  A    between atoms: C15_35  and  C16_36 
REMARK   15  A    between atoms: C16_36  and  C17_37 
REMARK   16  A    between atoms: C17_37  and  C18_38 
REMARK   17  A    between atoms: C18_38  and  C19_40 
REMARK   18  A    between atoms: C20_41  and  C21_42 
REMARK   19  A    between atoms: C23_44  and  O9_45 
REMARK   20  A    between atoms: C24_47  and  O10_48 
REMARK   21  A    between atoms: C25_50  and  O11_51 
REMARK   22  A    between atoms: C27_54  and  O12_55 
ROOT
HETATM    1  N1  UNL     1     -43.199  19.119   6.567  1.00  0.00    -0.172 NA
HETATM    2  C1  UNL     1     -42.170  19.309   6.077  1.00  0.00     0.183 C 
HETATM    3  N2  UNL     1     -40.933  19.546   5.455  1.00  0.00    -0.277 N 
ATOM      4  H2  UNL     1     -40.688  18.947   4.666  1.00  0.00     0.179 HD
ENDROOT
BRANCH   3   5
HETATM    5  C2  UNL     1     -40.004  20.531   5.821  1.00  0.00     0.154 C 
HETATM    6  N3  UNL     1     -40.004  21.763   5.463  1.00  0.00    -0.239 N 
ATOM      7  H3  UNL     1     -39.270  22.389   5.796  1.00  0.00     0.196 HD
BRANCH   6   8
HETATM    8  O1  UNL     1     -40.978  22.234   4.642  1.00  0.00    -0.194 OA
BRANCH   8   9
HETATM    9  C3  UNL     1     -40.793  22.566   3.285  1.00  0.00     0.329 C 
HETATM   10  O2  UNL     1     -41.071  21.638   2.496  1.00  0.00    -0.258 OA
BRANCH   9  11
HETATM   11  C4  UNL     1     -40.313  23.911   2.953  1.00  0.00     0.319 C 
BRANCH  11  12
HETATM   12  O3  UNL     1     -39.082  24.093   3.650  1.00  0.00    -0.368 OA
ATOM     13  H3  UNL     1     -38.395  24.114   2.994  1.00  0.00     0.212 HD
ENDBRANCH  11  12
BRANCH  11  14
HETATM   14  N4  UNL     1     -41.228  24.920   3.233  1.00  0.00    -0.361 N 
ATOM     15  H4  UNL     1     -42.067  24.652   3.746  1.00  0.00     0.158 HD
BRANCH  14  16
HETATM   16  C5  UNL     1     -41.110  26.238   2.884  1.00  0.00     0.250 C 
HETATM   17  O4  UNL     1     -40.101  27.045   3.291  1.00  0.00    -0.362 OA
HETATM   18  C6  UNL     1     -40.346  28.273   2.674  1.00  0.00     0.205 C 
HETATM   19  C7  UNL     1     -41.856  28.393   2.492  1.00  0.00     0.175 C 
HETATM   20  C8  UNL     1     -42.325  27.113   3.176  1.00  0.00     0.197 C 
BRANCH  19  21
HETATM   21  O5  UNL     1     -42.163  28.253   1.144  1.00  0.00    -0.391 OA
ATOM     22  H5  UNL     1     -41.911  27.383   0.857  1.00  0.00     0.210 HD
ENDBRANCH  19  21
BRANCH  20  23
HETATM   23  O6  UNL     1     -43.492  26.606   2.663  1.00  0.00    -0.389 OA
ATOM     24  H6  UNL     1     -43.532  25.658   2.689  1.00  0.00     0.210 HD
ENDBRANCH  20  23
ENDBRANCH  14  16
ENDBRANCH  11  14
ENDBRANCH   9  11
ENDBRANCH   8   9
ENDBRANCH   6   8
BRANCH   5  25
HETATM   25  C9  UNL     1     -38.897  20.150   6.729  1.00  0.00     0.085 A 
HETATM   26  S1  UNL     1     -38.672  18.592   7.435  1.00  0.00    -0.094 SA
HETATM   27  C10 UNL     1     -37.261  18.902   8.327  1.00  0.00     0.070 A 
HETATM   28  C11 UNL     1     -36.996  20.211   8.056  1.00  0.00     0.073 A 
HETATM   29  C27 UNL     1     -37.851  20.858   7.222  1.00  0.00     0.102 A 
BRANCH  28  30
HETATM   30  C12 UNL     1     -35.797  20.873   8.664  1.00  0.00     0.258 C 
HETATM   31  O7  UNL     1     -35.515  20.716   9.881  1.00  0.00    -0.267 OA
HETATM   32  N5  UNL     1     -34.943  21.687   7.916  1.00  0.00    -0.337 N 
HETATM   33  C13 UNL     1     -33.662  21.658   7.977  1.00  0.00     0.064 C 
ATOM     34  H5  UNL     1     -35.370  22.354   7.272  1.00  0.00     0.168 HD
BRANCH  33  35
HETATM   35  C14 UNL     1     -33.002  20.719   8.888  1.00  0.00     0.044 C 
BRANCH  35  36
HETATM   36  C15 UNL     1     -31.600  21.134   9.240  1.00  0.00     0.006 C 
BRANCH  36  37
HETATM   37  C16 UNL     1     -31.600  22.522   9.799  1.00  0.00     0.008 C 
BRANCH  37  38
HETATM   38  C17 UNL     1     -31.831  22.612  11.264  1.00  0.00     0.083 C 
BRANCH  38  39
HETATM   39  C18 UNL     1     -32.973  23.543  11.649  1.00  0.00     0.149 C 
HETATM   40  O8  UNL     1     -33.205  23.592  12.880  1.00  0.00    -0.293 OA
BRANCH  39  41
HETATM   41  C19 UNL     1     -33.698  24.285  10.668  1.00  0.00     0.051 C 
HETATM   42  C20 UNL     1     -34.877  24.521  10.282  1.00  0.00     0.015 C 
BRANCH  42  43
HETATM   43  C21 UNL     1     -36.217  24.169  10.620  1.00  0.00    -0.031 A 
HETATM   44  C22 UNL     1     -37.170  24.088   9.585  1.00  0.00     0.051 A 
HETATM   45  C23 UNL     1     -38.480  23.803   9.865  1.00  0.00     0.102 A 
HETATM   46  C24 UNL     1     -38.882  23.593  11.149  1.00  0.00     0.132 A 
HETATM   47  C25 UNL     1     -38.003  23.659  12.198  1.00  0.00     0.102 A 
HETATM   48  C26 UNL     1     -36.658  23.954  11.895  1.00  0.00     0.051 A 
BRANCH  45  49
HETATM   49  O9  UNL     1     -39.372  23.735   8.812  1.00  0.00    -0.358 OA
ATOM     50  H9  UNL     1     -39.024  23.607   7.937  1.00  0.00     0.217 HD
ENDBRANCH  45  49
BRANCH  46  51
HETATM   51  O10 UNL     1     -40.216  23.309  11.375  1.00  0.00    -0.356 OA
ATOM     52  H10 UNL     1     -40.430  22.677  12.050  1.00  0.00     0.218 HD
ENDBRANCH  46  51
BRANCH  47  53
HETATM   53  O11 UNL     1     -38.400  23.448  13.514  1.00  0.00    -0.358 OA
ATOM     54  H11 UNL     1     -38.245  24.087  14.199  1.00  0.00     0.217 HD
ENDBRANCH  47  53
ENDBRANCH  42  43
ENDBRANCH  39  41
ENDBRANCH  38  39
ENDBRANCH  37  38
ENDBRANCH  36  37
ENDBRANCH  35  36
ENDBRANCH  33  35
ENDBRANCH  28  30
BRANCH  29  55
HETATM   55  O12 UNL     1     -37.669  22.222   6.877  1.00  0.00    -0.358 OA
ATOM     56  H12 UNL     1     -37.683  22.500   5.969  1.00  0.00     0.217 HD
ENDBRANCH  29  55
ENDBRANCH   5  25
ENDBRANCH   3   5
TORSDOF 22
ENDMDL
MODEL 3
REMARK VINA RESULT: -8.837472483      2.858      4.496
REMARK  22 active torsions:
REMARK  status: ('A' for Active; 'I' for Inactive)
REMARK    1  A    between atoms: N2_3  and  C2_5 
REMARK    2  A    between atoms: C2_5  and  C9_25 
REMARK    3  A    between atoms: N3_6  and  O1_8 
REMARK    4  A    between atoms: O1_8  and  C3_9 
REMARK    5  A    between atoms: C3_9  and  C4_11 
REMARK    6  A    between atoms: C4_11  and  O3_12 
REMARK    7  A    between atoms: C4_11  and  N4_14 
REMARK    8  A    between atoms: N4_14  and  C5_16 
REMARK    9  A    between atoms: C7_19  and  O5_20 
REMARK   10  A    between atoms: C8_22  and  O6_23 
REMARK   11  A    between atoms: C11_28  and  C12_29 
REMARK       I    between atoms: C12_29  and  N5_31 
REMARK   12  A    between atoms: C13_33  and  C14_34 
REMARK   13  A    between atoms: C14_34  and  C15_35 
REMARK   14  A    between atoms: C15_35  and  C16_36 
REMARK   15  A    between atoms: C16_36  and  C17_37 
REMARK   16  A    between atoms: C17_37  and  C18_38 
REMARK   17  A    between atoms: C18_38  and  C19_40 
REMARK   18  A    between atoms: C20_41  and  C21_42 
REMARK   19  A    between atoms: C23_44  and  O9_45 
REMARK   20  A    between atoms: C24_47  and  O10_48 
REMARK   21  A    between atoms: C25_50  and  O11_51 
REMARK   22  A    between atoms: C27_54  and  O12_55 
ROOT
HETATM    1  N1  UNL     1     -38.901  17.477   7.072  1.00  0.00    -0.172 NA
HETATM    2  C1  UNL     1     -38.806  18.603   6.830  1.00  0.00     0.183 C 
HETATM    3  N2  UNL     1     -38.689  19.965   6.506  1.00  0.00    -0.277 N 
ATOM      4  H2  UNL     1     -37.843  20.254   6.015  1.00  0.00     0.179 HD
ENDROOT
BRANCH   3   5
HETATM    5  C2  UNL     1     -39.630  20.963   6.798  1.00  0.00     0.154 C 
HETATM    6  N3  UNL     1     -40.638  21.307   6.082  1.00  0.00    -0.239 N 
ATOM      7  H3  UNL     1     -41.258  22.053   6.400  1.00  0.00     0.196 HD
BRANCH   6   8
HETATM    8  O1  UNL     1     -40.882  20.679   4.902  1.00  0.00    -0.194 OA
BRANCH   8   9
HETATM    9  C3  UNL     1     -41.668  21.209   3.859  1.00  0.00     0.329 C 
HETATM   10  O2  UNL     1     -41.436  22.412   3.613  1.00  0.00    -0.258 OA
BRANCH   9  11
HETATM   11  C4  UNL     1     -42.636  20.330   3.197  1.00  0.00     0.319 C 
BRANCH  11  12
HETATM   12  O3  UNL     1     -43.818  21.100   2.988  1.00  0.00    -0.368 OA
ATOM     13  H3  UNL     1     -43.835  21.331   2.067  1.00  0.00     0.212 HD
ENDBRANCH  11  12
BRANCH  11  14
HETATM   14  N4  UNL     1     -42.894  19.152   3.892  1.00  0.00    -0.361 N 
ATOM     15  H4  UNL     1     -42.246  18.379   3.746  1.00  0.00     0.158 HD
BRANCH  14  16
HETATM   16  C5  UNL     1     -43.934  18.934   4.753  1.00  0.00     0.250 C 
HETATM   17  O4  UNL     1     -45.204  19.352   4.535  1.00  0.00    -0.362 OA
HETATM   18  C6  UNL     1     -45.935  18.882   5.628  1.00  0.00     0.205 C 
HETATM   19  C7  UNL     1     -44.979  18.815   6.814  1.00  0.00     0.175 C 
HETATM   20  C8  UNL     1     -43.714  19.395   6.191  1.00  0.00     0.197 C 
BRANCH  19  21
HETATM   21  O5  UNL     1     -44.702  17.484   7.100  1.00  0.00    -0.391 OA
ATOM     22  H5  UNL     1     -45.036  17.276   7.965  1.00  0.00     0.210 HD
ENDBRANCH  19  21
BRANCH  20  23
HETATM   23  O6  UNL     1     -42.553  18.913   6.742  1.00  0.00    -0.389 OA
ATOM     24  H6  UNL     1     -41.773  19.202   6.284  1.00  0.00     0.210 HD
ENDBRANCH  20  23
ENDBRANCH  14  16
ENDBRANCH  11  14
ENDBRANCH   9  11
ENDBRANCH   8   9
ENDBRANCH   6   8
BRANCH   5  25
HETATM   25  C9  UNL     1     -39.488  21.714   8.067  1.00  0.00     0.085 A 
HETATM   26  S1  UNL     1     -40.629  21.718   9.361  1.00  0.00    -0.094 SA
HETATM   27  C10 UNL     1     -39.825  22.769  10.426  1.00  0.00     0.070 A 
HETATM   28  C11 UNL     1     -38.686  23.094   9.750  1.00  0.00     0.073 A 
HETATM   29  C27 UNL     1     -38.515  22.542   8.521  1.00  0.00     0.102 A 
BRANCH  28  30
HETATM   30  C12 UNL     1     -37.685  24.017  10.373  1.00  0.00     0.258 C 
HETATM   31  O7  UNL     1     -37.983  24.719  11.376  1.00  0.00    -0.267 OA
HETATM   32  N5  UNL     1     -36.385  24.141   9.877  1.00  0.00    -0.337 N 
HETATM   33  C13 UNL     1     -35.325  24.188  10.599  1.00  0.00     0.064 C 
ATOM     34  H5  UNL     1     -36.269  24.199   8.865  1.00  0.00     0.168 HD
BRANCH  33  35
HETATM   35  C14 UNL     1     -35.439  24.111  12.058  1.00  0.00     0.044 C 
BRANCH  35  36
HETATM   36  C15 UNL     1     -34.749  22.906  12.635  1.00  0.00     0.006 C 
BRANCH  36  37
HETATM   37  C16 UNL     1     -35.738  21.807  12.864  1.00  0.00     0.008 C 
BRANCH  37  38
HETATM   38  C17 UNL     1     -35.268  20.709  13.748  1.00  0.00     0.083 C 
BRANCH  38  39
HETATM   39  C18 UNL     1     -34.147  19.872  13.145  1.00  0.00     0.149 C 
HETATM   40  O8  UNL     1     -33.120  19.795  13.859  1.00  0.00    -0.293 OA
BRANCH  39  41
HETATM   41  C19 UNL     1     -34.286  19.241  11.872  1.00  0.00     0.051 C 
HETATM   42  C20 UNL     1     -34.125  19.461  10.638  1.00  0.00     0.015 C 
BRANCH  42  43
HETATM   43  C21 UNL     1     -33.694  20.510   9.774  1.00  0.00    -0.031 A 
HETATM   44  C22 UNL     1     -34.474  20.806   8.638  1.00  0.00     0.051 A 
HETATM   45  C23 UNL     1     -34.075  21.770   7.750  1.00  0.00     0.102 A 
HETATM   46  C24 UNL     1     -32.918  22.459   7.952  1.00  0.00     0.132 A 
HETATM   47  C25 UNL     1     -32.117  22.217   9.037  1.00  0.00     0.102 A 
HETATM   48  C26 UNL     1     -32.539  21.221   9.942  1.00  0.00     0.051 A 
BRANCH  45  49
HETATM   49  O9  UNL     1     -34.879  22.019   6.654  1.00  0.00    -0.358 OA
ATOM     50  H9  UNL     1     -34.469  22.061   5.798  1.00  0.00     0.217 HD
ENDBRANCH  45  49
BRANCH  46  51
HETATM   51  O10 UNL     1     -32.563  23.420   7.026  1.00  0.00    -0.356 OA
ATOM     52  H10 UNL     1     -32.719  24.331   7.245  1.00  0.00     0.218 HD
ENDBRANCH  46  51
BRANCH  47  53
HETATM   53  O11 UNL     1     -30.933  22.912   9.256  1.00  0.00    -0.358 OA
ATOM     54  H11 UNL     1     -30.251  22.972   8.596  1.00  0.00     0.217 HD
ENDBRANCH  47  53
ENDBRANCH  42  43
ENDBRANCH  39  41
ENDBRANCH  38  39
ENDBRANCH  37  38
ENDBRANCH  36  37
ENDBRANCH  35  36
ENDBRANCH  33  35
ENDBRANCH  28  30
BRANCH  29  55
HETATM   55  O12 UNL     1     -37.367  22.815   7.733  1.00  0.00    -0.358 OA
ATOM     56  H12 UNL     1     -36.713  22.144   7.575  1.00  0.00     0.217 HD
ENDBRANCH  29  55
ENDBRANCH   5  25
ENDBRANCH   3   5
TORSDOF 22
ENDMDL
MODEL 4
REMARK VINA RESULT: -8.837308325      2.725      5.076
REMARK  22 active torsions:
REMARK  status: ('A' for Active; 'I' for Inactive)
REMARK    1  A    between atoms: N2_3  and  C2_5 
REMARK    2  A    between atoms: C2_5  and  C9_25 
REMARK    3  A    between atoms: N3_6  and  O1_8 
REMARK    4  A    between atoms: O1_8  and  C3_9 
REMARK    5  A    between atoms: C3_9  and  C4_11 
REMARK    6  A    between atoms: C4_11  and  O3_12 
REMARK    7  A    between atoms: C4_11  and  N4_14 
REMARK    8  A    between atoms: N4_14  and  C5_16 
REMARK    9  A    between atoms: C7_19  and  O5_20 
REMARK   10  A    between atoms: C8_22  and  O6_23 
REMARK   11  A    between atoms: C11_28  and  C12_29 
REMARK       I    between atoms: C12_29  and  N5_31 
REMARK   12  A    between atoms: C13_33  and  C14_34 
REMARK   13  A    between atoms: C14_34  and  C15_35 
REMARK   14  A    between atoms: C15_35  and  C16_36 
REMARK   15  A    between atoms: C16_36  and  C17_37 
REMARK   16  A    between atoms: C17_37  and  C18_38 
REMARK   17  A    between atoms: C18_38  and  C19_40 
REMARK   18  A    between atoms: C20_41  and  C21_42 
REMARK   19  A    between atoms: C23_44  and  O9_45 
REMARK   20  A    between atoms: C24_47  and  O10_48 
REMARK   21  A    between atoms: C25_50  and  O11_51 
REMARK   22  A    between atoms: C27_54  and  O12_55 
ROOT
HETATM    1  N1  UNL     1     -39.121  24.247   3.472  1.00  0.00    -0.172 NA
HETATM    2  C1  UNL     1     -39.404  23.720   4.460  1.00  0.00     0.183 C 
HETATM    3  N2  UNL     1     -39.775  23.095   5.662  1.00  0.00    -0.277 N 
ATOM      4  H2  UNL     1     -39.961  23.700   6.462  1.00  0.00     0.179 HD
ENDROOT
BRANCH   3   5
HETATM    5  C2  UNL     1     -39.913  21.713   5.862  1.00  0.00     0.154 C 
HETATM    6  N3  UNL     1     -40.790  20.940   5.333  1.00  0.00    -0.239 N 
ATOM      7  H3  UNL     1     -40.792  19.944   5.555  1.00  0.00     0.196 HD
BRANCH   6   8
HETATM    8  O1  UNL     1     -41.716  21.446   4.476  1.00  0.00    -0.194 OA
BRANCH   8   9
HETATM    9  C3  UNL     1     -41.926  20.989   3.160  1.00  0.00     0.329 C 
HETATM   10  O2  UNL     1     -41.074  21.396   2.343  1.00  0.00    -0.258 OA
BRANCH   9  11
HETATM   11  C4  UNL     1     -43.075  20.118   2.897  1.00  0.00     0.319 C 
BRANCH  11  12
HETATM   12  O3  UNL     1     -44.239  20.940   2.958  1.00  0.00    -0.368 OA
ATOM     13  H3  UNL     1     -44.850  20.600   2.315  1.00  0.00     0.212 HD
ENDBRANCH  11  12
BRANCH  11  14
HETATM   14  N4  UNL     1     -43.161  19.024   3.753  1.00  0.00    -0.361 N 
ATOM     15  H4  UNL     1     -42.460  18.293   3.637  1.00  0.00     0.158 HD
BRANCH  14  16
HETATM   16  C5  UNL     1     -44.095  18.838   4.734  1.00  0.00     0.250 C 
HETATM   17  O4  UNL     1     -45.388  19.227   4.638  1.00  0.00    -0.362 OA
HETATM   18  C6  UNL     1     -45.985  18.806   5.828  1.00  0.00     0.205 C 
HETATM   19  C7  UNL     1     -44.903  18.814   6.902  1.00  0.00     0.175 C 
HETATM   20  C8  UNL     1     -43.725  19.376   6.113  1.00  0.00     0.197 C 
BRANCH  19  21
HETATM   21  O5  UNL     1     -44.571  17.503   7.222  1.00  0.00    -0.391 OA
ATOM     22  H5  UNL     1     -43.988  17.504   7.973  1.00  0.00     0.210 HD
ENDBRANCH  19  21
BRANCH  20  23
HETATM   23  O6  UNL     1     -42.502  18.938   6.555  1.00  0.00    -0.389 OA
ATOM     24  H6  UNL     1     -41.886  18.777   5.851  1.00  0.00     0.210 HD
ENDBRANCH  20  23
ENDBRANCH  14  16
ENDBRANCH  11  14
ENDBRANCH   9  11
ENDBRANCH   8   9
ENDBRANCH   6   8
BRANCH   5  25
HETATM   25  C9  UNL     1     -38.953  21.034   6.763  1.00  0.00     0.085 A 
HETATM   26  S1  UNL     1     -38.720  19.328   6.874  1.00  0.00    -0.094 SA
HETATM   27  C10 UNL     1     -37.519  19.299   8.075  1.00  0.00     0.070 A 
HETATM   28  C11 UNL     1     -37.326  20.617   8.363  1.00  0.00     0.073 A 
HETATM   29  C27 UNL     1     -38.076  21.519   7.677  1.00  0.00     0.102 A 
BRANCH  28  30
HETATM   30  C12 UNL     1     -36.315  21.018   9.393  1.00  0.00     0.258 C 
HETATM   31  O7  UNL     1     -36.607  21.834  10.307  1.00  0.00    -0.267 OA
HETATM   32  N5  UNL     1     -35.015  20.508   9.390  1.00  0.00    -0.337 N 
HETATM   33  C13 UNL     1     -34.380  20.109  10.431  1.00  0.00     0.064 C 
ATOM     34  H5  UNL     1     -34.533  20.449   8.492  1.00  0.00     0.168 HD
BRANCH  33  35
HETATM   35  C14 UNL     1     -35.029  20.175  11.744  1.00  0.00     0.044 C 
BRANCH  35  36
HETATM   36  C15 UNL     1     -34.050  20.344  12.872  1.00  0.00     0.006 C 
BRANCH  36  37
HETATM   37  C16 UNL     1     -34.725  20.976  14.049  1.00  0.00     0.008 C 
BRANCH  37  38
HETATM   38  C17 UNL     1     -35.743  22.005  13.715  1.00  0.00     0.083 C 
BRANCH  38  39
HETATM   39  C18 UNL     1     -35.308  23.427  14.043  1.00  0.00     0.149 C 
HETATM   40  O8  UNL     1     -35.014  23.611  15.248  1.00  0.00    -0.293 OA
BRANCH  39  41
HETATM   41  C19 UNL     1     -35.250  24.443  13.042  1.00  0.00     0.051 C 
HETATM   42  C20 UNL     1     -34.718  24.699  11.925  1.00  0.00     0.015 C 
BRANCH  42  43
HETATM   43  C21 UNL     1     -33.836  24.092  10.983  1.00  0.00    -0.031 A 
HETATM   44  C22 UNL     1     -34.155  24.180   9.613  1.00  0.00     0.051 A 
HETATM   45  C23 UNL     1     -33.367  23.571   8.673  1.00  0.00     0.102 A 
HETATM   46  C24 UNL     1     -32.261  22.870   9.049  1.00  0.00     0.132 A 
HETATM   47  C25 UNL     1     -31.899  22.748  10.364  1.00  0.00     0.102 A 
HETATM   48  C26 UNL     1     -32.720  23.379  11.321  1.00  0.00     0.051 A 
BRANCH  45  49
HETATM   49  O9  UNL     1     -33.726  23.691   7.344  1.00  0.00    -0.358 OA
ATOM     50  H9  UNL     1     -33.080  24.028   6.734  1.00  0.00     0.217 HD
ENDBRANCH  45  49
BRANCH  46  51
HETATM   51  O10 UNL     1     -31.501  22.275   8.060  1.00  0.00    -0.356 OA
ATOM     52  H10 UNL     1     -30.667  21.892   8.306  1.00  0.00     0.218 HD
ENDBRANCH  46  51
BRANCH  47  53
HETATM   53  O11 UNL     1     -30.773  22.035  10.762  1.00  0.00    -0.358 OA
ATOM     54  H11 UNL     1     -29.916  22.189  10.383  1.00  0.00     0.217 HD
ENDBRANCH  47  53
ENDBRANCH  42  43
ENDBRANCH  39  41
ENDBRANCH  38  39
ENDBRANCH  37  38
ENDBRANCH  36  37
ENDBRANCH  35  36
ENDBRANCH  33  35
ENDBRANCH  28  30
BRANCH  29  55
HETATM   55  O12 UNL     1     -37.957  22.914   7.901  1.00  0.00    -0.358 OA
ATOM     56  H12 UNL     1     -37.163  23.281   8.273  1.00  0.00     0.217 HD
ENDBRANCH  29  55
ENDBRANCH   5  25
ENDBRANCH   3   5
TORSDOF 22
ENDMDL
MODEL 5
REMARK VINA RESULT: -8.807410990      2.591      4.803
REMARK  22 active torsions:
REMARK  status: ('A' for Active; 'I' for Inactive)
REMARK    1  A    between atoms: N2_3  and  C2_5 
REMARK    2  A    between atoms: C2_5  and  C9_25 
REMARK    3  A    between atoms: N3_6  and  O1_8 
REMARK    4  A    between atoms: O1_8  and  C3_9 
REMARK    5  A    between atoms: C3_9  and  C4_11 
REMARK    6  A    between atoms: C4_11  and  O3_12 
REMARK    7  A    between atoms: C4_11  and  N4_14 
REMARK    8  A    between atoms: N4_14  and  C5_16 
REMARK    9  A    between atoms: C7_19  and  O5_20 
REMARK   10  A    between atoms: C8_22  and  O6_23 
REMARK   11  A    between atoms: C11_28  and  C12_29 
REMARK       I    between atoms: C12_29  and  N5_31 
REMARK   12  A    between atoms: C13_33  and  C14_34 
REMARK   13  A    between atoms: C14_34  and  C15_35 
REMARK   14  A    between atoms: C15_35  and  C16_36 
REMARK   15  A    between atoms: C16_36  and  C17_37 
REMARK   16  A    between atoms: C17_37  and  C18_38 
REMARK   17  A    between atoms: C18_38  and  C19_40 
REMARK   18  A    between atoms: C20_41  and  C21_42 
REMARK   19  A    between atoms: C23_44  and  O9_45 
REMARK   20  A    between atoms: C24_47  and  O10_48 
REMARK   21  A    between atoms: C25_50  and  O11_51 
REMARK   22  A    between atoms: C27_54  and  O12_55 
ROOT
HETATM    1  N1  UNL     1     -42.024  19.846   7.281  1.00  0.00    -0.172 NA
HETATM    2  C1  UNL     1     -40.962  20.137   6.933  1.00  0.00     0.183 C 
HETATM    3  N2  UNL     1     -39.677  20.481   6.481  1.00  0.00    -0.277 N 
ATOM      4  H2  UNL     1     -39.092  19.725   6.125  1.00  0.00     0.179 HD
ENDROOT
BRANCH   3   5
HETATM    5  C2  UNL     1     -39.125  21.770   6.476  1.00  0.00     0.154 C 
HETATM    6  N3  UNL     1     -39.562  22.796   5.841  1.00  0.00    -0.239 N 
ATOM      7  H3  UNL     1     -39.072  23.688   5.915  1.00  0.00     0.196 HD
BRANCH   6   8
HETATM    8  O1  UNL     1     -40.676  22.695   5.070  1.00  0.00    -0.194 OA
BRANCH   8   9
HETATM    9  C3  UNL     1     -40.683  22.739   3.661  1.00  0.00     0.329 C 
HETATM   10  O2  UNL     1     -40.981  21.652   3.124  1.00  0.00    -0.258 OA
BRANCH   9  11
HETATM   11  C4  UNL     1     -40.353  24.005   3.000  1.00  0.00     0.319 C 
BRANCH  11  12
HETATM   12  O3  UNL     1     -39.004  24.312   3.346  1.00  0.00    -0.368 OA
ATOM     13  H3  UNL     1     -39.040  24.914   4.081  1.00  0.00     0.212 HD
ENDBRANCH  11  12
BRANCH  11  14
HETATM   14  N4  UNL     1     -41.223  25.046   3.309  1.00  0.00    -0.361 N 
ATOM     15  H4  UNL     1     -42.030  24.815   3.888  1.00  0.00     0.158 HD
BRANCH  14  16
HETATM   16  C5  UNL     1     -41.099  26.348   2.911  1.00  0.00     0.250 C 
HETATM   17  O4  UNL     1     -40.097  27.171   3.301  1.00  0.00    -0.362 OA
HETATM   18  C6  UNL     1     -40.332  28.374   2.632  1.00  0.00     0.205 C 
HETATM   19  C7  UNL     1     -41.839  28.486   2.423  1.00  0.00     0.175 C 
HETATM   20  C8  UNL     1     -42.318  27.234   3.150  1.00  0.00     0.197 C 
BRANCH  19  21
HETATM   21  O5  UNL     1     -42.126  28.293   1.077  1.00  0.00    -0.391 OA
ATOM     22  H5  UNL     1     -41.861  27.416   0.826  1.00  0.00     0.210 HD
ENDBRANCH  19  21
BRANCH  20  23
HETATM   23  O6  UNL     1     -43.478  26.707   2.639  1.00  0.00    -0.389 OA
ATOM     24  H6  UNL     1     -44.261  27.114   2.992  1.00  0.00     0.210 HD
ENDBRANCH  20  23
ENDBRANCH  14  16
ENDBRANCH  11  14
ENDBRANCH   9  11
ENDBRANCH   8   9
ENDBRANCH   6   8
BRANCH   5  25
HETATM   25  C9  UNL     1     -37.913  22.019   7.292  1.00  0.00     0.085 A 
HETATM   26  S1  UNL     1     -36.426  21.152   7.168  1.00  0.00    -0.094 SA
HETATM   27  C10 UNL     1     -35.544  21.956   8.377  1.00  0.00     0.070 A 
HETATM   28  C11 UNL     1     -36.427  22.880   8.852  1.00  0.00     0.073 A 
HETATM   29  C27 UNL     1     -37.661  22.910   8.283  1.00  0.00     0.102 A 
BRANCH  28  30
HETATM   30  C12 UNL     1     -36.014  23.813   9.949  1.00  0.00     0.258 C 
HETATM   31  O7  UNL     1     -36.698  23.921  11.001  1.00  0.00    -0.267 OA
HETATM   32  N5  UNL     1     -34.863  24.598   9.857  1.00  0.00    -0.337 N 
HETATM   33  C13 UNL     1     -34.017  24.775  10.806  1.00  0.00     0.064 C 
ATOM     34  H5  UNL     1     -34.680  25.067   8.969  1.00  0.00     0.168 HD
BRANCH  33  35
HETATM   35  C14 UNL     1     -34.237  24.124  12.101  1.00  0.00     0.044 C 
BRANCH  35  36
HETATM   36  C15 UNL     1     -33.123  23.189  12.482  1.00  0.00     0.006 C 
BRANCH  36  37
HETATM   37  C16 UNL     1     -33.347  21.844  11.865  1.00  0.00     0.008 C 
BRANCH  37  38
HETATM   38  C17 UNL     1     -34.690  21.255  12.106  1.00  0.00     0.083 C 
BRANCH  38  39
HETATM   39  C18 UNL     1     -34.649  19.813  12.594  1.00  0.00     0.149 C 
HETATM   40  O8  UNL     1     -34.140  19.008  11.780  1.00  0.00    -0.293 OA
BRANCH  39  41
HETATM   41  C19 UNL     1     -35.155  19.442  13.877  1.00  0.00     0.051 C 
HETATM   42  C20 UNL     1     -35.423  18.424  14.575  1.00  0.00     0.015 C 
BRANCH  42  43
HETATM   43  C21 UNL     1     -35.369  17.003  14.480  1.00  0.00    -0.031 A 
HETATM   44  C22 UNL     1     -36.545  16.310  14.128  1.00  0.00     0.051 A 
HETATM   45  C23 UNL     1     -36.557  14.941  14.073  1.00  0.00     0.102 A 
HETATM   46  C24 UNL     1     -35.432  14.228  14.357  1.00  0.00     0.132 A 
HETATM   47  C25 UNL     1     -34.259  14.844  14.706  1.00  0.00     0.102 A 
HETATM   48  C26 UNL     1     -34.261  16.253  14.759  1.00  0.00     0.051 A 
BRANCH  45  49
HETATM   49  O9  UNL     1     -37.737  14.314  13.721  1.00  0.00    -0.358 OA
ATOM     50  H9  UNL     1     -37.867  13.415  14.000  1.00  0.00     0.217 HD
ENDBRANCH  45  49
BRANCH  46  51
HETATM   51  O10 UNL     1     -35.500  12.850  14.286  1.00  0.00    -0.356 OA
ATOM     52  H10 UNL     1     -35.841  12.380  15.037  1.00  0.00     0.218 HD
ENDBRANCH  46  51
BRANCH  47  53
HETATM   53  O11 UNL     1     -33.104  14.128  14.999  1.00  0.00    -0.358 OA
ATOM     54  H11 UNL     1     -32.302  14.233  14.500  1.00  0.00     0.217 HD
ENDBRANCH  47  53
ENDBRANCH  42  43
ENDBRANCH  39  41
ENDBRANCH  38  39
ENDBRANCH  37  38
ENDBRANCH  36  37
ENDBRANCH  35  36
ENDBRANCH  33  35
ENDBRANCH  28  30
BRANCH  29  55
HETATM   55  O12 UNL     1     -38.654  23.830   8.704  1.00  0.00    -0.358 OA
ATOM     56  H12 UNL     1     -38.942  24.532   8.132  1.00  0.00     0.217 HD
ENDBRANCH  29  55
ENDBRANCH   5  25
ENDBRANCH   3   5
TORSDOF 22
ENDMDL
