MODEL 1
REMARK VINA RESULT: -9.500981072      0.000      0.000
REMARK  17 active torsions:
REMARK  status: ('A' for Active; 'I' for Inactive)
REMARK    1  A    between atoms: C2_2  and  C3_4 
REMARK    2  A    between atoms: C3_4  and  N1_5 
REMARK    3  A    between atoms: C3_4  and  C4_9 
REMARK       I    between atoms: C4_9  and  N2_11 
REMARK    4  A    between atoms: N2_11  and  C5_13 
REMARK    5  A    between atoms: C7_15  and  C8_16 
REMARK    6  A    between atoms: C11_19  and  O3_20 
REMARK    7  A    between atoms: C12_22  and  C13_23 
REMARK    8  A    between atoms: C13_23  and  C14_24 
REMARK    9  A    between atoms: C13_23  and  N5_38 
REMARK   10  A    between atoms: C14_24  and  C15_25 
REMARK   11  A    between atoms: C16_26  and  O4_27 
REMARK   12  A    between atoms: C18_35  and  O6_36 
REMARK   13  A    between atoms: N5_38  and  C19_40 
REMARK   14  A    between atoms: C20_41  and  N6_42 
REMARK   15  A    between atoms: C22_46  and  N7_47 
REMARK   16  A    between atoms: C24_51  and  N8_52 
REMARK   17  A    between atoms: C25_55  and  O13_56 
ROOT
HETATM    1  C13 UNL     1     -39.010  21.994   6.729  1.00  0.00     0.049 C 
ENDROOT
BRANCH   1   2
HETATM    2  C12 UNL     1     -39.816  22.152   5.448  1.00  0.00     0.060 A 
HETATM    3  C11 UNL     1     -40.745  21.243   5.054  1.00  0.00     0.087 A 
HETATM    4  C7  UNL     1     -41.651  21.477   3.976  1.00  0.00    -0.018 A 
HETATM    5  C6  UNL     1     -41.574  22.669   3.311  1.00  0.00     0.043 A 
HETATM    6  C5  UNL     1     -40.657  23.615   3.664  1.00  0.00     0.070 A 
HETATM    7  C25 UNL     1     -39.764  23.363   4.743  1.00  0.00     0.107 A 
BRANCH   3   8
HETATM    8  O3  UNL     1     -40.868  20.022   5.668  1.00  0.00    -0.359 OA
ATOM      9  H3  UNL     1     -40.657  20.011   6.594  1.00  0.00     0.217 HD
ENDBRANCH   3   8
BRANCH   4  10
HETATM   10  C8  UNL     1     -42.564  20.383   3.612  1.00  0.00     0.013 C 
HETATM   11  C9  UNL     1     -43.395  19.802   4.677  1.00  0.00     0.015 C 
HETATM   12  C10 UNL     1     -43.549  20.994   2.569  1.00  0.00     0.015 C 
ENDBRANCH   4  10
BRANCH   6  13
HETATM   13  N2  UNL     1     -40.633  24.891   3.039  1.00  0.00    -0.323 N 
HETATM   14  C4  UNL     1     -41.582  25.901   3.117  1.00  0.00     0.260 C 
HETATM   15  O2  UNL     1     -42.636  25.846   3.735  1.00  0.00    -0.270 OA
ATOM     16  H2  UNL     1     -39.816  25.088   2.460  1.00  0.00     0.169 HD
BRANCH  14  17
HETATM   17  C3  UNL     1     -41.339  27.217   2.384  1.00  0.00     0.343 C 
BRANCH  17  18
HETATM   18  C2  UNL     1     -40.206  27.917   3.021  1.00  0.00     0.162 C 
HETATM   19  C1  UNL     1     -40.098  29.399   2.924  1.00  0.00     0.093 C 
HETATM   20  O1  UNL     1     -39.355  27.308   3.627  1.00  0.00    -0.296 OA
ENDBRANCH  17  18
BRANCH  17  21
HETATM   21  N1  UNL     1     -42.578  27.968   2.551  1.00  0.00    -0.060 N 
ATOM     22  H13 UNL     1     -42.838  28.050   3.534  1.00  0.00     0.275 HD
ATOM     23  H12 UNL     1     -42.449  28.958   2.342  1.00  0.00     0.275 HD
ATOM     24  H11 UNL     1     -43.330  27.561   1.995  1.00  0.00     0.275 HD
ENDBRANCH  17  21
ENDBRANCH  14  17
ENDBRANCH   6  13
BRANCH   7  25
HETATM   25  O13 UNL     1     -38.887  24.357   5.022  1.00  0.00    -0.357 OA
ATOM     26  H13 UNL     1     -39.245  25.098   5.496  1.00  0.00     0.217 HD
ENDBRANCH   7  25
ENDBRANCH   1   2
BRANCH   1  27
HETATM   27  C14 UNL     1     -39.077  23.231   7.527  1.00  0.00     0.050 C 
BRANCH  27  28
HETATM   28  C15 UNL     1     -39.126  23.229   8.983  1.00  0.00     0.068 A 
HETATM   29  C16 UNL     1     -39.814  22.229   9.662  1.00  0.00     0.158 A 
HETATM   30  N3  UNL     1     -39.813  22.303  11.012  1.00  0.00    -0.288 N 
HETATM   31  C17 UNL     1     -39.205  23.262  11.713  1.00  0.00     0.328 A 
ATOM     32  H3  UNL     1     -40.309  21.578  11.529  1.00  0.00     0.172 HD
HETATM   33  O5  UNL     1     -39.226  23.293  12.983  1.00  0.00    -0.247 OA
HETATM   34  N4  UNL     1     -38.533  24.248  11.065  1.00  0.00    -0.288 N 
HETATM   35  C18 UNL     1     -38.501  24.227   9.742  1.00  0.00     0.158 A 
ATOM     36  H4  UNL     1     -38.063  24.988  11.586  1.00  0.00     0.172 HD
BRANCH  29  37
HETATM   37  O4  UNL     1     -40.473  21.212   9.025  1.00  0.00    -0.345 OA
ATOM     38  H4  UNL     1     -41.105  21.360   8.331  1.00  0.00     0.219 HD
ENDBRANCH  29  37
BRANCH  35  39
HETATM   39  O6  UNL     1     -37.823  25.243   9.047  1.00  0.00    -0.345 OA
ATOM     40  H6  UNL     1     -36.875  25.256   9.102  1.00  0.00     0.219 HD
ENDBRANCH  35  39
ENDBRANCH  27  28
ENDBRANCH   1  27
BRANCH   1  41
HETATM   41  N5  UNL     1     -38.034  21.002   6.634  1.00  0.00    -0.351 N 
ATOM     42  H5  UNL     1     -37.886  20.637   5.694  1.00  0.00     0.166 HD
BRANCH  41  43
HETATM   43  C19 UNL     1     -37.214  20.420   7.636  1.00  0.00     0.099 A 
HETATM   44  C20 UNL     1     -36.207  21.061   8.288  1.00  0.00     0.134 A 
HETATM   45  C21 UNL     1     -35.551  20.452   9.388  1.00  0.00     0.074 A 
HETATM   46  C22 UNL     1     -35.904  19.207   9.820  1.00  0.00     0.107 A 
HETATM   47  C23 UNL     1     -36.904  18.545   9.171  1.00  0.00     0.074 A 
HETATM   48  C24 UNL     1     -37.547  19.150   8.088  1.00  0.00     0.134 A 
BRANCH  44  49
HETATM   49  N6  UNL     1     -35.593  22.274   7.886  1.00  0.00    -0.113 N 
HETATM   50  O7  UNL     1     -35.164  22.334   6.670  1.00  0.00    -0.532 OA
HETATM   51  O8  UNL     1     -35.411  23.412   8.571  1.00  0.00    -0.532 OA
ENDBRANCH  44  49
BRANCH  46  52
HETATM   52  N7  UNL     1     -35.247  18.597  10.951  1.00  0.00    -0.116 N 
HETATM   53  O9  UNL     1     -35.862  17.726  11.597  1.00  0.00    -0.532 OA
HETATM   54  O10 UNL     1     -33.972  18.979  11.282  1.00  0.00    -0.532 OA
ENDBRANCH  46  52
BRANCH  48  55
HETATM   55  N8  UNL     1     -38.517  18.393   7.386  1.00  0.00    -0.113 N 
HETATM   56  O11 UNL     1     -38.358  17.276   6.872  1.00  0.00    -0.532 OA
HETATM   57  O12 UNL     1     -39.806  18.911   7.329  1.00  0.00    -0.532 OA
ENDBRANCH  48  55
ENDBRANCH  41  43
ENDBRANCH   1  41
TORSDOF 17
ENDMDL
MODEL 2
REMARK VINA RESULT: -9.414432123      3.527      9.408
REMARK  17 active torsions:
REMARK  status: ('A' for Active; 'I' for Inactive)
REMARK    1  A    between atoms: C2_2  and  C3_4 
REMARK    2  A    between atoms: C3_4  and  N1_5 
REMARK    3  A    between atoms: C3_4  and  C4_9 
REMARK       I    between atoms: C4_9  and  N2_11 
REMARK    4  A    between atoms: N2_11  and  C5_13 
REMARK    5  A    between atoms: C7_15  and  C8_16 
REMARK    6  A    between atoms: C11_19  and  O3_20 
REMARK    7  A    between atoms: C12_22  and  C13_23 
REMARK    8  A    between atoms: C13_23  and  C14_24 
REMARK    9  A    between atoms: C13_23  and  N5_38 
REMARK   10  A    between atoms: C14_24  and  C15_25 
REMARK   11  A    between atoms: C16_26  and  O4_27 
REMARK   12  A    between atoms: C18_35  and  O6_36 
REMARK   13  A    between atoms: N5_38  and  C19_40 
REMARK   14  A    between atoms: C20_41  and  N6_42 
REMARK   15  A    between atoms: C22_46  and  N7_47 
REMARK   16  A    between atoms: C24_51  and  N8_52 
REMARK   17  A    between atoms: C25_55  and  O13_56 
ROOT
HETATM    1  C13 UNL     1     -36.587  21.208   8.359  1.00  0.00     0.049 C 
ENDROOT
BRANCH   1   2
HETATM    2  C12 UNL     1     -35.369  20.564   9.004  1.00  0.00     0.060 A 
HETATM    3  C11 UNL     1     -34.103  20.991   8.760  1.00  0.00     0.087 A 
HETATM    4  C7  UNL     1     -32.974  20.542   9.510  1.00  0.00    -0.018 A 
HETATM    5  C6  UNL     1     -33.180  19.638  10.515  1.00  0.00     0.043 A 
HETATM    6  C5  UNL     1     -34.431  19.174  10.800  1.00  0.00     0.070 A 
HETATM    7  C25 UNL     1     -35.543  19.636  10.041  1.00  0.00     0.107 A 
BRANCH   3   8
HETATM    8  O3  UNL     1     -33.822  21.886   7.759  1.00  0.00    -0.359 OA
ATOM      9  H3  UNL     1     -33.547  21.499   6.936  1.00  0.00     0.217 HD
ENDBRANCH   3   8
BRANCH   4  10
HETATM   10  C8  UNL     1     -31.651  21.036   9.100  1.00  0.00     0.013 C 
HETATM   11  C9  UNL     1     -31.202  22.325   9.648  1.00  0.00     0.015 C 
HETATM   12  C10 UNL     1     -30.634  19.966   9.602  1.00  0.00     0.015 C 
ENDBRANCH   4  10
BRANCH   6  13
HETATM   13  N2  UNL     1     -34.665  18.307  11.900  1.00  0.00    -0.323 N 
HETATM   14  C4  UNL     1     -35.013  18.648  13.200  1.00  0.00     0.260 C 
HETATM   15  O2  UNL     1     -35.153  19.785  13.628  1.00  0.00    -0.270 OA
ATOM     16  H2  UNL     1     -34.565  17.309  11.712  1.00  0.00     0.169 HD
BRANCH  14  17
HETATM   17  C3  UNL     1     -35.249  17.545  14.228  1.00  0.00     0.343 C 
BRANCH  17  18
HETATM   18  C2  UNL     1     -36.127  16.517  13.631  1.00  0.00     0.162 C 
HETATM   19  C1  UNL     1     -36.107  15.125  14.160  1.00  0.00     0.093 C 
HETATM   20  O1  UNL     1     -36.869  16.784  12.715  1.00  0.00    -0.296 OA
ENDBRANCH  17  18
BRANCH  17  21
HETATM   21  N1  UNL     1     -35.910  18.213  15.343  1.00  0.00    -0.060 N 
ATOM     22  H13 UNL     1     -35.300  18.902  15.784  1.00  0.00     0.275 HD
ATOM     23  H12 UNL     1     -36.647  18.842  15.023  1.00  0.00     0.275 HD
ATOM     24  H11 UNL     1     -36.262  17.534  16.018  1.00  0.00     0.275 HD
ENDBRANCH  17  21
ENDBRANCH  14  17
ENDBRANCH   6  13
BRANCH   7  25
HETATM   25  O13 UNL     1     -36.746  19.120  10.392  1.00  0.00    -0.357 OA
ATOM     26  H13 UNL     1     -37.130  18.513   9.770  1.00  0.00     0.217 HD
ENDBRANCH   7  25
ENDBRANCH   1   2
BRANCH   1  27
HETATM   27  C14 UNL     1     -36.949  20.488   7.126  1.00  0.00     0.050 C 
BRANCH  27  28
HETATM   28  C15 UNL     1     -38.326  20.175   6.770  1.00  0.00     0.068 A 
HETATM   29  C16 UNL     1     -39.187  21.179   6.338  1.00  0.00     0.158 A 
HETATM   30  N3  UNL     1     -40.448  20.803   6.031  1.00  0.00    -0.288 N 
HETATM   31  C17 UNL     1     -40.905  19.552   6.120  1.00  0.00     0.328 A 
ATOM     32  H3  UNL     1     -41.095  21.523   5.710  1.00  0.00     0.172 HD
HETATM   33  O5  UNL     1     -42.100  19.241   5.819  1.00  0.00    -0.247 OA
HETATM   34  N4  UNL     1     -40.079  18.562   6.544  1.00  0.00    -0.288 N 
HETATM   35  C18 UNL     1     -38.832  18.871   6.860  1.00  0.00     0.158 A 
ATOM     36  H4  UNL     1     -40.412  17.601   6.618  1.00  0.00     0.172 HD
BRANCH  29  37
HETATM   37  O4  UNL     1     -38.807  22.489   6.225  1.00  0.00    -0.345 OA
ATOM     38  H4  UNL     1     -38.170  22.789   5.586  1.00  0.00     0.219 HD
ENDBRANCH  29  37
BRANCH  35  39
HETATM   39  O6  UNL     1     -37.960  17.866   7.314  1.00  0.00    -0.345 OA
ATOM     40  H6  UNL     1     -37.586  17.969   8.181  1.00  0.00     0.219 HD
ENDBRANCH  35  39
ENDBRANCH  27  28
ENDBRANCH   1  27
BRANCH   1  41
HETATM   41  N5  UNL     1     -36.762  22.537   8.744  1.00  0.00    -0.351 N 
ATOM     42  H5  UNL     1     -36.679  23.215   7.987  1.00  0.00     0.166 HD
BRANCH  41  43
HETATM   43  C19 UNL     1     -37.035  23.097  10.020  1.00  0.00     0.099 A 
HETATM   44  C20 UNL     1     -38.160  22.863  10.747  1.00  0.00     0.134 A 
HETATM   45  C21 UNL     1     -38.272  23.334  12.081  1.00  0.00     0.074 A 
HETATM   46  C22 UNL     1     -37.263  24.037  12.669  1.00  0.00     0.107 A 
HETATM   47  C23 UNL     1     -36.132  24.290  11.951  1.00  0.00     0.074 A 
HETATM   48  C24 UNL     1     -36.026  23.823  10.637  1.00  0.00     0.134 A 
BRANCH  44  49
HETATM   49  N6  UNL     1     -39.369  22.305  10.259  1.00  0.00    -0.113 N 
HETATM   50  O7  UNL     1     -40.434  23.023  10.386  1.00  0.00    -0.532 OA
HETATM   51  O8  UNL     1     -39.585  21.136   9.641  1.00  0.00    -0.532 OA
ENDBRANCH  44  49
BRANCH  46  52
HETATM   52  N7  UNL     1     -37.372  24.499  14.032  1.00  0.00    -0.116 N 
HETATM   53  O9  UNL     1     -36.471  25.230  14.487  1.00  0.00    -0.532 OA
HETATM   54  O10 UNL     1     -38.458  24.134  14.787  1.00  0.00    -0.532 OA
ENDBRANCH  46  52
BRANCH  48  55
HETATM   55  N8  UNL     1     -34.874  24.185   9.896  1.00  0.00    -0.113 N 
HETATM   56  O11 UNL     1     -34.838  24.567   8.718  1.00  0.00    -0.532 OA
HETATM   57  O12 UNL     1     -33.660  24.191  10.575  1.00  0.00    -0.532 OA
ENDBRANCH  48  55
ENDBRANCH  41  43
ENDBRANCH   1  41
TORSDOF 17
ENDMDL
MODEL 3
REMARK VINA RESULT: -9.385931229      3.555      9.369
REMARK  17 active torsions:
REMARK  status: ('A' for Active; 'I' for Inactive)
REMARK    1  A    between atoms: C2_2  and  C3_4 
REMARK    2  A    between atoms: C3_4  and  N1_5 
REMARK    3  A    between atoms: C3_4  and  C4_9 
REMARK       I    between atoms: C4_9  and  N2_11 
REMARK    4  A    between atoms: N2_11  and  C5_13 
REMARK    5  A    between atoms: C7_15  and  C8_16 
REMARK    6  A    between atoms: C11_19  and  O3_20 
REMARK    7  A    between atoms: C12_22  and  C13_23 
REMARK    8  A    between atoms: C13_23  and  C14_24 
REMARK    9  A    between atoms: C13_23  and  N5_38 
REMARK   10  A    between atoms: C14_24  and  C15_25 
REMARK   11  A    between atoms: C16_26  and  O4_27 
REMARK   12  A    between atoms: C18_35  and  O6_36 
REMARK   13  A    between atoms: N5_38  and  C19_40 
REMARK   14  A    between atoms: C20_41  and  N6_42 
REMARK   15  A    between atoms: C22_46  and  N7_47 
REMARK   16  A    between atoms: C24_51  and  N8_52 
REMARK   17  A    between atoms: C25_55  and  O13_56 
ROOT
HETATM    1  C13 UNL     1     -36.543  21.269   8.393  1.00  0.00     0.049 C 
ENDROOT
BRANCH   1   2
HETATM    2  C12 UNL     1     -35.329  20.621   9.042  1.00  0.00     0.060 A 
HETATM    3  C11 UNL     1     -34.062  21.053   8.813  1.00  0.00     0.087 A 
HETATM    4  C7  UNL     1     -32.939  20.599   9.567  1.00  0.00    -0.018 A 
HETATM    5  C6  UNL     1     -33.152  19.686  10.563  1.00  0.00     0.043 A 
HETATM    6  C5  UNL     1     -34.404  19.217  10.832  1.00  0.00     0.070 A 
HETATM    7  C25 UNL     1     -35.511  19.683  10.069  1.00  0.00     0.107 A 
BRANCH   3   8
HETATM    8  O3  UNL     1     -33.774  21.958   7.823  1.00  0.00    -0.359 OA
ATOM      9  H3  UNL     1     -34.528  22.395   7.442  1.00  0.00     0.217 HD
ENDBRANCH   3   8
BRANCH   4  10
HETATM   10  C8  UNL     1     -31.613  21.099   9.174  1.00  0.00     0.013 C 
HETATM   11  C9  UNL     1     -31.116  22.314   9.837  1.00  0.00     0.015 C 
HETATM   12  C10 UNL     1     -30.614  19.958   9.536  1.00  0.00     0.015 C 
ENDBRANCH   4  10
BRANCH   6  13
HETATM   13  N2  UNL     1     -34.646  18.339  11.923  1.00  0.00    -0.323 N 
HETATM   14  C4  UNL     1     -35.016  18.667  13.221  1.00  0.00     0.260 C 
HETATM   15  O2  UNL     1     -35.172  19.799  13.655  1.00  0.00    -0.270 OA
ATOM     16  H2  UNL     1     -34.535  17.344  11.728  1.00  0.00     0.169 HD
BRANCH  14  17
HETATM   17  C3  UNL     1     -35.256  17.554  14.236  1.00  0.00     0.343 C 
BRANCH  17  18
HETATM   18  C2  UNL     1     -36.114  16.522  13.618  1.00  0.00     0.162 C 
HETATM   19  C1  UNL     1     -36.080  15.124  14.131  1.00  0.00     0.093 C 
HETATM   20  O1  UNL     1     -36.849  16.789  12.698  1.00  0.00    -0.296 OA
ENDBRANCH  17  18
BRANCH  17  21
HETATM   21  N1  UNL     1     -35.942  18.207  15.345  1.00  0.00    -0.060 N 
ATOM     22  H13 UNL     1     -36.692  18.816  15.018  1.00  0.00     0.275 HD
ATOM     23  H12 UNL     1     -36.503  17.546  15.883  1.00  0.00     0.275 HD
ATOM     24  H11 UNL     1     -35.281  18.709  15.939  1.00  0.00     0.275 HD
ENDBRANCH  17  21
ENDBRANCH  14  17
ENDBRANCH   6  13
BRANCH   7  25
HETATM   25  O13 UNL     1     -36.716  19.162  10.405  1.00  0.00    -0.357 OA
ATOM     26  H13 UNL     1     -37.390  19.795  10.623  1.00  0.00     0.217 HD
ENDBRANCH   7  25
ENDBRANCH   1   2
BRANCH   1  27
HETATM   27  C14 UNL     1     -36.898  20.556   7.154  1.00  0.00     0.050 C 
BRANCH  27  28
HETATM   28  C15 UNL     1     -38.267  20.185   6.821  1.00  0.00     0.068 A 
HETATM   29  C16 UNL     1     -38.687  18.864   6.944  1.00  0.00     0.158 A 
HETATM   30  N3  UNL     1     -39.971  18.605   6.613  1.00  0.00    -0.288 N 
HETATM   31  C17 UNL     1     -40.838  19.523   6.180  1.00  0.00     0.328 A 
ATOM     32  H3  UNL     1     -40.300  17.644   6.699  1.00  0.00     0.172 HD
HETATM   33  O5  UNL     1     -42.039  19.236   5.881  1.00  0.00    -0.247 OA
HETATM   34  N4  UNL     1     -40.442  20.815   6.050  1.00  0.00    -0.288 N 
HETATM   35  C18 UNL     1     -39.195  21.128   6.360  1.00  0.00     0.158 A 
ATOM     36  H4  UNL     1     -41.092  21.528   5.721  1.00  0.00     0.172 HD
BRANCH  29  37
HETATM   37  O4  UNL     1     -37.864  17.857   7.372  1.00  0.00    -0.345 OA
ATOM     38  H4  UNL     1     -38.107  17.248   8.059  1.00  0.00     0.219 HD
ENDBRANCH  29  37
BRANCH  35  39
HETATM   39  O6  UNL     1     -38.756  22.457   6.222  1.00  0.00    -0.345 OA
ATOM     40  H6  UNL     1     -39.401  23.108   5.972  1.00  0.00     0.219 HD
ENDBRANCH  35  39
ENDBRANCH  27  28
ENDBRANCH   1  27
BRANCH   1  41
HETATM   41  N5  UNL     1     -36.720  22.596   8.783  1.00  0.00    -0.351 N 
ATOM     42  H5  UNL     1     -36.636  23.278   8.030  1.00  0.00     0.166 HD
BRANCH  41  43
HETATM   43  C19 UNL     1     -36.996  23.151  10.061  1.00  0.00     0.099 A 
HETATM   44  C20 UNL     1     -38.122  22.913  10.785  1.00  0.00     0.134 A 
HETATM   45  C21 UNL     1     -38.237  23.378  12.121  1.00  0.00     0.074 A 
HETATM   46  C22 UNL     1     -37.230  24.080  12.714  1.00  0.00     0.107 A 
HETATM   47  C23 UNL     1     -36.098  24.337  11.999  1.00  0.00     0.074 A 
HETATM   48  C24 UNL     1     -35.989  23.876  10.683  1.00  0.00     0.134 A 
BRANCH  44  49
HETATM   49  N6  UNL     1     -39.329  22.355  10.292  1.00  0.00    -0.113 N 
HETATM   50  O7  UNL     1     -40.390  23.085  10.391  1.00  0.00    -0.532 OA
HETATM   51  O8  UNL     1     -39.548  21.177   9.694  1.00  0.00    -0.532 OA
ENDBRANCH  44  49
BRANCH  46  52
HETATM   52  N7  UNL     1     -37.343  24.536  14.078  1.00  0.00    -0.116 N 
HETATM   53  O9  UNL     1     -36.432  25.248  14.544  1.00  0.00    -0.532 OA
HETATM   54  O10 UNL     1     -38.440  24.186  14.822  1.00  0.00    -0.532 OA
ENDBRANCH  46  52
BRANCH  48  55
HETATM   55  N8  UNL     1     -34.836  24.242   9.946  1.00  0.00    -0.113 N 
HETATM   56  O11 UNL     1     -34.799  24.633   8.770  1.00  0.00    -0.532 OA
HETATM   57  O12 UNL     1     -33.623  24.241  10.626  1.00  0.00    -0.532 OA
ENDBRANCH  48  55
ENDBRANCH  41  43
ENDBRANCH   1  41
TORSDOF 17
ENDMDL
MODEL 4
REMARK VINA RESULT: -8.930398708      3.351      8.822
REMARK  17 active torsions:
REMARK  status: ('A' for Active; 'I' for Inactive)
REMARK    1  A    between atoms: C2_2  and  C3_4 
REMARK    2  A    between atoms: C3_4  and  N1_5 
REMARK    3  A    between atoms: C3_4  and  C4_9 
REMARK       I    between atoms: C4_9  and  N2_11 
REMARK    4  A    between atoms: N2_11  and  C5_13 
REMARK    5  A    between atoms: C7_15  and  C8_16 
REMARK    6  A    between atoms: C11_19  and  O3_20 
REMARK    7  A    between atoms: C12_22  and  C13_23 
REMARK    8  A    between atoms: C13_23  and  C14_24 
REMARK    9  A    between atoms: C13_23  and  N5_38 
REMARK   10  A    between atoms: C14_24  and  C15_25 
REMARK   11  A    between atoms: C16_26  and  O4_27 
REMARK   12  A    between atoms: C18_35  and  O6_36 
REMARK   13  A    between atoms: N5_38  and  C19_40 
REMARK   14  A    between atoms: C20_41  and  N6_42 
REMARK   15  A    between atoms: C22_46  and  N7_47 
REMARK   16  A    between atoms: C24_51  and  N8_52 
REMARK   17  A    between atoms: C25_55  and  O13_56 
ROOT
HETATM    1  C13 UNL     1     -36.906  21.807   8.115  1.00  0.00     0.049 C 
ENDROOT
BRANCH   1   2
HETATM    2  C12 UNL     1     -35.596  21.142   8.510  1.00  0.00     0.060 A 
HETATM    3  C11 UNL     1     -34.388  21.610   8.103  1.00  0.00     0.087 A 
HETATM    4  C7  UNL     1     -33.152  21.131   8.630  1.00  0.00    -0.018 A 
HETATM    5  C6  UNL     1     -33.189  20.155   9.587  1.00  0.00     0.043 A 
HETATM    6  C5  UNL     1     -34.375  19.647  10.030  1.00  0.00     0.070 A 
HETATM    7  C25 UNL     1     -35.597  20.140   9.491  1.00  0.00     0.107 A 
BRANCH   3   8
HETATM    8  O3  UNL     1     -34.276  22.579   7.138  1.00  0.00    -0.359 OA
ATOM      9  H3  UNL     1     -33.448  23.045   7.126  1.00  0.00     0.217 HD
ENDBRANCH   3   8
BRANCH   4  10
HETATM   10  C8  UNL     1     -31.914  21.678   8.054  1.00  0.00     0.013 C 
HETATM   11  C9  UNL     1     -31.818  23.137   7.901  1.00  0.00     0.015 C 
HETATM   12  C10 UNL     1     -30.779  21.262   9.039  1.00  0.00     0.015 C 
ENDBRANCH   4  10
BRANCH   6  13
HETATM   13  N2  UNL     1     -34.425  18.700  11.087  1.00  0.00    -0.323 N 
HETATM   14  C4  UNL     1     -34.600  18.939  12.444  1.00  0.00     0.260 C 
HETATM   15  O2  UNL     1     -34.717  20.038  12.967  1.00  0.00    -0.270 OA
ATOM     16  H2  UNL     1     -34.319  17.722  10.816  1.00  0.00     0.169 HD
BRANCH  14  17
HETATM   17  C3  UNL     1     -34.655  17.762  13.412  1.00  0.00     0.343 C 
BRANCH  17  18
HETATM   18  C2  UNL     1     -35.874  16.974  13.138  1.00  0.00     0.162 C 
HETATM   19  C1  UNL     1     -36.334  15.951  14.118  1.00  0.00     0.093 C 
HETATM   20  O1  UNL     1     -36.513  17.142  12.126  1.00  0.00    -0.296 OA
ENDBRANCH  17  18
BRANCH  17  21
HETATM   21  N1  UNL     1     -34.714  18.372  14.735  1.00  0.00    -0.060 N 
ATOM     22  H13 UNL     1     -33.786  18.474  15.145  1.00  0.00     0.275 HD
ATOM     23  H12 UNL     1     -34.970  19.359  14.684  1.00  0.00     0.275 HD
ATOM     24  H11 UNL     1     -35.342  17.853  15.349  1.00  0.00     0.275 HD
ENDBRANCH  17  21
ENDBRANCH  14  17
ENDBRANCH   6  13
BRANCH   7  25
HETATM   25  O13 UNL     1     -36.725  19.577   9.989  1.00  0.00    -0.357 OA
ATOM     26  H13 UNL     1     -37.466  20.163  10.087  1.00  0.00     0.217 HD
ENDBRANCH   7  25
ENDBRANCH   1   2
BRANCH   1  27
HETATM   27  C14 UNL     1     -37.359  21.299   6.808  1.00  0.00     0.050 C 
BRANCH  27  28
HETATM   28  C15 UNL     1     -38.671  20.700   6.605  1.00  0.00     0.068 A 
HETATM   29  C16 UNL     1     -38.870  19.343   6.843  1.00  0.00     0.158 A 
HETATM   30  N3  UNL     1     -40.116  18.868   6.628  1.00  0.00    -0.288 N 
HETATM   31  C17 UNL     1     -41.143  19.609   6.207  1.00  0.00     0.328 A 
ATOM     32  H3  UNL     1     -40.284  17.877   6.799  1.00  0.00     0.172 HD
HETATM   33  O5  UNL     1     -42.302  19.122   6.020  1.00  0.00    -0.247 OA
HETATM   34  N4  UNL     1     -40.965  20.933   5.966  1.00  0.00    -0.288 N 
HETATM   35  C18 UNL     1     -39.765  21.455   6.159  1.00  0.00     0.158 A 
ATOM     36  H4  UNL     1     -41.739  21.513   5.645  1.00  0.00     0.172 HD
BRANCH  29  37
HETATM   37  O4  UNL     1     -37.872  18.507   7.268  1.00  0.00    -0.345 OA
ATOM     38  H4  UNL     1     -37.192  18.780   7.873  1.00  0.00     0.219 HD
ENDBRANCH  29  37
BRANCH  35  39
HETATM   39  O6  UNL     1     -39.550  22.821   5.905  1.00  0.00    -0.345 OA
ATOM     40  H6  UNL     1     -38.836  23.246   6.365  1.00  0.00     0.219 HD
ENDBRANCH  35  39
ENDBRANCH  27  28
ENDBRANCH   1  27
BRANCH   1  41
HETATM   41  N5  UNL     1     -37.106  23.029   8.755  1.00  0.00    -0.351 N 
ATOM     42  H5  UNL     1     -37.320  23.808   8.133  1.00  0.00     0.166 HD
BRANCH  41  43
HETATM   43  C19 UNL     1     -37.060  23.363  10.134  1.00  0.00     0.099 A 
HETATM   44  C20 UNL     1     -36.044  24.035  10.739  1.00  0.00     0.134 A 
HETATM   45  C21 UNL     1     -36.161  24.469  12.085  1.00  0.00     0.074 A 
HETATM   46  C22 UNL     1     -37.287  24.221  12.812  1.00  0.00     0.107 A 
HETATM   47  C23 UNL     1     -38.312  23.539  12.225  1.00  0.00     0.074 A 
HETATM   48  C24 UNL     1     -38.192  23.114  10.898  1.00  0.00     0.134 A 
BRANCH  44  49
HETATM   49  N6  UNL     1     -34.745  24.237  10.208  1.00  0.00    -0.113 N 
HETATM   50  O7  UNL     1     -34.669  24.858   9.079  1.00  0.00    -0.532 OA
HETATM   51  O8  UNL     1     -33.550  23.910  10.717  1.00  0.00    -0.532 OA
ENDBRANCH  44  49
BRANCH  46  52
HETATM   52  N7  UNL     1     -37.410  24.679  14.175  1.00  0.00    -0.116 N 
HETATM   53  O9  UNL     1     -38.399  24.312  14.839  1.00  0.00    -0.532 OA
HETATM   54  O10 UNL     1     -36.443  25.493  14.707  1.00  0.00    -0.532 OA
ENDBRANCH  46  52
BRANCH  48  55
HETATM   55  N8  UNL     1     -39.241  22.331  10.356  1.00  0.00    -0.113 N 
HETATM   56  O11 UNL     1     -39.158  21.169   9.934  1.00  0.00    -0.532 OA
HETATM   57  O12 UNL     1     -40.516  22.885  10.366  1.00  0.00    -0.532 OA
ENDBRANCH  48  55
ENDBRANCH  41  43
ENDBRANCH   1  41
TORSDOF 17
ENDMDL
MODEL 5
REMARK VINA RESULT: -8.919407928      3.338      8.862
REMARK  17 active torsions:
REMARK  status: ('A' for Active; 'I' for Inactive)
REMARK    1  A    between atoms: C2_2  and  C3_4 
REMARK    2  A    between atoms: C3_4  and  N1_5 
REMARK    3  A    between atoms: C3_4  and  C4_9 
REMARK       I    between atoms: C4_9  and  N2_11 
REMARK    4  A    between atoms: N2_11  and  C5_13 
REMARK    5  A    between atoms: C7_15  and  C8_16 
REMARK    6  A    between atoms: C11_19  and  O3_20 
REMARK    7  A    between atoms: C12_22  and  C13_23 
REMARK    8  A    between atoms: C13_23  and  C14_24 
REMARK    9  A    between atoms: C13_23  and  N5_38 
REMARK   10  A    between atoms: C14_24  and  C15_25 
REMARK   11  A    between atoms: C16_26  and  O4_27 
REMARK   12  A    between atoms: C18_35  and  O6_36 
REMARK   13  A    between atoms: N5_38  and  C19_40 
REMARK   14  A    between atoms: C20_41  and  N6_42 
REMARK   15  A    between atoms: C22_46  and  N7_47 
REMARK   16  A    between atoms: C24_51  and  N8_52 
REMARK   17  A    between atoms: C25_55  and  O13_56 
ROOT
HETATM    1  C13 UNL     1     -36.905  21.805   8.103  1.00  0.00     0.049 C 
ENDROOT
BRANCH   1   2
HETATM    2  C12 UNL     1     -35.596  21.140   8.500  1.00  0.00     0.060 A 
HETATM    3  C11 UNL     1     -34.387  21.608   8.093  1.00  0.00     0.087 A 
HETATM    4  C7  UNL     1     -33.151  21.129   8.622  1.00  0.00    -0.018 A 
HETATM    5  C6  UNL     1     -33.189  20.154   9.579  1.00  0.00     0.043 A 
HETATM    6  C5  UNL     1     -34.376  19.647  10.022  1.00  0.00     0.070 A 
HETATM    7  C25 UNL     1     -35.597  20.139   9.482  1.00  0.00     0.107 A 
BRANCH   3   8
HETATM    8  O3  UNL     1     -34.275  22.576   7.127  1.00  0.00    -0.359 OA
ATOM      9  H3  UNL     1     -34.223  22.254   6.235  1.00  0.00     0.217 HD
ENDBRANCH   3   8
BRANCH   4  10
HETATM   10  C8  UNL     1     -31.913  21.675   8.047  1.00  0.00     0.013 C 
HETATM   11  C9  UNL     1     -31.838  23.130   7.841  1.00  0.00     0.015 C 
HETATM   12  C10 UNL     1     -30.788  21.316   9.064  1.00  0.00     0.015 C 
ENDBRANCH   4  10
BRANCH   6  13
HETATM   13  N2  UNL     1     -34.427  18.700  11.080  1.00  0.00    -0.323 N 
HETATM   14  C4  UNL     1     -34.603  18.941  12.436  1.00  0.00     0.260 C 
HETATM   15  O2  UNL     1     -34.719  20.040  12.958  1.00  0.00    -0.270 OA
ATOM     16  H2  UNL     1     -34.321  17.722  10.810  1.00  0.00     0.169 HD
BRANCH  14  17
HETATM   17  C3  UNL     1     -34.658  17.764  13.405  1.00  0.00     0.343 C 
BRANCH  17  18
HETATM   18  C2  UNL     1     -35.876  16.975  13.130  1.00  0.00     0.162 C 
HETATM   19  C1  UNL     1     -36.341  15.957  14.112  1.00  0.00     0.093 C 
HETATM   20  O1  UNL     1     -36.511  17.139  12.114  1.00  0.00    -0.296 OA
ENDBRANCH  17  18
BRANCH  17  21
HETATM   21  N1  UNL     1     -34.721  18.376  14.728  1.00  0.00    -0.060 N 
ATOM     22  H13 UNL     1     -35.478  19.056  14.792  1.00  0.00     0.275 HD
ATOM     23  H12 UNL     1     -35.045  17.715  15.434  1.00  0.00     0.275 HD
ATOM     24  H11 UNL     1     -33.822  18.787  14.983  1.00  0.00     0.275 HD
ENDBRANCH  17  21
ENDBRANCH  14  17
ENDBRANCH   6  13
BRANCH   7  25
HETATM   25  O13 UNL     1     -36.726  19.577   9.979  1.00  0.00    -0.357 OA
ATOM     26  H13 UNL     1     -37.528  19.791   9.518  1.00  0.00     0.217 HD
ENDBRANCH   7  25
ENDBRANCH   1   2
BRANCH   1  27
HETATM   27  C14 UNL     1     -37.358  21.294   6.797  1.00  0.00     0.050 C 
BRANCH  27  28
HETATM   28  C15 UNL     1     -38.683  20.727   6.587  1.00  0.00     0.068 A 
HETATM   29  C16 UNL     1     -39.737  21.535   6.175  1.00  0.00     0.158 A 
HETATM   30  N3  UNL     1     -40.933  20.930   6.007  1.00  0.00    -0.288 N 
HETATM   31  C17 UNL     1     -41.156  19.630   6.213  1.00  0.00     0.328 A 
ATOM     32  H3  UNL     1     -41.719  21.504   5.702  1.00  0.00     0.172 HD
HETATM   33  O5  UNL     1     -42.298  19.100   6.041  1.00  0.00    -0.247 OA
HETATM   34  N4  UNL     1     -40.139  18.829   6.620  1.00  0.00    -0.288 N 
HETATM   35  C18 UNL     1     -38.944  19.367   6.802  1.00  0.00     0.158 A 
ATOM     36  H4  UNL     1     -40.293  17.834   6.782  1.00  0.00     0.172 HD
BRANCH  29  37
HETATM   37  O4  UNL     1     -39.602  22.879   5.948  1.00  0.00    -0.345 OA
ATOM     38  H4  UNL     1     -39.054  23.441   6.483  1.00  0.00     0.219 HD
ENDBRANCH  29  37
BRANCH  35  39
HETATM   39  O6  UNL     1     -37.877  18.561   7.236  1.00  0.00    -0.345 OA
ATOM     40  H6  UNL     1     -37.420  18.826   8.025  1.00  0.00     0.219 HD
ENDBRANCH  35  39
ENDBRANCH  27  28
ENDBRANCH   1  27
BRANCH   1  41
HETATM   41  N5  UNL     1     -37.105  23.029   8.741  1.00  0.00    -0.351 N 
ATOM     42  H5  UNL     1     -37.320  23.806   8.117  1.00  0.00     0.166 HD
BRANCH  41  43
HETATM   43  C19 UNL     1     -37.056  23.366  10.119  1.00  0.00     0.099 A 
HETATM   44  C20 UNL     1     -36.042  24.044  10.719  1.00  0.00     0.134 A 
HETATM   45  C21 UNL     1     -36.156  24.480  12.064  1.00  0.00     0.074 A 
HETATM   46  C22 UNL     1     -37.279  24.229  12.795  1.00  0.00     0.107 A 
HETATM   47  C23 UNL     1     -38.303  23.541  12.213  1.00  0.00     0.074 A 
HETATM   48  C24 UNL     1     -38.185  23.114  10.886  1.00  0.00     0.134 A 
BRANCH  44  49
HETATM   49  N6  UNL     1     -34.745  24.250  10.184  1.00  0.00    -0.113 N 
HETATM   50  O7  UNL     1     -34.674  24.873   9.055  1.00  0.00    -0.532 OA
HETATM   51  O8  UNL     1     -33.547  23.926  10.689  1.00  0.00    -0.532 OA
ENDBRANCH  44  49
BRANCH  46  52
HETATM   52  N7  UNL     1     -37.401  24.689  14.158  1.00  0.00    -0.116 N 
HETATM   53  O9  UNL     1     -38.402  24.345  14.815  1.00  0.00    -0.532 OA
HETATM   54  O10 UNL     1     -36.419  25.481  14.695  1.00  0.00    -0.532 OA
ENDBRANCH  46  52
BRANCH  48  55
HETATM   55  N8  UNL     1     -39.232  22.325  10.349  1.00  0.00    -0.113 N 
HETATM   56  O11 UNL     1     -39.144  21.163   9.926  1.00  0.00    -0.532 OA
HETATM   57  O12 UNL     1     -40.510  22.872  10.366  1.00  0.00    -0.532 OA
ENDBRANCH  48  55
ENDBRANCH  41  43
ENDBRANCH   1  41
TORSDOF 17
ENDMDL
