MODEL 1
REMARK VINA RESULT: -8.563643336      0.000      0.000
REMARK  16 active torsions:
REMARK  status: ('A' for Active; 'I' for Inactive)
REMARK    1  A    between atoms: C2_2  and  O1_3 
REMARK    2  A    between atoms: O1_3  and  C3_4 
REMARK    3  A    between atoms: C3_4  and  C4_6 
REMARK    4  A    between atoms: C4_6  and  N1_7 
REMARK    5  A    between atoms: C5_8  and  S1_9 
REMARK    6  A    between atoms: S1_9  and  C6_10 
REMARK    7  A    between atoms: C6_10  and  C7_11 
REMARK    8  A    between atoms: C9_13  and  C10_14 
REMARK    9  A    between atoms: C10_14  and  C11_15 
REMARK   10  A    between atoms: C13_20  and  N4_21 
REMARK   11  A    between atoms: N6_28  and  N7_29 
REMARK   12  A    between atoms: C16_36  and  C17_37 
REMARK       I    between atoms: C17_37  and  N9_39 
REMARK   13  A    between atoms: C19_43  and  S4_44 
REMARK   14  A    between atoms: S4_44  and  C20_45 
REMARK   15  A    between atoms: C20_45  and  C21_46 
REMARK   16  A    between atoms: N12_48  and  O4_50 
ROOT
HETATM    1  C17 UNL     1     -40.103  24.037   4.136  1.00  0.00     0.283 C 
HETATM    2  O3  UNL     1     -39.120  24.204   3.326  1.00  0.00    -0.265 OA
HETATM    3  N9  UNL     1     -41.253  24.836   3.984  1.00  0.00    -0.258 N 
ATOM      4  H9  UNL     1     -42.056  24.736   4.605  1.00  0.00     0.181 HD
HETATM    5  C18 UNL     1     -41.246  25.794   2.923  1.00  0.00     0.184 C 
HETATM    6  N10 UNL     1     -41.241  26.558   2.061  1.00  0.00    -0.172 NA
ENDROOT
BRANCH   1   7
HETATM    7  C16 UNL     1     -40.012  23.039   5.179  1.00  0.00     0.137 A 
HETATM    8  N8  UNL     1     -39.501  23.336   6.399  1.00  0.00    -0.330 N 
HETATM    9  C5  UNL     1     -39.525  22.249   7.161  1.00  0.00     0.148 A 
ATOM     10  H8  UNL     1     -39.153  24.251   6.687  1.00  0.00     0.168 HD
HETATM   11  N1  UNL     1     -40.058  21.253   6.407  1.00  0.00    -0.310 N 
HETATM   12  C19 UNL     1     -40.370  21.726   5.167  1.00  0.00     0.107 A 
BRANCH   9  13
HETATM   13  S1  UNL     1     -38.965  22.130   8.853  1.00  0.00    -0.089 SA
BRANCH  13  14
HETATM   14  C6  UNL     1     -37.503  23.118   9.128  1.00  0.00     0.124 C 
BRANCH  14  15
HETATM   15  C7  UNL     1     -36.662  22.585  10.214  1.00  0.00    -0.010 A 
HETATM   16  C8  UNL     1     -35.859  21.490  10.237  1.00  0.00     0.038 A 
HETATM   17  C9  UNL     1     -35.275  21.331  11.514  1.00  0.00     0.039 A 
HETATM   18  N6  UNL     1     -35.744  22.337  12.233  1.00  0.00    -0.259 N 
HETATM   19  C15 UNL     1     -36.582  23.117  11.495  1.00  0.00     0.110 A 
HETATM   20  S3  UNL     1     -37.459  24.581  12.006  1.00  0.00    -0.030 SA
BRANCH  17  21
HETATM   21  C10 UNL     1     -34.369  20.216  11.859  1.00  0.00     0.104 C 
BRANCH  21  22
HETATM   22  C11 UNL     1     -34.943  19.113  12.638  1.00  0.00     0.028 A 
HETATM   23  C12 UNL     1     -34.941  19.092  14.007  1.00  0.00     0.141 A 
HETATM   24  N2  UNL     1     -34.214  20.034  14.783  1.00  0.00    -0.081 NA
HETATM   25  N3  UNL     1     -35.573  18.093  14.666  1.00  0.00    -0.178 N 
HETATM   26  C13 UNL     1     -36.194  17.131  13.950  1.00  0.00     0.678 A 
ATOM     27  H3  UNL     1     -35.581  18.067  15.686  1.00  0.00     0.185 HD
HETATM   28  N5  UNL     1     -36.201  17.137  12.620  1.00  0.00    -0.181 N 
HETATM   29  C14 UNL     1     -35.591  18.103  11.910  1.00  0.00     0.126 A 
ATOM     30  H5  UNL     1     -36.683  16.386  12.124  1.00  0.00     0.185 HD
HETATM   31  S2  UNL     1     -35.591  18.104  10.280  1.00  0.00    -0.059 SA
BRANCH  26  32
HETATM   32  N4  UNL     1     -36.802  16.175  14.576  1.00  0.00    -0.234 N 
ATOM     33  H42 UNL     1     -37.774  16.307  14.855  1.00  0.00     0.174 HD
ATOM     34  H41 UNL     1     -36.295  15.313  14.775  1.00  0.00     0.174 HD
ENDBRANCH  26  32
ENDBRANCH  21  22
ENDBRANCH  17  21
BRANCH  18  35
HETATM   35  N7  UNL     1     -35.512  22.696  13.580  1.00  0.00    -0.338 N 
ATOM     36  H72 UNL     1     -35.030  22.026  14.181  1.00  0.00     0.177 HD
ATOM     37  H71 UNL     1     -35.748  23.545  14.094  1.00  0.00     0.177 HD
ENDBRANCH  18  35
ENDBRANCH  14  15
ENDBRANCH  13  14
ENDBRANCH   9  13
BRANCH  11  38
HETATM   38  C4  UNL     1     -40.239  19.909   6.888  1.00  0.00     0.243 C 
BRANCH  38  39
HETATM   39  C3  UNL     1     -39.070  19.051   6.712  1.00  0.00     0.277 C 
HETATM   40  O2  UNL     1     -39.122  17.834   7.008  1.00  0.00    -0.263 OA
BRANCH  39  41
HETATM   41  O1  UNL     1     -37.880  19.540   6.221  1.00  0.00    -0.321 OA
BRANCH  41  42
HETATM   42  C2  UNL     1     -36.812  19.994   6.992  1.00  0.00     0.174 C 
HETATM   43  C1  UNL     1     -36.030  21.107   6.398  1.00  0.00     0.034 C 
ENDBRANCH  41  42
ENDBRANCH  39  41
ENDBRANCH  38  39
ENDBRANCH  11  38
BRANCH  12  44
HETATM   44  S4  UNL     1     -41.089  20.690   3.920  1.00  0.00    -0.102 SA
BRANCH  44  45
HETATM   45  C20 UNL     1     -42.521  19.788   4.486  1.00  0.00     0.155 C 
BRANCH  45  46
HETATM   46  C21 UNL     1     -43.742  20.037   3.739  1.00  0.00     0.122 C 
HETATM   47  N11 UNL     1     -43.913  21.040   2.747  1.00  0.00    -0.085 NA
HETATM   48  N12 UNL     1     -44.796  19.302   3.966  1.00  0.00    -0.259 N 
ATOM     49  H12 UNL     1     -45.660  19.465   3.449  1.00  0.00     0.195 HD
BRANCH  48  50
HETATM   50  O4  UNL     1     -44.728  18.314   4.901  1.00  0.00    -0.289 OA
ATOM     51  H4  UNL     1     -45.531  17.981   5.283  1.00  0.00     0.244 HD
ENDBRANCH  48  50
ENDBRANCH  45  46
ENDBRANCH  44  45
ENDBRANCH  12  44
ENDBRANCH   1   7
TORSDOF 16
ENDMDL
MODEL 2
REMARK VINA RESULT: -8.543583407      2.256      3.883
REMARK  16 active torsions:
REMARK  status: ('A' for Active; 'I' for Inactive)
REMARK    1  A    between atoms: C2_2  and  O1_3 
REMARK    2  A    between atoms: O1_3  and  C3_4 
REMARK    3  A    between atoms: C3_4  and  C4_6 
REMARK    4  A    between atoms: C4_6  and  N1_7 
REMARK    5  A    between atoms: C5_8  and  S1_9 
REMARK    6  A    between atoms: S1_9  and  C6_10 
REMARK    7  A    between atoms: C6_10  and  C7_11 
REMARK    8  A    between atoms: C9_13  and  C10_14 
REMARK    9  A    between atoms: C10_14  and  C11_15 
REMARK   10  A    between atoms: C13_20  and  N4_21 
REMARK   11  A    between atoms: N6_28  and  N7_29 
REMARK   12  A    between atoms: C16_36  and  C17_37 
REMARK       I    between atoms: C17_37  and  N9_39 
REMARK   13  A    between atoms: C19_43  and  S4_44 
REMARK   14  A    between atoms: S4_44  and  C20_45 
REMARK   15  A    between atoms: C20_45  and  C21_46 
REMARK   16  A    between atoms: N12_48  and  O4_50 
ROOT
HETATM    1  C17 UNL     1     -40.138  24.144   4.073  1.00  0.00     0.283 C 
HETATM    2  O3  UNL     1     -39.173  24.267   3.233  1.00  0.00    -0.265 OA
HETATM    3  N9  UNL     1     -41.286  24.945   3.914  1.00  0.00    -0.258 N 
ATOM      4  H9  UNL     1     -42.074  24.878   4.557  1.00  0.00     0.181 HD
HETATM    5  C18 UNL     1     -41.297  25.856   2.812  1.00  0.00     0.184 C 
HETATM    6  N10 UNL     1     -41.307  26.582   1.919  1.00  0.00    -0.172 NA
ENDROOT
BRANCH   1   7
HETATM    7  C16 UNL     1     -40.029  23.190   5.155  1.00  0.00     0.137 A 
HETATM    8  N8  UNL     1     -39.487  23.536   6.350  1.00  0.00    -0.330 N 
HETATM    9  C5  UNL     1     -39.501  22.482   7.158  1.00  0.00     0.148 A 
ATOM     10  H8  UNL     1     -39.127  24.460   6.590  1.00  0.00     0.168 HD
HETATM   11  N1  UNL     1     -40.058  21.459   6.460  1.00  0.00    -0.310 N 
HETATM   12  C19 UNL     1     -40.396  21.881   5.209  1.00  0.00     0.107 A 
BRANCH   9  13
HETATM   13  S1  UNL     1     -38.902  22.433   8.840  1.00  0.00    -0.089 SA
BRANCH  13  14
HETATM   14  C6  UNL     1     -37.175  22.873   8.932  1.00  0.00     0.124 C 
BRANCH  14  15
HETATM   15  C7  UNL     1     -36.575  22.522  10.231  1.00  0.00    -0.010 A 
HETATM   16  C8  UNL     1     -37.088  22.625  11.485  1.00  0.00     0.038 A 
HETATM   17  C9  UNL     1     -36.135  22.214  12.445  1.00  0.00     0.039 A 
HETATM   18  N6  UNL     1     -35.067  21.874  11.744  1.00  0.00    -0.259 N 
HETATM   19  C15 UNL     1     -35.283  22.042  10.409  1.00  0.00     0.110 A 
HETATM   20  S3  UNL     1     -34.159  21.725   9.063  1.00  0.00    -0.030 SA
BRANCH  17  21
HETATM   21  C10 UNL     1     -36.390  22.234  13.900  1.00  0.00     0.104 C 
BRANCH  21  22
HETATM   22  C11 UNL     1     -36.779  23.521  14.487  1.00  0.00     0.028 A 
HETATM   23  C12 UNL     1     -38.086  23.891  14.664  1.00  0.00     0.141 A 
HETATM   24  N2  UNL     1     -39.169  23.151  14.116  1.00  0.00    -0.081 NA
HETATM   25  N3  UNL     1     -38.378  25.048  15.301  1.00  0.00    -0.178 N 
HETATM   26  C13 UNL     1     -37.363  25.818  15.750  1.00  0.00     0.678 A 
ATOM     27  H3  UNL     1     -39.347  25.334  15.440  1.00  0.00     0.185 HD
HETATM   28  N5  UNL     1     -36.090  25.474  15.583  1.00  0.00    -0.181 N 
HETATM   29  C14 UNL     1     -35.738  24.335  14.958  1.00  0.00     0.126 A 
ATOM     30  H5  UNL     1     -35.359  26.090  15.939  1.00  0.00     0.185 HD
HETATM   31  S2  UNL     1     -34.177  23.918  14.744  1.00  0.00    -0.059 SA
BRANCH  26  32
HETATM   32  N4  UNL     1     -37.637  26.925  16.362  1.00  0.00    -0.234 N 
ATOM     33  H42 UNL     1     -38.211  27.623  15.888  1.00  0.00     0.174 HD
ATOM     34  H41 UNL     1     -37.273  27.074  17.304  1.00  0.00     0.174 HD
ENDBRANCH  26  32
ENDBRANCH  21  22
ENDBRANCH  17  21
BRANCH  18  35
HETATM   35  N7  UNL     1     -33.806  21.388  12.160  1.00  0.00    -0.338 N 
ATOM     36  H72 UNL     1     -33.756  20.865  13.035  1.00  0.00     0.177 HD
ATOM     37  H71 UNL     1     -32.886  21.467  11.727  1.00  0.00     0.177 HD
ENDBRANCH  18  35
ENDBRANCH  14  15
ENDBRANCH  13  14
ENDBRANCH   9  13
BRANCH  11  38
HETATM   38  C4  UNL     1     -40.236  20.139   7.003  1.00  0.00     0.243 C 
BRANCH  38  39
HETATM   39  C3  UNL     1     -39.030  19.316   6.975  1.00  0.00     0.277 C 
HETATM   40  O2  UNL     1     -38.574  18.888   5.888  1.00  0.00    -0.263 OA
BRANCH  39  41
HETATM   41  O1  UNL     1     -38.356  18.979   8.128  1.00  0.00    -0.321 OA
BRANCH  41  42
HETATM   42  C2  UNL     1     -36.998  19.188   8.361  1.00  0.00     0.174 C 
HETATM   43  C1  UNL     1     -36.481  18.625   9.634  1.00  0.00     0.034 C 
ENDBRANCH  41  42
ENDBRANCH  39  41
ENDBRANCH  38  39
ENDBRANCH  11  38
BRANCH  12  44
HETATM   44  S4  UNL     1     -41.150  20.798   4.024  1.00  0.00    -0.102 SA
BRANCH  44  45
HETATM   45  C20 UNL     1     -42.601  19.966   4.647  1.00  0.00     0.155 C 
BRANCH  45  46
HETATM   46  C21 UNL     1     -43.784  20.079   3.811  1.00  0.00     0.122 C 
HETATM   47  N11 UNL     1     -43.960  21.008   2.750  1.00  0.00    -0.085 NA
HETATM   48  N12 UNL     1     -44.796  19.281   4.016  1.00  0.00    -0.259 N 
ATOM     49  H12 UNL     1     -45.632  19.348   3.437  1.00  0.00     0.195 HD
BRANCH  48  50
HETATM   50  O4  UNL     1     -44.720  18.356   5.013  1.00  0.00    -0.289 OA
ATOM     51  H4  UNL     1     -45.506  17.893   5.277  1.00  0.00     0.244 HD
ENDBRANCH  48  50
ENDBRANCH  45  46
ENDBRANCH  44  45
ENDBRANCH  12  44
ENDBRANCH   1   7
TORSDOF 16
ENDMDL
MODEL 3
REMARK VINA RESULT: -8.442379583      3.156      4.317
REMARK  16 active torsions:
REMARK  status: ('A' for Active; 'I' for Inactive)
REMARK    1  A    between atoms: C2_2  and  O1_3 
REMARK    2  A    between atoms: O1_3  and  C3_4 
REMARK    3  A    between atoms: C3_4  and  C4_6 
REMARK    4  A    between atoms: C4_6  and  N1_7 
REMARK    5  A    between atoms: C5_8  and  S1_9 
REMARK    6  A    between atoms: S1_9  and  C6_10 
REMARK    7  A    between atoms: C6_10  and  C7_11 
REMARK    8  A    between atoms: C9_13  and  C10_14 
REMARK    9  A    between atoms: C10_14  and  C11_15 
REMARK   10  A    between atoms: C13_20  and  N4_21 
REMARK   11  A    between atoms: N6_28  and  N7_29 
REMARK   12  A    between atoms: C16_36  and  C17_37 
REMARK       I    between atoms: C17_37  and  N9_39 
REMARK   13  A    between atoms: C19_43  and  S4_44 
REMARK   14  A    between atoms: S4_44  and  C20_45 
REMARK   15  A    between atoms: C20_45  and  C21_46 
REMARK   16  A    between atoms: N12_48  and  O4_50 
ROOT
HETATM    1  C17 UNL     1     -40.239  24.262   3.827  1.00  0.00     0.283 C 
HETATM    2  O3  UNL     1     -39.129  24.547   3.247  1.00  0.00    -0.265 OA
HETATM    3  N9  UNL     1     -41.349  25.107   3.626  1.00  0.00    -0.258 N 
ATOM      4  H9  UNL     1     -42.249  24.916   4.066  1.00  0.00     0.181 HD
HETATM    5  C18 UNL     1     -41.158  26.242   2.779  1.00  0.00     0.184 C 
HETATM    6  N10 UNL     1     -41.005  27.151   2.088  1.00  0.00    -0.172 NA
ENDROOT
BRANCH   1   7
HETATM    7  C16 UNL     1     -40.329  23.087   4.666  1.00  0.00     0.137 A 
HETATM    8  N8  UNL     1     -39.814  23.073   5.921  1.00  0.00    -0.330 N 
HETATM    9  C5  UNL     1     -40.024  21.881   6.466  1.00  0.00     0.148 A 
ATOM     10  H8  UNL     1     -39.341  23.856   6.373  1.00  0.00     0.168 HD
HETATM   11  N1  UNL     1     -40.678  21.135   5.540  1.00  0.00    -0.310 N 
HETATM   12  C19 UNL     1     -40.881  21.870   4.410  1.00  0.00     0.107 A 
BRANCH   9  13
HETATM   13  S1  UNL     1     -39.537  21.370   8.107  1.00  0.00    -0.089 SA
BRANCH  13  14
HETATM   14  C6  UNL     1     -37.872  20.726   8.124  1.00  0.00     0.124 C 
BRANCH  14  15
HETATM   15  C7  UNL     1     -36.873  21.762   8.442  1.00  0.00    -0.010 A 
HETATM   16  C8  UNL     1     -36.864  22.688   9.436  1.00  0.00     0.038 A 
HETATM   17  C9  UNL     1     -35.723  23.516   9.330  1.00  0.00     0.039 A 
HETATM   18  N6  UNL     1     -35.071  23.068   8.271  1.00  0.00    -0.259 N 
HETATM   19  C15 UNL     1     -35.724  22.015   7.703  1.00  0.00     0.110 A 
HETATM   20  S3  UNL     1     -35.253  21.072   6.267  1.00  0.00    -0.030 SA
BRANCH  17  21
HETATM   21  C10 UNL     1     -35.444  24.634  10.255  1.00  0.00     0.104 C 
BRANCH  21  22
HETATM   22  C11 UNL     1     -35.513  24.339  11.691  1.00  0.00     0.028 A 
HETATM   23  C12 UNL     1     -36.675  24.419  12.409  1.00  0.00     0.141 A 
HETATM   24  N2  UNL     1     -37.866  24.980  11.874  1.00  0.00    -0.081 NA
HETATM   25  N3  UNL     1     -36.692  24.039  13.708  1.00  0.00    -0.178 N 
HETATM   26  C13 UNL     1     -35.548  23.589  14.269  1.00  0.00     0.678 A 
ATOM     27  H3  UNL     1     -37.552  24.092  14.254  1.00  0.00     0.185 HD
HETATM   28  N5  UNL     1     -34.411  23.510  13.585  1.00  0.00    -0.181 N 
HETATM   29  C14 UNL     1     -34.334  23.872  12.291  1.00  0.00     0.126 A 
ATOM     30  H5  UNL     1     -33.574  23.164  14.054  1.00  0.00     0.185 HD
HETATM   31  S2  UNL     1     -32.937  23.784  11.455  1.00  0.00    -0.059 SA
BRANCH  26  32
HETATM   32  N4  UNL     1     -35.559  23.223  15.511  1.00  0.00    -0.234 N 
ATOM     33  H42 UNL     1     -36.382  23.427  16.078  1.00  0.00     0.174 HD
ATOM     34  H41 UNL     1     -34.746  22.740  15.892  1.00  0.00     0.174 HD
ENDBRANCH  26  32
ENDBRANCH  21  22
ENDBRANCH  17  21
BRANCH  18  35
HETATM   35  N7  UNL     1     -33.863  23.502   7.678  1.00  0.00    -0.338 N 
ATOM     36  H72 UNL     1     -33.186  23.987   8.267  1.00  0.00     0.177 HD
ATOM     37  H71 UNL     1     -33.523  23.417   6.721  1.00  0.00     0.177 HD
ENDBRANCH  18  35
ENDBRANCH  14  15
ENDBRANCH  13  14
ENDBRANCH   9  13
BRANCH  11  38
HETATM   38  C4  UNL     1     -41.073  19.769   5.764  1.00  0.00     0.243 C 
BRANCH  38  39
HETATM   39  C3  UNL     1     -42.350  19.624   6.456  1.00  0.00     0.277 C 
HETATM   40  O2  UNL     1     -42.889  20.609   7.015  1.00  0.00    -0.263 OA
BRANCH  39  41
HETATM   41  O1  UNL     1     -43.004  18.414   6.524  1.00  0.00    -0.321 OA
BRANCH  41  42
HETATM   42  C2  UNL     1     -44.354  18.239   6.821  1.00  0.00     0.174 C 
HETATM   43  C1  UNL     1     -44.678  18.152   8.267  1.00  0.00     0.034 C 
ENDBRANCH  41  42
ENDBRANCH  39  41
ENDBRANCH  38  39
ENDBRANCH  11  38
BRANCH  12  44
HETATM   44  S4  UNL     1     -41.711  21.203   2.992  1.00  0.00    -0.102 SA
BRANCH  44  45
HETATM   45  C20 UNL     1     -43.468  20.999   3.229  1.00  0.00     0.155 C 
BRANCH  45  46
HETATM   46  C21 UNL     1     -43.906  19.632   3.453  1.00  0.00     0.122 C 
HETATM   47  N11 UNL     1     -43.188  18.464   3.081  1.00  0.00    -0.085 NA
HETATM   48  N12 UNL     1     -45.050  19.412   4.042  1.00  0.00    -0.259 N 
ATOM     49  H12 UNL     1     -45.370  18.457   4.205  1.00  0.00     0.195 HD
BRANCH  48  50
HETATM   50  O4  UNL     1     -45.810  20.471   4.434  1.00  0.00    -0.289 OA
ATOM     51  H4  UNL     1     -45.784  21.273   3.927  1.00  0.00     0.244 HD
ENDBRANCH  48  50
ENDBRANCH  45  46
ENDBRANCH  44  45
ENDBRANCH  12  44
ENDBRANCH   1   7
TORSDOF 16
ENDMDL
MODEL 4
REMARK VINA RESULT: -8.360048411      2.776      3.000
REMARK  16 active torsions:
REMARK  status: ('A' for Active; 'I' for Inactive)
REMARK    1  A    between atoms: C2_2  and  O1_3 
REMARK    2  A    between atoms: O1_3  and  C3_4 
REMARK    3  A    between atoms: C3_4  and  C4_6 
REMARK    4  A    between atoms: C4_6  and  N1_7 
REMARK    5  A    between atoms: C5_8  and  S1_9 
REMARK    6  A    between atoms: S1_9  and  C6_10 
REMARK    7  A    between atoms: C6_10  and  C7_11 
REMARK    8  A    between atoms: C9_13  and  C10_14 
REMARK    9  A    between atoms: C10_14  and  C11_15 
REMARK   10  A    between atoms: C13_20  and  N4_21 
REMARK   11  A    between atoms: N6_28  and  N7_29 
REMARK   12  A    between atoms: C16_36  and  C17_37 
REMARK       I    between atoms: C17_37  and  N9_39 
REMARK   13  A    between atoms: C19_43  and  S4_44 
REMARK   14  A    between atoms: S4_44  and  C20_45 
REMARK   15  A    between atoms: C20_45  and  C21_46 
REMARK   16  A    between atoms: N12_48  and  O4_50 
ROOT
HETATM    1  C17 UNL     1     -40.105  24.045   4.109  1.00  0.00     0.283 C 
HETATM    2  O3  UNL     1     -39.128  24.210   3.291  1.00  0.00    -0.265 OA
HETATM    3  N9  UNL     1     -41.256  24.844   3.963  1.00  0.00    -0.258 N 
ATOM      4  H9  UNL     1     -42.055  24.745   4.590  1.00  0.00     0.181 HD
HETATM    5  C18 UNL     1     -41.257  25.799   2.899  1.00  0.00     0.184 C 
HETATM    6  N10 UNL     1     -41.258  26.562   2.036  1.00  0.00    -0.172 NA
ENDROOT
BRANCH   1   7
HETATM    7  C16 UNL     1     -40.007  23.050   5.153  1.00  0.00     0.137 A 
HETATM    8  N8  UNL     1     -39.478  23.347   6.366  1.00  0.00    -0.330 N 
HETATM    9  C5  UNL     1     -39.499  22.262   7.131  1.00  0.00     0.148 A 
ATOM     10  H8  UNL     1     -39.121  24.261   6.646  1.00  0.00     0.168 HD
HETATM   11  N1  UNL     1     -40.048  21.267   6.387  1.00  0.00    -0.310 N 
HETATM   12  C19 UNL     1     -40.374  21.739   5.150  1.00  0.00     0.107 A 
BRANCH   9  13
HETATM   13  S1  UNL     1     -38.918  22.145   8.816  1.00  0.00    -0.089 SA
BRANCH  13  14
HETATM   14  C6  UNL     1     -38.547  23.755   9.492  1.00  0.00     0.124 C 
BRANCH  14  15
HETATM   15  C7  UNL     1     -37.241  23.789  10.174  1.00  0.00    -0.010 A 
HETATM   16  C8  UNL     1     -36.001  24.026   9.672  1.00  0.00     0.038 A 
HETATM   17  C9  UNL     1     -35.026  23.909  10.689  1.00  0.00     0.039 A 
HETATM   18  N6  UNL     1     -35.704  23.603  11.781  1.00  0.00    -0.259 N 
HETATM   19  C15 UNL     1     -37.039  23.520  11.522  1.00  0.00     0.110 A 
HETATM   20  S3  UNL     1     -38.359  23.138  12.656  1.00  0.00    -0.030 SA
BRANCH  17  21
HETATM   21  C10 UNL     1     -33.579  24.087  10.448  1.00  0.00     0.104 C 
BRANCH  21  22
HETATM   22  C11 UNL     1     -32.755  22.874  10.436  1.00  0.00     0.028 A 
HETATM   23  C12 UNL     1     -32.297  22.277  11.580  1.00  0.00     0.141 A 
HETATM   24  N2  UNL     1     -32.413  22.887  12.858  1.00  0.00    -0.081 NA
HETATM   25  N3  UNL     1     -31.624  21.104  11.505  1.00  0.00    -0.178 N 
HETATM   26  C13 UNL     1     -31.418  20.549  10.292  1.00  0.00     0.678 A 
ATOM     27  H3  UNL     1     -31.279  20.649  12.350  1.00  0.00     0.185 HD
HETATM   28  N5  UNL     1     -31.854  21.118   9.173  1.00  0.00    -0.181 N 
HETATM   29  C14 UNL     1     -32.529  22.282   9.184  1.00  0.00     0.126 A 
ATOM     30  H5  UNL     1     -31.672  20.659   8.280  1.00  0.00     0.185 HD
HETATM   31  S2  UNL     1     -33.054  22.986   7.810  1.00  0.00    -0.059 SA
BRANCH  26  32
HETATM   32  N4  UNL     1     -30.778  19.427  10.216  1.00  0.00    -0.234 N 
ATOM     33  H42 UNL     1     -31.199  18.651   9.704  1.00  0.00     0.174 HD
ATOM     34  H41 UNL     1     -29.867  19.345  10.668  1.00  0.00     0.174 HD
ENDBRANCH  26  32
ENDBRANCH  21  22
ENDBRANCH  17  21
BRANCH  18  35
HETATM   35  N7  UNL     1     -35.265  23.365  13.104  1.00  0.00    -0.338 N 
ATOM     36  H72 UNL     1     -34.487  22.720  13.244  1.00  0.00     0.177 HD
ATOM     37  H71 UNL     1     -35.598  23.737  13.993  1.00  0.00     0.177 HD
ENDBRANCH  18  35
ENDBRANCH  14  15
ENDBRANCH  13  14
ENDBRANCH   9  13
BRANCH  11  38
HETATM   38  C4  UNL     1     -40.231  19.927   6.874  1.00  0.00     0.243 C 
BRANCH  38  39
HETATM   39  C3  UNL     1     -39.062  19.068   6.708  1.00  0.00     0.277 C 
HETATM   40  O2  UNL     1     -39.111  17.855   7.022  1.00  0.00    -0.263 OA
BRANCH  39  41
HETATM   41  O1  UNL     1     -37.873  19.551   6.208  1.00  0.00    -0.321 OA
BRANCH  41  42
HETATM   42  C2  UNL     1     -36.788  19.977   6.970  1.00  0.00     0.174 C 
HETATM   43  C1  UNL     1     -36.036  21.130   6.412  1.00  0.00     0.034 C 
ENDBRANCH  41  42
ENDBRANCH  39  41
ENDBRANCH  38  39
ENDBRANCH  11  38
BRANCH  12  44
HETATM   44  S4  UNL     1     -41.115  20.704   3.915  1.00  0.00    -0.102 SA
BRANCH  44  45
HETATM   45  C20 UNL     1     -42.535  19.800   4.507  1.00  0.00     0.155 C 
BRANCH  45  46
HETATM   46  C21 UNL     1     -43.764  20.027   3.766  1.00  0.00     0.122 C 
HETATM   47  N11 UNL     1     -43.952  21.014   2.761  1.00  0.00    -0.085 NA
HETATM   48  N12 UNL     1     -44.810  19.286   4.013  1.00  0.00    -0.259 N 
ATOM     49  H12 UNL     1     -45.679  19.434   3.500  1.00  0.00     0.195 HD
BRANCH  48  50
HETATM   50  O4  UNL     1     -44.726  18.313   4.961  1.00  0.00    -0.289 OA
ATOM     51  H4  UNL     1     -44.470  18.549   5.845  1.00  0.00     0.244 HD
ENDBRANCH  48  50
ENDBRANCH  45  46
ENDBRANCH  44  45
ENDBRANCH  12  44
ENDBRANCH   1   7
TORSDOF 16
ENDMDL
MODEL 5
REMARK VINA RESULT: -8.229994163      2.414      3.551
REMARK  16 active torsions:
REMARK  status: ('A' for Active; 'I' for Inactive)
REMARK    1  A    between atoms: C2_2  and  O1_3 
REMARK    2  A    between atoms: O1_3  and  C3_4 
REMARK    3  A    between atoms: C3_4  and  C4_6 
REMARK    4  A    between atoms: C4_6  and  N1_7 
REMARK    5  A    between atoms: C5_8  and  S1_9 
REMARK    6  A    between atoms: S1_9  and  C6_10 
REMARK    7  A    between atoms: C6_10  and  C7_11 
REMARK    8  A    between atoms: C9_13  and  C10_14 
REMARK    9  A    between atoms: C10_14  and  C11_15 
REMARK   10  A    between atoms: C13_20  and  N4_21 
REMARK   11  A    between atoms: N6_28  and  N7_29 
REMARK   12  A    between atoms: C16_36  and  C17_37 
REMARK       I    between atoms: C17_37  and  N9_39 
REMARK   13  A    between atoms: C19_43  and  S4_44 
REMARK   14  A    between atoms: S4_44  and  C20_45 
REMARK   15  A    between atoms: C20_45  and  C21_46 
REMARK   16  A    between atoms: N12_48  and  O4_50 
ROOT
HETATM    1  C17 UNL     1     -40.124  23.988   4.205  1.00  0.00     0.283 C 
HETATM    2  O3  UNL     1     -39.075  24.254   3.514  1.00  0.00    -0.265 OA
HETATM    3  N9  UNL     1     -41.297  24.733   3.976  1.00  0.00    -0.258 N 
ATOM      4  H9  UNL     1     -42.153  24.553   4.502  1.00  0.00     0.181 HD
HETATM    5  C18 UNL     1     -41.237  25.753   2.975  1.00  0.00     0.184 C 
HETATM    6  N10 UNL     1     -41.188  26.567   2.162  1.00  0.00    -0.172 NA
ENDROOT
BRANCH   1   7
HETATM    7  C16 UNL     1     -40.082  22.934   5.195  1.00  0.00     0.137 A 
HETATM    8  N8  UNL     1     -39.636  23.165   6.455  1.00  0.00    -0.330 N 
HETATM    9  C5  UNL     1     -39.694  22.038   7.153  1.00  0.00     0.148 A 
ATOM     10  H8  UNL     1     -39.307  24.064   6.809  1.00  0.00     0.168 HD
HETATM   11  N1  UNL     1     -40.184  21.084   6.319  1.00  0.00    -0.310 N 
HETATM   12  C19 UNL     1     -40.434  21.624   5.093  1.00  0.00     0.107 A 
BRANCH   9  13
HETATM   13  S1  UNL     1     -39.222  21.828   8.863  1.00  0.00    -0.089 SA
BRANCH  13  14
HETATM   14  C6  UNL     1     -39.500  23.319   9.805  1.00  0.00     0.124 C 
BRANCH  14  15
HETATM   15  C7  UNL     1     -38.553  23.459  10.925  1.00  0.00    -0.010 A 
HETATM   16  C8  UNL     1     -38.694  23.124  12.234  1.00  0.00     0.038 A 
HETATM   17  C9  UNL     1     -37.540  23.485  12.965  1.00  0.00     0.039 A 
HETATM   18  N6  UNL     1     -36.729  24.033  12.076  1.00  0.00    -0.259 N 
HETATM   19  C15 UNL     1     -37.294  24.040  10.836  1.00  0.00     0.110 A 
HETATM   20  S3  UNL     1     -36.606  24.663   9.316  1.00  0.00    -0.030 SA
BRANCH  17  21
HETATM   21  C10 UNL     1     -37.401  23.271  14.420  1.00  0.00     0.104 C 
BRANCH  21  22
HETATM   22  C11 UNL     1     -36.064  23.460  14.993  1.00  0.00     0.028 A 
HETATM   23  C12 UNL     1     -35.072  22.521  14.891  1.00  0.00     0.141 A 
HETATM   24  N2  UNL     1     -35.311  21.211  14.396  1.00  0.00    -0.081 NA
HETATM   25  N3  UNL     1     -33.832  22.799  15.355  1.00  0.00    -0.178 N 
HETATM   26  C13 UNL     1     -33.601  24.005  15.916  1.00  0.00     0.678 A 
ATOM     27  H3  UNL     1     -33.084  22.108  15.283  1.00  0.00     0.185 HD
HETATM   28  N5  UNL     1     -34.554  24.925  16.025  1.00  0.00    -0.181 N 
HETATM   29  C14 UNL     1     -35.806  24.708  15.581  1.00  0.00     0.126 A 
ATOM     30  H5  UNL     1     -34.330  25.822  16.458  1.00  0.00     0.185 HD
HETATM   31  S2  UNL     1     -36.977  25.832  15.726  1.00  0.00    -0.059 SA
BRANCH  26  32
HETATM   32  N4  UNL     1     -32.415  24.275  16.360  1.00  0.00    -0.234 N 
ATOM     33  H42 UNL     1     -32.018  23.690  17.095  1.00  0.00     0.174 HD
ATOM     34  H41 UNL     1     -31.907  25.066  15.964  1.00  0.00     0.174 HD
ENDBRANCH  26  32
ENDBRANCH  21  22
ENDBRANCH  17  21
BRANCH  18  35
HETATM   35  N7  UNL     1     -35.433  24.579  12.222  1.00  0.00    -0.338 N 
ATOM     36  H72 UNL     1     -35.084  24.746  13.166  1.00  0.00     0.177 HD
ATOM     37  H71 UNL     1     -34.743  24.854  11.522  1.00  0.00     0.177 HD
ENDBRANCH  18  35
ENDBRANCH  14  15
ENDBRANCH  13  14
ENDBRANCH   9  13
BRANCH  11  38
HETATM   38  C4  UNL     1     -40.383  19.716   6.717  1.00  0.00     0.243 C 
BRANCH  38  39
HETATM   39  C3  UNL     1     -39.185  18.887   6.622  1.00  0.00     0.277 C 
HETATM   40  O2  UNL     1     -39.220  17.674   6.937  1.00  0.00    -0.263 OA
BRANCH  39  41
HETATM   41  O1  UNL     1     -37.982  19.400   6.189  1.00  0.00    -0.321 OA
BRANCH  41  42
HETATM   42  C2  UNL     1     -36.946  19.837   7.012  1.00  0.00     0.174 C 
HETATM   43  C1  UNL     1     -36.244  21.061   6.550  1.00  0.00     0.034 C 
ENDBRANCH  41  42
ENDBRANCH  39  41
ENDBRANCH  38  39
ENDBRANCH  11  38
BRANCH  12  44
HETATM   44  S4  UNL     1     -41.083  20.656   3.756  1.00  0.00    -0.102 SA
BRANCH  44  45
HETATM   45  C20 UNL     1     -42.465  19.631   4.228  1.00  0.00     0.155 C 
BRANCH  45  46
HETATM   46  C21 UNL     1     -43.746  20.026   3.667  1.00  0.00     0.122 C 
HETATM   47  N11 UNL     1     -43.955  21.098   2.759  1.00  0.00    -0.085 NA
HETATM   48  N12 UNL     1     -44.823  19.367   3.998  1.00  0.00    -0.259 N 
ATOM     49  H12 UNL     1     -45.729  19.632   3.612  1.00  0.00     0.195 HD
BRANCH  48  50
HETATM   50  O4  UNL     1     -44.722  18.321   4.865  1.00  0.00    -0.289 OA
ATOM     51  H4  UNL     1     -44.833  17.436   4.538  1.00  0.00     0.244 HD
ENDBRANCH  48  50
ENDBRANCH  45  46
ENDBRANCH  44  45
ENDBRANCH  12  44
ENDBRANCH   1   7
TORSDOF 16
ENDMDL
