MODEL 1
REMARK VINA RESULT: -8.774862576      0.000      0.000
REMARK  8 active torsions:
REMARK  status: ('A' for Active; 'I' for Inactive)
REMARK    1  A    between atoms: C2_2  and  C3_3 
REMARK    2  A    between atoms: C3_3  and  N1_5 
REMARK    3  A    between atoms: C3_3  and  C16_20 
REMARK    4  A    between atoms: N1_5  and  C5_7 
REMARK    5  A    between atoms: C5_7  and  C6_8 
REMARK    6  A    between atoms: C6_8  and  C7_9 
REMARK    7  A    between atoms: C16_20  and  O1_21 
REMARK    8  A    between atoms: C16_20  and  N3_23 
ROOT
HETATM    1  N1  UNL     1      44.680  33.291  31.077  1.00  0.00    -0.386 N 
ATOM      2  H1  UNL     1      44.090  34.074  30.796  1.00  0.00     0.159 HD
ENDROOT
BRANCH   1   3
HETATM    3  C3  UNL     1      45.700  33.434  32.138  1.00  0.00     0.090 C 
HETATM    4  C4  UNL     1      46.224  32.142  32.571  1.00  0.00     0.047 C 
BRANCH   3   5
HETATM    5  C2  UNL     1      44.938  33.999  33.365  1.00  0.00     0.035 C 
HETATM    6  C1  UNL     1      43.451  34.037  33.125  1.00  0.00     0.008 C 
ENDBRANCH   3   5
BRANCH   3   7
HETATM    7  C16 UNL     1      46.665  34.452  31.807  1.00  0.00     0.142 C 
BRANCH   7   8
HETATM    8  O1  UNL     1      46.505  35.648  32.351  1.00  0.00    -0.348 OA
ATOM      9  H1  UNL     1      47.060  36.352  32.037  1.00  0.00     0.219 HD
ENDBRANCH   7   8
BRANCH   7  10
HETATM   10  N3  UNL     1      47.761  34.404  30.969  1.00  0.00    -0.363 N 
HETATM   11  C17 UNL     1      49.089  34.470  31.625  1.00  0.00     0.124 C 
HETATM   12  C18 UNL     1      49.845  33.200  31.333  1.00  0.00     0.020 C 
HETATM   13  C19 UNL     1      49.936  33.094  29.824  1.00  0.00     0.003 C 
HETATM   14  C20 UNL     1      48.588  33.000  29.199  1.00  0.00     0.020 C 
HETATM   15  C21 UNL     1      47.793  34.284  29.569  1.00  0.00     0.124 C 
ENDBRANCH   7  10
ENDBRANCH   3   7
ENDBRANCH   1   3
BRANCH   1  16
HETATM   16  C5  UNL     1      44.563  32.045  30.483  1.00  0.00     0.061 C 
BRANCH  16  17
HETATM   17  C6  UNL     1      43.388  31.191  30.438  1.00  0.00     0.084 C 
BRANCH  17  18
HETATM   18  C7  UNL     1      42.622  30.872  31.631  1.00  0.00    -0.030 A 
HETATM   19  C8  UNL     1      42.996  30.290  32.808  1.00  0.00     0.096 A 
HETATM   20  N2  UNL     1      41.966  30.252  33.704  1.00  0.00    -0.368 N 
HETATM   21  C9  UNL     1      40.930  30.813  33.113  1.00  0.00     0.015 A 
ATOM     22  H2  UNL     1      41.994  29.865  34.646  1.00  0.00     0.165 HD
HETATM   23  C10 UNL     1      41.271  31.210  31.866  1.00  0.00    -0.028 A 
HETATM   24  C15 UNL     1      39.568  30.886  33.760  1.00  0.00     0.057 C 
HETATM   25  C11 UNL     1      40.405  31.891  30.884  1.00  0.00     0.041 C 
HETATM   26  C12 UNL     1      38.940  31.548  31.121  1.00  0.00     0.005 C 
HETATM   27  C13 UNL     1      38.798  30.098  31.517  1.00  0.00     0.001 C 
HETATM   28  C14 UNL     1      38.648  29.910  33.009  1.00  0.00     0.006 C 
ENDBRANCH  17  18
ENDBRANCH  16  17
ENDBRANCH   1  16
TORSDOF 8
ENDMDL
MODEL 2
REMARK VINA RESULT: -8.416193959      1.110      1.714
REMARK  8 active torsions:
REMARK  status: ('A' for Active; 'I' for Inactive)
REMARK    1  A    between atoms: C2_2  and  C3_3 
REMARK    2  A    between atoms: C3_3  and  N1_5 
REMARK    3  A    between atoms: C3_3  and  C16_20 
REMARK    4  A    between atoms: N1_5  and  C5_7 
REMARK    5  A    between atoms: C5_7  and  C6_8 
REMARK    6  A    between atoms: C6_8  and  C7_9 
REMARK    7  A    between atoms: C16_20  and  O1_21 
REMARK    8  A    between atoms: C16_20  and  N3_23 
ROOT
HETATM    1  N1  UNL     1      44.540  33.405  31.030  1.00  0.00    -0.386 N 
ATOM      2  H1  UNL     1      44.031  34.247  30.761  1.00  0.00     0.159 HD
ENDROOT
BRANCH   1   3
HETATM    3  C3  UNL     1      45.601  33.439  32.059  1.00  0.00     0.090 C 
HETATM    4  C4  UNL     1      46.100  32.104  32.375  1.00  0.00     0.047 C 
BRANCH   3   5
HETATM    5  C2  UNL     1      44.901  33.930  33.353  1.00  0.00     0.035 C 
HETATM    6  C1  UNL     1      43.411  34.050  33.166  1.00  0.00     0.008 C 
ENDBRANCH   3   5
BRANCH   3   7
HETATM    7  C16 UNL     1      46.584  34.452  31.768  1.00  0.00     0.142 C 
BRANCH   7   8
HETATM    8  O1  UNL     1      46.419  35.643  32.320  1.00  0.00    -0.348 OA
ATOM      9  H1  UNL     1      46.923  35.841  33.100  1.00  0.00     0.219 HD
ENDBRANCH   7   8
BRANCH   7  10
HETATM   10  N3  UNL     1      47.705  34.403  30.963  1.00  0.00    -0.363 N 
HETATM   11  C17 UNL     1      49.013  34.469  31.658  1.00  0.00     0.124 C 
HETATM   12  C18 UNL     1      49.776  33.199  31.389  1.00  0.00     0.020 C 
HETATM   13  C19 UNL     1      49.912  33.092  29.883  1.00  0.00     0.003 C 
HETATM   14  C20 UNL     1      48.583  32.997  29.219  1.00  0.00     0.020 C 
HETATM   15  C21 UNL     1      47.777  34.282  29.565  1.00  0.00     0.124 C 
ENDBRANCH   7  10
ENDBRANCH   3   7
ENDBRANCH   1   3
BRANCH   1  16
HETATM   16  C5  UNL     1      44.267  32.177  30.450  1.00  0.00     0.061 C 
BRANCH  16  17
HETATM   17  C6  UNL     1      43.389  31.134  30.951  1.00  0.00     0.084 C 
BRANCH  17  18
HETATM   18  C7  UNL     1      41.947  31.310  31.023  1.00  0.00    -0.030 A 
HETATM   19  C8  UNL     1      41.138  32.287  30.519  1.00  0.00     0.096 A 
HETATM   20  N2  UNL     1      39.819  32.020  30.751  1.00  0.00    -0.368 N 
HETATM   21  C9  UNL     1      39.773  30.873  31.398  1.00  0.00     0.015 A 
ATOM     22  H2  UNL     1      39.024  32.597  30.477  1.00  0.00     0.165 HD
HETATM   23  C10 UNL     1      41.026  30.398  31.583  1.00  0.00    -0.028 A 
HETATM   24  C15 UNL     1      38.482  30.279  31.909  1.00  0.00     0.057 C 
HETATM   25  C11 UNL     1      41.409  29.139  32.249  1.00  0.00     0.041 C 
HETATM   26  C12 UNL     1      40.358  28.724  33.271  1.00  0.00     0.005 C 
HETATM   27  C13 UNL     1      39.818  29.935  33.992  1.00  0.00     0.001 C 
HETATM   28  C14 UNL     1      38.491  30.402  33.440  1.00  0.00     0.006 C 
ENDBRANCH  17  18
ENDBRANCH  16  17
ENDBRANCH   1  16
TORSDOF 8
ENDMDL
MODEL 3
REMARK VINA RESULT: -8.302408455      1.724      7.944
REMARK  8 active torsions:
REMARK  status: ('A' for Active; 'I' for Inactive)
REMARK    1  A    between atoms: C2_2  and  C3_3 
REMARK    2  A    between atoms: C3_3  and  N1_5 
REMARK    3  A    between atoms: C3_3  and  C16_20 
REMARK    4  A    between atoms: N1_5  and  C5_7 
REMARK    5  A    between atoms: C5_7  and  C6_8 
REMARK    6  A    between atoms: C6_8  and  C7_9 
REMARK    7  A    between atoms: C16_20  and  O1_21 
REMARK    8  A    between atoms: C16_20  and  N3_23 
ROOT
HETATM    1  N1  UNL     1      45.168  33.973  33.140  1.00  0.00    -0.386 N 
ATOM      2  H1  UNL     1      44.891  33.982  34.122  1.00  0.00     0.159 HD
ENDROOT
BRANCH   1   3
HETATM    3  C3  UNL     1      44.583  33.013  32.180  1.00  0.00     0.090 C 
HETATM    4  C4  UNL     1      45.306  31.745  32.164  1.00  0.00     0.047 C 
BRANCH   3   5
HETATM    5  C2  UNL     1      44.820  33.638  30.781  1.00  0.00     0.035 C 
HETATM    6  C1  UNL     1      45.367  32.626  29.807  1.00  0.00     0.008 C 
ENDBRANCH   3   5
BRANCH   3   7
HETATM    7  C16 UNL     1      43.148  32.946  32.312  1.00  0.00     0.142 C 
BRANCH   7   8
HETATM    8  O1  UNL     1      42.524  34.018  32.773  1.00  0.00    -0.348 OA
ATOM      9  H1  UNL     1      41.796  34.355  32.266  1.00  0.00     0.219 HD
ENDBRANCH   7   8
BRANCH   7  10
HETATM   10  N3  UNL     1      42.276  31.908  32.051  1.00  0.00    -0.363 N 
HETATM   11  C17 UNL     1      41.825  31.122  33.224  1.00  0.00     0.124 C 
HETATM   12  C18 UNL     1      40.330  31.253  33.357  1.00  0.00     0.020 C 
HETATM   13  C19 UNL     1      39.740  30.758  32.052  1.00  0.00     0.003 C 
HETATM   14  C20 UNL     1      40.188  31.586  30.899  1.00  0.00     0.020 C 
HETATM   15  C21 UNL     1      41.739  31.502  30.818  1.00  0.00     0.124 C 
ENDBRANCH   7  10
ENDBRANCH   3   7
ENDBRANCH   1   3
BRANCH   1  16
HETATM   16  C5  UNL     1      46.110  34.861  32.645  1.00  0.00     0.061 C 
BRANCH  16  17
HETATM   17  C6  UNL     1      47.528  34.915  32.956  1.00  0.00     0.084 C 
BRANCH  17  18
HETATM   18  C7  UNL     1      48.501  34.091  32.258  1.00  0.00    -0.030 A 
HETATM   19  C8  UNL     1      49.271  33.051  32.693  1.00  0.00     0.096 A 
HETATM   20  N2  UNL     1      49.997  32.499  31.676  1.00  0.00    -0.368 N 
HETATM   21  C9  UNL     1      49.695  33.175  30.585  1.00  0.00     0.015 A 
ATOM     22  H2  UNL     1      50.647  31.717  31.748  1.00  0.00     0.165 HD
HETATM   23  C10 UNL     1      48.794  34.140  30.877  1.00  0.00    -0.028 A 
HETATM   24  C15 UNL     1      50.363  32.914  29.257  1.00  0.00     0.057 C 
HETATM   25  C11 UNL     1      48.189  35.103  29.937  1.00  0.00     0.041 C 
HETATM   26  C12 UNL     1      49.112  35.358  28.752  1.00  0.00     0.005 C 
HETATM   27  C13 UNL     1      50.550  35.404  29.206  1.00  0.00     0.001 C 
HETATM   28  C14 UNL     1      51.285  34.107  28.962  1.00  0.00     0.006 C 
ENDBRANCH  17  18
ENDBRANCH  16  17
ENDBRANCH   1  16
TORSDOF 8
ENDMDL
MODEL 4
REMARK VINA RESULT: -8.285295456      0.594      1.228
REMARK  8 active torsions:
REMARK  status: ('A' for Active; 'I' for Inactive)
REMARK    1  A    between atoms: C2_2  and  C3_3 
REMARK    2  A    between atoms: C3_3  and  N1_5 
REMARK    3  A    between atoms: C3_3  and  C16_20 
REMARK    4  A    between atoms: N1_5  and  C5_7 
REMARK    5  A    between atoms: C5_7  and  C6_8 
REMARK    6  A    between atoms: C6_8  and  C7_9 
REMARK    7  A    between atoms: C16_20  and  O1_21 
REMARK    8  A    between atoms: C16_20  and  N3_23 
ROOT
HETATM    1  N1  UNL     1      44.623  33.240  31.093  1.00  0.00    -0.386 N 
ATOM      2  H1  UNL     1      44.023  34.019  30.819  1.00  0.00     0.159 HD
ENDROOT
BRANCH   1   3
HETATM    3  C3  UNL     1      45.686  33.404  32.107  1.00  0.00     0.090 C 
HETATM    4  C4  UNL     1      46.149  32.121  32.626  1.00  0.00     0.047 C 
BRANCH   3   5
HETATM    5  C2  UNL     1      45.002  34.108  33.307  1.00  0.00     0.035 C 
HETATM    6  C1  UNL     1      43.500  34.067  33.193  1.00  0.00     0.008 C 
ENDBRANCH   3   5
BRANCH   3   7
HETATM    7  C16 UNL     1      46.696  34.333  31.665  1.00  0.00     0.142 C 
BRANCH   7   8
HETATM    8  O1  UNL     1      46.537  35.608  31.982  1.00  0.00    -0.348 OA
ATOM      9  H1  UNL     1      46.896  35.904  32.810  1.00  0.00     0.219 HD
ENDBRANCH   7   8
BRANCH   7  10
HETATM   10  N3  UNL     1      47.838  34.121  30.919  1.00  0.00    -0.363 N 
HETATM   11  C17 UNL     1      47.653  34.031  29.451  1.00  0.00     0.124 C 
HETATM   12  C18 UNL     1      48.420  35.146  28.790  1.00  0.00     0.020 C 
HETATM   13  C19 UNL     1      49.866  34.981  29.214  1.00  0.00     0.003 C 
HETATM   14  C20 UNL     1      50.022  35.106  30.689  1.00  0.00     0.020 C 
HETATM   15  C21 UNL     1      49.166  33.996  31.362  1.00  0.00     0.124 C 
ENDBRANCH   7  10
ENDBRANCH   3   7
ENDBRANCH   1   3
BRANCH   1  16
HETATM   16  C5  UNL     1      44.477  31.982  30.532  1.00  0.00     0.061 C 
BRANCH  16  17
HETATM   17  C6  UNL     1      43.286  31.150  30.515  1.00  0.00     0.084 C 
BRANCH  17  18
HETATM   18  C7  UNL     1      42.525  30.870  31.722  1.00  0.00    -0.030 A 
HETATM   19  C8  UNL     1      42.914  30.363  32.929  1.00  0.00     0.096 A 
HETATM   20  N2  UNL     1      41.882  30.339  33.823  1.00  0.00    -0.368 N 
HETATM   21  C9  UNL     1      40.830  30.834  33.201  1.00  0.00     0.015 A 
ATOM     22  H2  UNL     1      41.919  30.003  34.785  1.00  0.00     0.165 HD
HETATM   23  C10 UNL     1      41.164  31.176  31.935  1.00  0.00    -0.028 A 
HETATM   24  C15 UNL     1      39.464  30.896  33.840  1.00  0.00     0.057 C 
HETATM   25  C11 UNL     1      40.280  31.775  30.917  1.00  0.00     0.041 C 
HETATM   26  C12 UNL     1      38.826  31.397  31.168  1.00  0.00     0.005 C 
HETATM   27  C13 UNL     1      38.729  29.967  31.640  1.00  0.00     0.001 C 
HETATM   28  C14 UNL     1      38.580  29.852  33.139  1.00  0.00     0.006 C 
ENDBRANCH  17  18
ENDBRANCH  16  17
ENDBRANCH   1  16
TORSDOF 8
ENDMDL
MODEL 5
REMARK VINA RESULT: -8.206935924      1.886      8.115
REMARK  8 active torsions:
REMARK  status: ('A' for Active; 'I' for Inactive)
REMARK    1  A    between atoms: C2_2  and  C3_3 
REMARK    2  A    between atoms: C3_3  and  N1_5 
REMARK    3  A    between atoms: C3_3  and  C16_20 
REMARK    4  A    between atoms: N1_5  and  C5_7 
REMARK    5  A    between atoms: C5_7  and  C6_8 
REMARK    6  A    between atoms: C6_8  and  C7_9 
REMARK    7  A    between atoms: C16_20  and  O1_21 
REMARK    8  A    between atoms: C16_20  and  N3_23 
ROOT
HETATM    1  N1  UNL     1      43.448  31.234  31.701  1.00  0.00    -0.386 N 
ATOM      2  H1  UNL     1      44.038  31.054  32.513  1.00  0.00     0.159 HD
ENDROOT
BRANCH   1   3
HETATM    3  C3  UNL     1      41.995  30.966  31.727  1.00  0.00     0.090 C 
HETATM    4  C4  UNL     1      41.682  29.605  31.302  1.00  0.00     0.047 C 
BRANCH   3   5
HETATM    5  C2  UNL     1      41.389  31.886  30.634  1.00  0.00     0.035 C 
HETATM    6  C1  UNL     1      39.955  31.531  30.342  1.00  0.00     0.008 C 
ENDBRANCH   3   5
BRANCH   3   7
HETATM    7  C16 UNL     1      41.397  31.420  32.958  1.00  0.00     0.142 C 
BRANCH   7   8
HETATM    8  O1  UNL     1      41.665  32.656  33.350  1.00  0.00    -0.348 OA
ATOM      9  H1  UNL     1      41.030  33.087  33.909  1.00  0.00     0.219 HD
ENDBRANCH   7   8
BRANCH   7  10
HETATM   10  N3  UNL     1      40.579  30.757  33.851  1.00  0.00    -0.363 N 
HETATM   11  C17 UNL     1      39.132  31.072  33.769  1.00  0.00     0.124 C 
HETATM   12  C18 UNL     1      38.376  29.819  33.414  1.00  0.00     0.020 C 
HETATM   13  C19 UNL     1      38.699  28.805  34.493  1.00  0.00     0.003 C 
HETATM   14  C20 UNL     1      40.154  28.488  34.528  1.00  0.00     0.020 C 
HETATM   15  C21 UNL     1      40.928  29.804  34.822  1.00  0.00     0.124 C 
ENDBRANCH   7  10
ENDBRANCH   3   7
ENDBRANCH   1   3
BRANCH   1  16
HETATM   16  C5  UNL     1      43.972  31.743  30.523  1.00  0.00     0.061 C 
BRANCH  16  17
HETATM   17  C6  UNL     1      44.681  32.997  30.336  1.00  0.00     0.084 C 
BRANCH  17  18
HETATM   18  C7  UNL     1      46.105  33.041  30.047  1.00  0.00    -0.030 A 
HETATM   19  C8  UNL     1      46.814  32.595  28.969  1.00  0.00     0.096 A 
HETATM   20  N2  UNL     1      48.138  32.914  29.068  1.00  0.00    -0.368 N 
HETATM   21  C9  UNL     1      48.286  33.569  30.202  1.00  0.00     0.015 A 
ATOM     22  H2  UNL     1      48.870  32.690  28.394  1.00  0.00     0.165 HD
HETATM   23  C10 UNL     1      47.092  33.679  30.828  1.00  0.00    -0.028 A 
HETATM   24  C15 UNL     1      49.634  34.021  30.709  1.00  0.00     0.057 C 
HETATM   25  C11 UNL     1      46.824  34.351  32.114  1.00  0.00     0.041 C 
HETATM   26  C12 UNL     1      48.067  34.355  32.995  1.00  0.00     0.005 C 
HETATM   27  C13 UNL     1      48.812  33.050  32.859  1.00  0.00     0.001 C 
HETATM   28  C14 UNL     1      49.991  33.143  31.918  1.00  0.00     0.006 C 
ENDBRANCH  17  18
ENDBRANCH  16  17
ENDBRANCH   1  16
TORSDOF 8
ENDMDL
