MODEL 1
REMARK VINA RESULT: -10.184856158      0.000      0.000
REMARK  7 active torsions:
REMARK  status: ('A' for Active; 'I' for Inactive)
REMARK    1  A    between atoms: C3_3  and  N1_4 
REMARK       I    between atoms: N1_4  and  C4_6 
REMARK    2  A    between atoms: C4_6  and  C5_8 
REMARK    3  A    between atoms: C5_8  and  C6_9 
REMARK    4  A    between atoms: C6_9  and  C7_10 
REMARK    5  A    between atoms: C7_10  and  O2_11 
REMARK    6  A    between atoms: C13_18  and  C14_19 
REMARK    7  A    between atoms: C14_19  and  C16_21 
ROOT
HETATM    1  C1  UNL     1      36.167  26.613  36.570  1.00  0.00     0.014 C 
HETATM    2  C2  UNL     1      37.335  26.658  36.244  1.00  0.00    -0.098 C 
HETATM    3  C3  UNL     1      38.737  26.703  35.834  1.00  0.00     0.216 C 
ENDROOT
BRANCH   3   4
HETATM    4  N1  UNL     1      38.909  27.533  34.659  1.00  0.00    -0.350 N 
HETATM    5  C4  UNL     1      39.642  28.743  34.700  1.00  0.00     0.227 C 
HETATM    6  O1  UNL     1      40.163  29.115  35.793  1.00  0.00    -0.273 OA
ATOM      7  H1  UNL     1      38.491  27.237  33.777  1.00  0.00     0.163 HD
BRANCH   5   8
HETATM    8  C5  UNL     1      39.796  29.557  33.491  1.00  0.00     0.043 C 
HETATM    9  C8  UNL     1      40.998  29.144  32.673  1.00  0.00     0.024 C 
HETATM   10  C9  UNL     1      42.154  29.762  33.377  1.00  0.00    -0.008 C 
HETATM   11  C10 UNL     1      43.324  30.093  32.503  1.00  0.00     0.015 C 
HETATM   12  C21 UNL     1      41.618  31.071  33.872  1.00  0.00    -0.004 C 
HETATM   13  C11 UNL     1      43.138  31.517  32.017  1.00  0.00    -0.036 C 
HETATM   14  C12 UNL     1      42.645  31.449  30.611  1.00  0.00     0.016 C 
HETATM   15  C13 UNL     1      44.336  32.359  32.235  1.00  0.00    -0.002 C 
HETATM   16  C20 UNL     1      42.034  32.116  32.892  1.00  0.00    -0.002 C 
HETATM   17  C18 UNL     1      43.714  33.709  32.634  1.00  0.00     0.006 C 
HETATM   18  C19 UNL     1      42.692  33.245  33.650  1.00  0.00     0.006 C 
HETATM   19  C22 UNL     1      40.113  30.976  33.851  1.00  0.00     0.024 C 
BRANCH   8  20
HETATM   20  C6  UNL     1      38.533  29.475  32.633  1.00  0.00     0.045 C 
BRANCH  20  21
HETATM   21  C7  UNL     1      38.811  30.302  31.392  1.00  0.00     0.165 C 
BRANCH  21  22
HETATM   22  O2  UNL     1      37.676  31.038  31.092  1.00  0.00    -0.401 OA
ATOM     23  H2  UNL     1      37.834  31.945  31.328  1.00  0.00     0.209 HD
ENDBRANCH  21  22
ENDBRANCH  20  21
ENDBRANCH   8  20
BRANCH  15  24
HETATM   24  C14 UNL     1      45.209  32.647  31.070  1.00  0.00    -0.014 C 
HETATM   25  C15 UNL     1      44.807  34.057  30.598  1.00  0.00     0.010 C 
BRANCH  24  26
HETATM   26  C16 UNL     1      46.683  32.660  31.334  1.00  0.00     0.000 C 
HETATM   27  C17 UNL     1      46.987  32.660  32.816  1.00  0.00     0.005 C 
ENDBRANCH  24  26
ENDBRANCH  15  24
ENDBRANCH   5   8
ENDBRANCH   3   4
TORSDOF 7
ENDMDL
MODEL 2
REMARK VINA RESULT: -9.738578972      3.495      8.024
REMARK  7 active torsions:
REMARK  status: ('A' for Active; 'I' for Inactive)
REMARK    1  A    between atoms: C3_3  and  N1_4 
REMARK       I    between atoms: N1_4  and  C4_6 
REMARK    2  A    between atoms: C4_6  and  C5_8 
REMARK    3  A    between atoms: C5_8  and  C6_9 
REMARK    4  A    between atoms: C6_9  and  C7_10 
REMARK    5  A    between atoms: C7_10  and  O2_11 
REMARK    6  A    between atoms: C13_18  and  C14_19 
REMARK    7  A    between atoms: C14_19  and  C16_21 
ROOT
HETATM    1  C1  UNL     1      49.174  34.743  28.815  1.00  0.00     0.014 C 
HETATM    2  C2  UNL     1      48.405  33.808  28.877  1.00  0.00    -0.098 C 
HETATM    3  C3  UNL     1      47.480  32.680  28.972  1.00  0.00     0.216 C 
ENDROOT
BRANCH   3   4
HETATM    4  N1  UNL     1      46.260  33.064  29.653  1.00  0.00    -0.350 N 
HETATM    5  C4  UNL     1      46.136  32.994  31.061  1.00  0.00     0.227 C 
HETATM    6  O1  UNL     1      47.117  32.584  31.749  1.00  0.00    -0.273 OA
ATOM      7  H1  UNL     1      45.467  33.394  29.102  1.00  0.00     0.163 HD
BRANCH   5   8
HETATM    8  C5  UNL     1      44.886  33.391  31.715  1.00  0.00     0.043 C 
HETATM    9  C8  UNL     1      44.463  32.410  32.785  1.00  0.00     0.024 C 
HETATM   10  C9  UNL     1      43.848  31.284  32.031  1.00  0.00    -0.008 C 
HETATM   11  C10 UNL     1      42.792  30.527  32.774  1.00  0.00     0.015 C 
HETATM   12  C21 UNL     1      43.154  31.953  30.884  1.00  0.00    -0.004 C 
HETATM   13  C11 UNL     1      41.460  31.179  32.458  1.00  0.00    -0.036 C 
HETATM   14  C12 UNL     1      41.085  32.021  33.631  1.00  0.00     0.016 C 
HETATM   15  C13 UNL     1      40.435  30.207  32.016  1.00  0.00    -0.002 C 
HETATM   16  C20 UNL     1      41.718  32.097  31.262  1.00  0.00    -0.002 C 
HETATM   17  C18 UNL     1      39.695  30.993  30.919  1.00  0.00     0.006 C 
HETATM   18  C19 UNL     1      40.872  31.541  30.140  1.00  0.00     0.006 C 
HETATM   19  C22 UNL     1      43.746  33.334  30.745  1.00  0.00     0.024 C 
BRANCH   8  20
HETATM   20  C6  UNL     1      45.026  34.788  32.320  1.00  0.00     0.045 C 
BRANCH  20  21
HETATM   21  C7  UNL     1      44.679  34.648  33.791  1.00  0.00     0.165 C 
BRANCH  21  22
HETATM   22  O2  UNL     1      43.899  35.732  34.163  1.00  0.00    -0.401 OA
ATOM     23  H2  UNL     1      43.465  36.069  33.388  1.00  0.00     0.209 HD
ENDBRANCH  21  22
ENDBRANCH  20  21
ENDBRANCH   8  20
BRANCH  15  24
HETATM   24  C14 UNL     1      39.393  29.798  32.991  1.00  0.00    -0.014 C 
HETATM   25  C15 UNL     1      38.088  29.708  32.178  1.00  0.00     0.010 C 
BRANCH  24  26
HETATM   26  C16 UNL     1      39.599  28.477  33.665  1.00  0.00     0.000 C 
HETATM   27  C17 UNL     1      39.081  28.486  35.087  1.00  0.00     0.005 C 
ENDBRANCH  24  26
ENDBRANCH  15  24
ENDBRANCH   5   8
ENDBRANCH   3   4
TORSDOF 7
ENDMDL
MODEL 3
REMARK VINA RESULT: -9.727192111      1.836      2.473
REMARK  7 active torsions:
REMARK  status: ('A' for Active; 'I' for Inactive)
REMARK    1  A    between atoms: C3_3  and  N1_4 
REMARK       I    between atoms: N1_4  and  C4_6 
REMARK    2  A    between atoms: C4_6  and  C5_8 
REMARK    3  A    between atoms: C5_8  and  C6_9 
REMARK    4  A    between atoms: C6_9  and  C7_10 
REMARK    5  A    between atoms: C7_10  and  O2_11 
REMARK    6  A    between atoms: C13_18  and  C14_19 
REMARK    7  A    between atoms: C14_19  and  C16_21 
ROOT
HETATM    1  C1  UNL     1      39.467  28.881  36.182  1.00  0.00     0.014 C 
HETATM    2  C2  UNL     1      38.990  28.891  35.067  1.00  0.00    -0.098 C 
HETATM    3  C3  UNL     1      38.407  28.923  33.727  1.00  0.00     0.216 C 
ENDROOT
BRANCH   3   4
HETATM    4  N1  UNL     1      39.055  29.922  32.902  1.00  0.00    -0.350 N 
HETATM    5  C4  UNL     1      40.293  29.676  32.263  1.00  0.00     0.227 C 
HETATM    6  O1  UNL     1      40.856  28.552  32.415  1.00  0.00    -0.273 OA
ATOM      7  H1  UNL     1      38.605  30.830  32.778  1.00  0.00     0.163 HD
BRANCH   5   8
HETATM    8  C5  UNL     1      40.918  30.712  31.435  1.00  0.00     0.043 C 
HETATM    9  C8  UNL     1      42.362  30.396  31.116  1.00  0.00     0.024 C 
HETATM   10  C9  UNL     1      43.103  30.769  32.351  1.00  0.00    -0.008 C 
HETATM   11  C10 UNL     1      44.523  31.192  32.133  1.00  0.00     0.015 C 
HETATM   12  C21 UNL     1      42.380  31.980  32.856  1.00  0.00    -0.004 C 
HETATM   13  C11 UNL     1      44.523  32.696  31.939  1.00  0.00    -0.036 C 
HETATM   14  C12 UNL     1      44.664  32.959  30.478  1.00  0.00     0.016 C 
HETATM   15  C13 UNL     1      45.501  33.387  32.810  1.00  0.00    -0.002 C 
HETATM   16  C20 UNL     1      43.141  33.175  32.390  1.00  0.00    -0.002 C 
HETATM   17  C18 UNL     1      44.737  34.664  33.205  1.00  0.00     0.006 C 
HETATM   18  C19 UNL     1      43.396  34.071  33.580  1.00  0.00     0.006 C 
HETATM   19  C22 UNL     1      41.023  31.999  32.197  1.00  0.00     0.024 C 
BRANCH   8  20
HETATM   20  C6  UNL     1      40.130  30.902  30.139  1.00  0.00     0.045 C 
BRANCH  20  21
HETATM   21  C7  UNL     1      39.944  32.399  29.973  1.00  0.00     0.165 C 
BRANCH  21  22
HETATM   22  O2  UNL     1      38.599  32.652  29.755  1.00  0.00    -0.401 OA
ATOM     23  H2  UNL     1      38.515  33.513  29.363  1.00  0.00     0.209 HD
ENDBRANCH  21  22
ENDBRANCH  20  21
ENDBRANCH   8  20
BRANCH  15  24
HETATM   24  C14 UNL     1      46.773  33.849  32.203  1.00  0.00    -0.014 C 
HETATM   25  C15 UNL     1      47.089  35.191  32.891  1.00  0.00     0.010 C 
BRANCH  24  26
HETATM   26  C16 UNL     1      47.960  32.955  32.388  1.00  0.00     0.000 C 
HETATM   27  C17 UNL     1      48.153  32.573  33.839  1.00  0.00     0.005 C 
ENDBRANCH  24  26
ENDBRANCH  15  24
ENDBRANCH   5   8
ENDBRANCH   3   4
TORSDOF 7
ENDMDL
MODEL 4
REMARK VINA RESULT: -9.611123447      2.889      4.830
REMARK  7 active torsions:
REMARK  status: ('A' for Active; 'I' for Inactive)
REMARK    1  A    between atoms: C3_3  and  N1_4 
REMARK       I    between atoms: N1_4  and  C4_6 
REMARK    2  A    between atoms: C4_6  and  C5_8 
REMARK    3  A    between atoms: C5_8  and  C6_9 
REMARK    4  A    between atoms: C6_9  and  C7_10 
REMARK    5  A    between atoms: C7_10  and  O2_11 
REMARK    6  A    between atoms: C13_18  and  C14_19 
REMARK    7  A    between atoms: C14_19  and  C16_21 
ROOT
HETATM    1  C1  UNL     1      37.574  30.215  31.606  1.00  0.00     0.014 C 
HETATM    2  C2  UNL     1      38.352  30.995  31.098  1.00  0.00    -0.098 C 
HETATM    3  C3  UNL     1      39.295  31.942  30.506  1.00  0.00     0.216 C 
ENDROOT
BRANCH   3   4
HETATM    4  N1  UNL     1      40.663  31.539  30.758  1.00  0.00    -0.350 N 
HETATM    5  C4  UNL     1      41.281  31.737  32.016  1.00  0.00     0.227 C 
HETATM    6  O1  UNL     1      40.622  32.281  32.950  1.00  0.00    -0.273 OA
ATOM      7  H1  UNL     1      41.198  31.101  30.007  1.00  0.00     0.163 HD
BRANCH   5   8
HETATM    8  C5  UNL     1      42.667  31.316  32.234  1.00  0.00     0.043 C 
HETATM    9  C8  UNL     1      43.518  32.426  32.808  1.00  0.00     0.024 C 
HETATM   10  C9  UNL     1      43.840  33.287  31.638  1.00  0.00    -0.008 C 
HETATM   11  C10 UNL     1      45.136  34.031  31.737  1.00  0.00     0.015 C 
HETATM   12  C21 UNL     1      44.000  32.317  30.507  1.00  0.00    -0.004 C 
HETATM   13  C11 UNL     1      46.208  33.158  31.113  1.00  0.00    -0.036 C 
HETATM   14  C12 UNL     1      46.973  32.525  32.226  1.00  0.00     0.016 C 
HETATM   15  C13 UNL     1      47.021  33.878  30.108  1.00  0.00    -0.002 C 
HETATM   16  C20 UNL     1      45.462  32.062  30.349  1.00  0.00    -0.002 C 
HETATM   17  C18 UNL     1      47.237  32.798  29.033  1.00  0.00     0.006 C 
HETATM   18  C19 UNL     1      45.826  32.267  28.897  1.00  0.00     0.006 C 
HETATM   19  C22 UNL     1      43.340  31.027  30.926  1.00  0.00     0.024 C 
BRANCH   8  20
HETATM   20  C6  UNL     1      42.713  30.098  33.158  1.00  0.00     0.045 C 
BRANCH  20  21
HETATM   21  C7  UNL     1      42.338  28.903  32.299  1.00  0.00     0.165 C 
BRANCH  21  22
HETATM   22  O2  UNL     1      41.155  28.370  32.783  1.00  0.00    -0.401 OA
ATOM     23  H2  UNL     1      40.914  28.839  33.574  1.00  0.00     0.209 HD
ENDBRANCH  21  22
ENDBRANCH  20  21
ENDBRANCH   8  20
BRANCH  15  24
HETATM   24  C14 UNL     1      48.378  34.332  30.502  1.00  0.00    -0.014 C 
HETATM   25  C15 UNL     1      49.352  33.405  29.749  1.00  0.00     0.010 C 
BRANCH  24  26
HETATM   26  C16 UNL     1      48.733  35.744  30.150  1.00  0.00     0.000 C 
HETATM   27  C17 UNL     1      48.833  35.941  28.653  1.00  0.00     0.005 C 
ENDBRANCH  24  26
ENDBRANCH  15  24
ENDBRANCH   5   8
ENDBRANCH   3   4
TORSDOF 7
ENDMDL
MODEL 5
REMARK VINA RESULT: -9.531065317      1.631      2.109
REMARK  7 active torsions:
REMARK  status: ('A' for Active; 'I' for Inactive)
REMARK    1  A    between atoms: C3_3  and  N1_4 
REMARK       I    between atoms: N1_4  and  C4_6 
REMARK    2  A    between atoms: C4_6  and  C5_8 
REMARK    3  A    between atoms: C5_8  and  C6_9 
REMARK    4  A    between atoms: C6_9  and  C7_10 
REMARK    5  A    between atoms: C7_10  and  O2_11 
REMARK    6  A    between atoms: C13_18  and  C14_19 
REMARK    7  A    between atoms: C14_19  and  C16_21 
ROOT
HETATM    1  C1  UNL     1      39.042  28.591  36.873  1.00  0.00     0.014 C 
HETATM    2  C2  UNL     1      38.827  28.399  35.695  1.00  0.00    -0.098 C 
HETATM    3  C3  UNL     1      38.553  28.182  34.275  1.00  0.00     0.216 C 
ENDROOT
BRANCH   3   4
HETATM    4  N1  UNL     1      38.954  29.329  33.487  1.00  0.00    -0.350 N 
HETATM    5  C4  UNL     1      40.124  29.316  32.690  1.00  0.00     0.227 C 
HETATM    6  O1  UNL     1      40.844  28.275  32.664  1.00  0.00    -0.273 OA
ATOM      7  H1  UNL     1      38.377  30.170  33.507  1.00  0.00     0.163 HD
BRANCH   5   8
HETATM    8  C5  UNL     1      40.498  30.496  31.906  1.00  0.00     0.043 C 
HETATM    9  C8  UNL     1      41.850  30.341  31.248  1.00  0.00     0.024 C 
HETATM   10  C9  UNL     1      42.825  30.612  32.339  1.00  0.00    -0.008 C 
HETATM   11  C10 UNL     1      44.138  31.172  31.889  1.00  0.00     0.015 C 
HETATM   12  C21 UNL     1      42.169  31.686  33.152  1.00  0.00    -0.004 C 
HETATM   13  C11 UNL     1      44.019  32.684  31.916  1.00  0.00    -0.036 C 
HETATM   14  C12 UNL     1      43.822  33.142  30.510  1.00  0.00     0.016 C 
HETATM   15  C13 UNL     1      45.128  33.334  32.650  1.00  0.00    -0.002 C 
HETATM   16  C20 UNL     1      42.748  32.988  32.711  1.00  0.00    -0.002 C 
HETATM   17  C18 UNL     1      44.405  34.485  33.374  1.00  0.00     0.006 C 
HETATM   18  C19 UNL     1      43.211  33.743  33.936  1.00  0.00     0.006 C 
HETATM   19  C22 UNL     1      40.701  31.680  32.803  1.00  0.00     0.024 C 
BRANCH   8  20
HETATM   20  C6  UNL     1      39.436  30.785  30.845  1.00  0.00     0.045 C 
BRANCH  20  21
HETATM   21  C7  UNL     1      39.870  32.063  30.150  1.00  0.00     0.165 C 
BRANCH  21  22
HETATM   22  O2  UNL     1      38.738  32.726  29.703  1.00  0.00    -0.401 OA
ATOM     23  H2  UNL     1      38.747  33.608  30.055  1.00  0.00     0.209 HD
ENDBRANCH  21  22
ENDBRANCH  20  21
ENDBRANCH   8  20
BRANCH  15  24
HETATM   24  C14 UNL     1      46.210  33.972  31.861  1.00  0.00    -0.014 C 
HETATM   25  C15 UNL     1      46.921  34.925  32.840  1.00  0.00     0.010 C 
BRANCH  24  26
HETATM   26  C16 UNL     1      47.246  33.051  31.292  1.00  0.00     0.000 C 
HETATM   27  C17 UNL     1      47.479  33.312  29.820  1.00  0.00     0.005 C 
ENDBRANCH  24  26
ENDBRANCH  15  24
ENDBRANCH   5   8
ENDBRANCH   3   4
TORSDOF 7
ENDMDL
