MODEL 1
REMARK VINA RESULT: -9.051305431      0.000      0.000
REMARK  8 active torsions:
REMARK  status: ('A' for Active; 'I' for Inactive)
REMARK    1  A    between atoms: C2_2  and  N1_3 
REMARK    2  A    between atoms: N1_3  and  C4_5 
REMARK    3  A    between atoms: C4_5  and  C5_6 
REMARK    4  A    between atoms: C5_6  and  C6_7 
REMARK    5  A    between atoms: C15_20  and  C16_21 
REMARK    6  A    between atoms: C16_21  and  O3_23 
REMARK    7  A    between atoms: C16_21  and  C18_25 
REMARK    8  A    between atoms: C23_30  and  O4_31 
ROOT
HETATM    1  C6  UNL     1      50.515  31.638  29.444  1.00  0.00    -0.025 A 
HETATM    2  C7  UNL     1      51.981  31.357  29.907  1.00  0.00     0.016 C 
HETATM    3  C8  UNL     1      49.561  30.928  30.231  1.00  0.00     0.092 A 
HETATM    4  C9  UNL     1      49.572  29.607  30.806  1.00  0.00     0.225 C 
HETATM    5  O1  UNL     1      50.154  29.348  31.876  1.00  0.00    -0.273 OA
HETATM    6  N2  UNL     1      48.876  28.609  30.081  1.00  0.00    -0.328 N 
ATOM      7  H2  UNL     1      48.746  27.700  30.524  1.00  0.00     0.165 HD
HETATM    8  C10 UNL     1      48.332  28.803  28.739  1.00  0.00     0.143 C 
HETATM    9  C11 UNL     1      49.123  27.855  27.859  1.00  0.00     0.072 C 
HETATM   10  O2  UNL     1      46.971  28.394  28.658  1.00  0.00    -0.319 OA
HETATM   11  C12 UNL     1      46.046  29.244  29.329  1.00  0.00     0.078 A 
HETATM   12  C13 UNL     1      45.000  28.752  30.072  1.00  0.00     0.038 A 
HETATM   13  C14 UNL     1      44.136  29.647  30.705  1.00  0.00     0.013 A 
HETATM   14  C15 UNL     1      44.323  31.008  30.593  1.00  0.00    -0.019 A 
HETATM   15  C25 UNL     1      45.376  31.441  29.844  1.00  0.00     0.020 A 
HETATM   16  C26 UNL     1      46.272  30.583  29.187  1.00  0.00    -0.024 A 
HETATM   17  C27 UNL     1      47.364  31.085  28.359  1.00  0.00     0.051 C 
HETATM   18  C28 UNL     1      48.517  30.225  28.263  1.00  0.00     0.051 C 
HETATM   19  C29 UNL     1      49.853  30.634  28.733  1.00  0.00     0.017 A 
ENDROOT
BRANCH  14  20
HETATM   20  C16 UNL     1      43.376  31.919  31.288  1.00  0.00     0.111 C 
HETATM   21  C17 UNL     1      44.150  32.894  32.144  1.00  0.00     0.057 C 
BRANCH  20  22
HETATM   22  O3  UNL     1      42.775  32.689  30.283  1.00  0.00    -0.380 OA
ATOM     23  H3  UNL     1      41.902  32.332  30.167  1.00  0.00     0.211 HD
ENDBRANCH  20  22
BRANCH  20  24
HETATM   24  C18 UNL     1      42.313  31.220  32.019  1.00  0.00     0.014 A 
HETATM   25  C19 UNL     1      42.607  30.132  32.826  1.00  0.00     0.013 A 
HETATM   26  C20 UNL     1      41.666  29.427  33.543  1.00  0.00     0.001 A 
HETATM   27  C21 UNL     1      40.348  29.817  33.461  1.00  0.00     0.003 A 
HETATM   28  C22 UNL     1      40.015  30.888  32.674  1.00  0.00     0.037 A 
HETATM   29  C23 UNL     1      40.971  31.575  31.969  1.00  0.00     0.077 A 
BRANCH  29  30
HETATM   30  O4  UNL     1      40.613  32.638  31.194  1.00  0.00    -0.355 OA
HETATM   31  C24 UNL     1      39.387  32.811  30.519  1.00  0.00     0.210 C 
ENDBRANCH  29  30
ENDBRANCH  20  24
ENDBRANCH  14  20
BRANCH   1  32
HETATM   32  C5  UNL     1      50.368  33.117  29.226  1.00  0.00     0.040 C 
BRANCH  32  33
HETATM   33  C4  UNL     1      49.603  33.765  30.395  1.00  0.00     0.272 C 
BRANCH  33  34
HETATM   34  N1  UNL     1      48.678  34.714  29.832  1.00  0.00     0.083 N 
HETATM   35  C3  UNL     1      47.318  34.449  30.222  1.00  0.00     0.309 C 
BRANCH  34  36
HETATM   36  C2  UNL     1      48.830  34.811  28.402  1.00  0.00     0.267 C 
HETATM   37  C1  UNL     1      49.150  36.271  28.096  1.00  0.00     0.037 C 
ENDBRANCH  34  36
ENDBRANCH  33  34
ENDBRANCH  32  33
ENDBRANCH   1  32
TORSDOF 8
ENDMDL
MODEL 2
REMARK VINA RESULT: -8.904592600      1.077      1.615
REMARK  8 active torsions:
REMARK  status: ('A' for Active; 'I' for Inactive)
REMARK    1  A    between atoms: C2_2  and  N1_3 
REMARK    2  A    between atoms: N1_3  and  C4_5 
REMARK    3  A    between atoms: C4_5  and  C5_6 
REMARK    4  A    between atoms: C5_6  and  C6_7 
REMARK    5  A    between atoms: C15_20  and  C16_21 
REMARK    6  A    between atoms: C16_21  and  O3_23 
REMARK    7  A    between atoms: C16_21  and  C18_25 
REMARK    8  A    between atoms: C23_30  and  O4_31 
ROOT
HETATM    1  C6  UNL     1      50.481  31.135  29.385  1.00  0.00    -0.025 A 
HETATM    2  C7  UNL     1      51.931  30.751  29.824  1.00  0.00     0.016 C 
HETATM    3  C8  UNL     1      49.493  30.507  30.198  1.00  0.00     0.092 A 
HETATM    4  C9  UNL     1      49.417  29.197  30.791  1.00  0.00     0.225 C 
HETATM    5  O1  UNL     1      49.999  28.909  31.854  1.00  0.00    -0.273 OA
HETATM    6  N2  UNL     1      48.635  28.245  30.094  1.00  0.00    -0.328 N 
ATOM      7  H2  UNL     1      48.447  27.353  30.552  1.00  0.00     0.165 HD
HETATM    8  C10 UNL     1      48.081  28.461  28.759  1.00  0.00     0.143 C 
HETATM    9  C11 UNL     1      48.782  27.446  27.878  1.00  0.00     0.072 C 
HETATM   10  O2  UNL     1      46.693  28.153  28.709  1.00  0.00    -0.319 OA
HETATM   11  C12 UNL     1      45.846  29.078  29.385  1.00  0.00     0.078 A 
HETATM   12  C13 UNL     1      44.781  28.675  30.153  1.00  0.00     0.038 A 
HETATM   13  C14 UNL     1      43.998  29.640  30.790  1.00  0.00     0.013 A 
HETATM   14  C15 UNL     1      44.284  30.982  30.655  1.00  0.00    -0.019 A 
HETATM   15  C25 UNL     1      45.351  31.326  29.882  1.00  0.00     0.020 A 
HETATM   16  C26 UNL     1      46.168  30.395  29.220  1.00  0.00    -0.024 A 
HETATM   17  C27 UNL     1      47.277  30.804  28.365  1.00  0.00     0.051 C 
HETATM   18  C28 UNL     1      48.362  29.860  28.260  1.00  0.00     0.051 C 
HETATM   19  C29 UNL     1      49.733  30.174  28.699  1.00  0.00     0.017 A 
ENDROOT
BRANCH  14  20
HETATM   20  C16 UNL     1      43.420  31.970  31.355  1.00  0.00     0.111 C 
HETATM   21  C17 UNL     1      44.285  32.940  32.124  1.00  0.00     0.057 C 
BRANCH  20  22
HETATM   22  O3  UNL     1      42.805  32.724  30.347  1.00  0.00    -0.380 OA
ATOM     23  H3  UNL     1      42.633  33.577  30.728  1.00  0.00     0.211 HD
ENDBRANCH  20  22
BRANCH  20  24
HETATM   24  C18 UNL     1      42.365  31.358  32.171  1.00  0.00     0.014 A 
HETATM   25  C19 UNL     1      42.664  30.350  33.074  1.00  0.00     0.013 A 
HETATM   26  C20 UNL     1      41.730  29.729  33.874  1.00  0.00     0.001 A 
HETATM   27  C21 UNL     1      40.415  30.127  33.780  1.00  0.00     0.003 A 
HETATM   28  C22 UNL     1      40.078  31.121  32.900  1.00  0.00     0.037 A 
HETATM   29  C23 UNL     1      41.027  31.724  32.113  1.00  0.00     0.077 A 
BRANCH  29  30
HETATM   30  O4  UNL     1      40.664  32.711  31.245  1.00  0.00    -0.355 OA
HETATM   31  C24 UNL     1      39.458  32.790  30.518  1.00  0.00     0.210 C 
ENDBRANCH  29  30
ENDBRANCH  20  24
ENDBRANCH  14  20
BRANCH   1  32
HETATM   32  C5  UNL     1      50.441  32.617  29.148  1.00  0.00     0.040 C 
BRANCH  32  33
HETATM   33  C4  UNL     1      50.056  33.362  30.440  1.00  0.00     0.272 C 
BRANCH  33  34
HETATM   34  N1  UNL     1      51.132  34.266  30.754  1.00  0.00     0.083 N 
HETATM   35  C3  UNL     1      51.940  34.574  29.603  1.00  0.00     0.309 C 
BRANCH  34  36
HETATM   36  C2  UNL     1      51.918  33.783  31.862  1.00  0.00     0.267 C 
HETATM   37  C1  UNL     1      50.963  33.014  32.771  1.00  0.00     0.037 C 
ENDBRANCH  34  36
ENDBRANCH  33  34
ENDBRANCH  32  33
ENDBRANCH   1  32
TORSDOF 8
ENDMDL
MODEL 3
REMARK VINA RESULT: -8.814740169      1.024      1.876
REMARK  8 active torsions:
REMARK  status: ('A' for Active; 'I' for Inactive)
REMARK    1  A    between atoms: C2_2  and  N1_3 
REMARK    2  A    between atoms: N1_3  and  C4_5 
REMARK    3  A    between atoms: C4_5  and  C5_6 
REMARK    4  A    between atoms: C5_6  and  C6_7 
REMARK    5  A    between atoms: C15_20  and  C16_21 
REMARK    6  A    between atoms: C16_21  and  O3_23 
REMARK    7  A    between atoms: C16_21  and  C18_25 
REMARK    8  A    between atoms: C23_30  and  O4_31 
ROOT
HETATM    1  C6  UNL     1      50.176  31.029  28.814  1.00  0.00    -0.025 A 
HETATM    2  C7  UNL     1      51.665  30.688  29.145  1.00  0.00     0.016 C 
HETATM    3  C8  UNL     1      49.282  30.541  29.812  1.00  0.00     0.092 A 
HETATM    4  C9  UNL     1      49.270  29.331  30.593  1.00  0.00     0.225 C 
HETATM    5  O1  UNL     1      49.965  29.190  31.617  1.00  0.00    -0.273 OA
HETATM    6  N2  UNL     1      48.417  28.301  30.130  1.00  0.00    -0.328 N 
ATOM      7  H2  UNL     1      48.279  27.488  30.729  1.00  0.00     0.165 HD
HETATM    8  C10 UNL     1      47.720  28.332  28.846  1.00  0.00     0.143 C 
HETATM    9  C11 UNL     1      48.321  27.189  28.050  1.00  0.00     0.072 C 
HETATM   10  O2  UNL     1      46.334  28.043  28.991  1.00  0.00    -0.319 OA
HETATM   11  C12 UNL     1      45.567  29.070  29.613  1.00  0.00     0.078 A 
HETATM   12  C13 UNL     1      44.593  28.799  30.542  1.00  0.00     0.038 A 
HETATM   13  C14 UNL     1      43.885  29.858  31.113  1.00  0.00     0.013 A 
HETATM   14  C15 UNL     1      44.154  31.162  30.755  1.00  0.00    -0.019 A 
HETATM   15  C25 UNL     1      45.130  31.373  29.829  1.00  0.00     0.020 A 
HETATM   16  C26 UNL     1      45.870  30.343  29.224  1.00  0.00    -0.024 A 
HETATM   17  C27 UNL     1      46.880  30.607  28.205  1.00  0.00     0.051 C 
HETATM   18  C28 UNL     1      47.946  29.639  28.121  1.00  0.00     0.051 C 
HETATM   19  C29 UNL     1      49.357  29.991  28.360  1.00  0.00     0.017 A 
ENDROOT
BRANCH  14  20
HETATM   20  C16 UNL     1      43.372  32.254  31.393  1.00  0.00     0.111 C 
HETATM   21  C17 UNL     1      43.905  32.509  32.783  1.00  0.00     0.057 C 
BRANCH  20  22
HETATM   22  O3  UNL     1      43.658  33.412  30.657  1.00  0.00    -0.380 OA
ATOM     23  H3  UNL     1      43.916  34.068  31.294  1.00  0.00     0.211 HD
ENDBRANCH  20  22
BRANCH  20  24
HETATM   24  C18 UNL     1      41.921  32.041  31.356  1.00  0.00     0.014 A 
HETATM   25  C19 UNL     1      41.165  32.505  30.292  1.00  0.00     0.013 A 
HETATM   26  C20 UNL     1      39.800  32.342  30.186  1.00  0.00     0.001 A 
HETATM   27  C21 UNL     1      39.137  31.679  31.194  1.00  0.00     0.003 A 
HETATM   28  C22 UNL     1      39.849  31.204  32.264  1.00  0.00     0.037 A 
HETATM   29  C23 UNL     1      41.208  31.379  32.347  1.00  0.00     0.077 A 
BRANCH  29  30
HETATM   30  O4  UNL     1      41.892  30.896  33.422  1.00  0.00    -0.355 OA
HETATM   31  C24 UNL     1      41.337  30.286  34.567  1.00  0.00     0.210 C 
ENDBRANCH  29  30
ENDBRANCH  20  24
ENDBRANCH  14  20
BRANCH   1  32
HETATM   32  C5  UNL     1      50.111  32.462  28.370  1.00  0.00     0.040 C 
BRANCH  32  33
HETATM   33  C4  UNL     1      49.494  33.343  29.473  1.00  0.00     0.272 C 
BRANCH  33  34
HETATM   34  N1  UNL     1      48.731  34.377  28.823  1.00  0.00     0.083 N 
HETATM   35  C3  UNL     1      49.183  35.696  29.180  1.00  0.00     0.309 C 
BRANCH  34  36
HETATM   36  C2  UNL     1      47.317  34.204  29.043  1.00  0.00     0.267 C 
HETATM   37  C1  UNL     1      47.099  34.277  30.551  1.00  0.00     0.037 C 
ENDBRANCH  34  36
ENDBRANCH  33  34
ENDBRANCH  32  33
ENDBRANCH   1  32
TORSDOF 8
ENDMDL
MODEL 4
REMARK VINA RESULT: -8.507468958      3.442      7.256
REMARK  8 active torsions:
REMARK  status: ('A' for Active; 'I' for Inactive)
REMARK    1  A    between atoms: C2_2  and  N1_3 
REMARK    2  A    between atoms: N1_3  and  C4_5 
REMARK    3  A    between atoms: C4_5  and  C5_6 
REMARK    4  A    between atoms: C5_6  and  C6_7 
REMARK    5  A    between atoms: C15_20  and  C16_21 
REMARK    6  A    between atoms: C16_21  and  O3_23 
REMARK    7  A    between atoms: C16_21  and  C18_25 
REMARK    8  A    between atoms: C23_30  and  O4_31 
ROOT
HETATM    1  C6  UNL     1      50.246  24.583  28.588  1.00  0.00    -0.025 A 
HETATM    2  C7  UNL     1      51.290  23.528  28.097  1.00  0.00     0.016 C 
HETATM    3  C8  UNL     1      50.828  25.874  28.754  1.00  0.00     0.092 A 
HETATM    4  C9  UNL     1      52.115  26.300  29.242  1.00  0.00     0.225 C 
HETATM    5  O1  UNL     1      53.136  26.295  28.529  1.00  0.00    -0.273 OA
HETATM    6  N2  UNL     1      52.155  26.731  30.590  1.00  0.00    -0.328 N 
ATOM      7  H2  UNL     1      53.013  27.167  30.927  1.00  0.00     0.165 HD
HETATM    8  C10 UNL     1      51.043  26.590  31.527  1.00  0.00     0.143 C 
HETATM    9  C11 UNL     1      51.547  25.629  32.586  1.00  0.00     0.072 C 
HETATM   10  O2  UNL     1      50.757  27.815  32.193  1.00  0.00    -0.319 OA
HETATM   11  C12 UNL     1      50.153  28.816  31.379  1.00  0.00     0.078 A 
HETATM   12  C13 UNL     1      50.516  30.139  31.450  1.00  0.00     0.038 A 
HETATM   13  C14 UNL     1      49.882  31.063  30.616  1.00  0.00     0.013 A 
HETATM   14  C15 UNL     1      48.906  30.661  29.731  1.00  0.00    -0.019 A 
HETATM   15  C25 UNL     1      48.585  29.338  29.702  1.00  0.00     0.020 A 
HETATM   16  C26 UNL     1      49.191  28.370  30.519  1.00  0.00    -0.024 A 
HETATM   17  C27 UNL     1      48.791  26.966  30.490  1.00  0.00     0.051 C 
HETATM   18  C28 UNL     1      49.816  26.020  30.853  1.00  0.00     0.051 C 
HETATM   19  C29 UNL     1      50.312  24.990  29.924  1.00  0.00     0.017 A 
ENDROOT
BRANCH  14  20
HETATM   20  C16 UNL     1      48.262  31.684  28.864  1.00  0.00     0.111 C 
HETATM   21  C17 UNL     1      49.326  32.559  28.242  1.00  0.00     0.057 C 
BRANCH  20  22
HETATM   22  O3  UNL     1      47.681  30.978  27.802  1.00  0.00    -0.380 OA
ATOM     23  H3  UNL     1      46.815  31.352  27.684  1.00  0.00     0.211 HD
ENDBRANCH  20  22
BRANCH  20  24
HETATM   24  C18 UNL     1      47.203  32.446  29.536  1.00  0.00     0.014 A 
HETATM   25  C19 UNL     1      47.442  33.729  30.003  1.00  0.00     0.013 A 
HETATM   26  C20 UNL     1      46.499  34.505  30.642  1.00  0.00     0.001 A 
HETATM   27  C21 UNL     1      45.239  33.984  30.833  1.00  0.00     0.003 A 
HETATM   28  C22 UNL     1      44.962  32.719  30.386  1.00  0.00     0.037 A 
HETATM   29  C23 UNL     1      45.918  31.965  29.752  1.00  0.00     0.077 A 
BRANCH  29  30
HETATM   30  O4  UNL     1      45.617  30.710  29.316  1.00  0.00    -0.355 OA
HETATM   31  C24 UNL     1      44.847  29.745  29.999  1.00  0.00     0.210 C 
ENDBRANCH  29  30
ENDBRANCH  20  24
ENDBRANCH  14  20
BRANCH   1  32
HETATM   32  C5  UNL     1      48.992  24.413  27.779  1.00  0.00     0.040 C 
BRANCH  32  33
HETATM   33  C4  UNL     1      47.873  23.793  28.638  1.00  0.00     0.272 C 
BRANCH  33  34
HETATM   34  N1  UNL     1      48.000  22.362  28.544  1.00  0.00     0.083 N 
HETATM   35  C3  UNL     1      47.160  21.805  27.516  1.00  0.00     0.309 C 
BRANCH  34  36
HETATM   36  C2  UNL     1      47.793  21.731  29.823  1.00  0.00     0.267 C 
HETATM   37  C1  UNL     1      49.177  21.411  30.380  1.00  0.00     0.037 C 
ENDBRANCH  34  36
ENDBRANCH  33  34
ENDBRANCH  32  33
ENDBRANCH   1  32
TORSDOF 8
ENDMDL
MODEL 5
REMARK VINA RESULT: -8.266614476      2.375      5.550
REMARK  8 active torsions:
REMARK  status: ('A' for Active; 'I' for Inactive)
REMARK    1  A    between atoms: C2_2  and  N1_3 
REMARK    2  A    between atoms: N1_3  and  C4_5 
REMARK    3  A    between atoms: C4_5  and  C5_6 
REMARK    4  A    between atoms: C5_6  and  C6_7 
REMARK    5  A    between atoms: C15_20  and  C16_21 
REMARK    6  A    between atoms: C16_21  and  O3_23 
REMARK    7  A    between atoms: C16_21  and  C18_25 
REMARK    8  A    between atoms: C23_30  and  O4_31 
ROOT
HETATM    1  C6  UNL     1      52.342  30.156  31.531  1.00  0.00    -0.025 A 
HETATM    2  C7  UNL     1      53.437  29.125  31.105  1.00  0.00     0.016 C 
HETATM    3  C8  UNL     1      51.654  30.699  30.406  1.00  0.00     0.092 A 
HETATM    4  C9  UNL     1      52.099  31.081  29.090  1.00  0.00     0.225 C 
HETATM    5  O1  UNL     1      52.263  30.253  28.174  1.00  0.00    -0.273 OA
HETATM    6  N2  UNL     1      52.342  32.461  28.894  1.00  0.00    -0.328 N 
ATOM      7  H2  UNL     1      52.525  32.784  27.944  1.00  0.00     0.165 HD
HETATM    8  C10 UNL     1      52.348  33.452  29.968  1.00  0.00     0.143 C 
HETATM    9  C11 UNL     1      53.776  33.956  30.024  1.00  0.00     0.072 C 
HETATM   10  O2  UNL     1      51.532  34.574  29.653  1.00  0.00    -0.319 OA
HETATM   11  C12 UNL     1      50.129  34.324  29.674  1.00  0.00     0.078 A 
HETATM   12  C13 UNL     1      49.278  34.832  28.724  1.00  0.00     0.038 A 
HETATM   13  C14 UNL     1      47.915  34.539  28.807  1.00  0.00     0.013 A 
HETATM   14  C15 UNL     1      47.422  33.752  29.826  1.00  0.00    -0.019 A 
HETATM   15  C25 UNL     1      48.311  33.276  30.741  1.00  0.00     0.020 A 
HETATM   16  C26 UNL     1      49.690  33.541  30.703  1.00  0.00    -0.024 A 
HETATM   17  C27 UNL     1      50.605  33.047  31.726  1.00  0.00     0.051 C 
HETATM   18  C28 UNL     1      51.965  32.836  31.294  1.00  0.00     0.051 C 
HETATM   19  C29 UNL     1      52.610  31.512  31.323  1.00  0.00     0.017 A 
ENDROOT
BRANCH  14  20
HETATM   20  C16 UNL     1      45.963  33.470  29.869  1.00  0.00     0.111 C 
HETATM   21  C17 UNL     1      45.340  34.215  31.026  1.00  0.00     0.057 C 
BRANCH  20  22
HETATM   22  O3  UNL     1      45.425  34.048  28.711  1.00  0.00    -0.380 OA
ATOM     23  H3  UNL     1      44.489  34.108  28.860  1.00  0.00     0.211 HD
ENDBRANCH  20  22
BRANCH  20  24
HETATM   24  C18 UNL     1      45.638  32.040  29.854  1.00  0.00     0.014 A 
HETATM   25  C19 UNL     1      46.476  31.130  29.229  1.00  0.00     0.013 A 
HETATM   26  C20 UNL     1      46.238  29.774  29.174  1.00  0.00     0.001 A 
HETATM   27  C21 UNL     1      45.102  29.280  29.775  1.00  0.00     0.003 A 
HETATM   28  C22 UNL     1      44.248  30.146  30.405  1.00  0.00     0.037 A 
HETATM   29  C23 UNL     1      44.506  31.494  30.446  1.00  0.00     0.077 A 
BRANCH  29  30
HETATM   30  O4  UNL     1      43.640  32.334  31.079  1.00  0.00    -0.355 OA
HETATM   31  C24 UNL     1      42.269  32.103  31.320  1.00  0.00     0.210 C 
ENDBRANCH  29  30
ENDBRANCH  20  24
ENDBRANCH  14  20
BRANCH   1  32
HETATM   32  C5  UNL     1      51.575  29.576  32.684  1.00  0.00     0.040 C 
BRANCH  32  33
HETATM   33  C4  UNL     1      51.769  28.049  32.750  1.00  0.00     0.272 C 
BRANCH  33  34
HETATM   34  N1  UNL     1      50.479  27.441  32.557  1.00  0.00     0.083 N 
HETATM   35  C3  UNL     1      50.223  26.388  33.504  1.00  0.00     0.309 C 
BRANCH  34  36
HETATM   36  C2  UNL     1      50.300  27.007  31.194  1.00  0.00     0.267 C 
HETATM   37  C1  UNL     1      49.180  27.862  30.608  1.00  0.00     0.037 C 
ENDBRANCH  34  36
ENDBRANCH  33  34
ENDBRANCH  32  33
ENDBRANCH   1  32
TORSDOF 8
ENDMDL
