MODEL 1
REMARK VINA RESULT: -7.469342881      0.000      0.000
REMARK  8 active torsions:
REMARK  status: ('A' for Active; 'I' for Inactive)
REMARK    1  A    between atoms: C2_2  and  C3_3 
REMARK    2  A    between atoms: C3_3  and  C4_4 
REMARK    3  A    between atoms: C3_3  and  C7_7 
REMARK    4  A    between atoms: C14_15  and  C15_16 
REMARK    5  A    between atoms: C15_16  and  C16_17 
REMARK       I    between atoms: C16_17  and  N1_19 
REMARK    6  A    between atoms: N1_19  and  C17_21 
REMARK    7  A    between atoms: C17_21  and  C20_24 
REMARK    8  A    between atoms: C20_24  and  O3_25 
ROOT
HETATM    1  C7  UNL     1      49.795  28.887  31.220  1.00  0.00     0.204 C 
HETATM    2  O1  UNL     1      49.827  30.220  31.362  1.00  0.00    -0.371 OA
HETATM    3  C8  UNL     1      50.048  31.082  30.315  1.00  0.00     0.139 C 
HETATM    4  C9  UNL     1      50.116  32.422  30.954  1.00  0.00     0.034 C 
HETATM    5  C10 UNL     1      49.636  33.626  30.268  1.00  0.00     0.007 C 
HETATM    6  C11 UNL     1      48.172  33.770  30.044  1.00  0.00    -0.014 C 
HETATM    7  C12 UNL     1      47.891  34.578  28.800  1.00  0.00     0.010 C 
HETATM    8  C13 UNL     1      47.449  32.457  30.078  1.00  0.00    -0.001 C 
HETATM    9  C14 UNL     1      45.996  32.691  29.618  1.00  0.00    -0.001 C 
HETATM   10  C21 UNL     1      45.514  31.250  29.599  1.00  0.00     0.006 C 
HETATM   11  C22 UNL     1      46.740  30.406  29.288  1.00  0.00     0.007 C 
HETATM   12  C23 UNL     1      47.842  31.443  29.092  1.00  0.00     0.009 C 
HETATM   13  C24 UNL     1      49.199  30.899  29.108  1.00  0.00     0.055 C 
HETATM   14  C25 UNL     1      49.971  31.396  27.864  1.00  0.00     0.027 C 
HETATM   15  C26 UNL     1      49.097  29.442  28.858  1.00  0.00     0.208 C 
HETATM   16  O4  UNL     1      48.676  29.029  27.759  1.00  0.00    -0.288 OA
HETATM   17  C27 UNL     1      49.473  28.475  29.849  1.00  0.00     0.224 C 
HETATM   18  O5  UNL     1      49.528  27.248  29.539  1.00  0.00    -0.286 OA
ENDROOT
BRANCH   9  19
HETATM   19  C15 UNL     1      45.193  33.381  30.684  1.00  0.00     0.108 C 
BRANCH  19  20
HETATM   20  C16 UNL     1      44.099  32.435  31.094  1.00  0.00     0.218 C 
HETATM   21  O2  UNL     1      44.353  31.459  31.843  1.00  0.00    -0.274 OA
HETATM   22  N1  UNL     1      42.775  32.629  30.648  1.00  0.00    -0.350 N 
ATOM     23  H1  UNL     1      42.631  33.435  30.040  1.00  0.00     0.163 HD
BRANCH  22  24
HETATM   24  C17 UNL     1      41.620  31.859  30.926  1.00  0.00     0.046 C 
HETATM   25  C18 UNL     1      41.805  30.451  30.393  1.00  0.00     0.040 C 
HETATM   26  C19 UNL     1      40.418  32.415  30.110  1.00  0.00     0.040 C 
BRANCH  24  27
HETATM   27  C20 UNL     1      41.172  31.792  32.357  1.00  0.00     0.194 C 
BRANCH  27  28
HETATM   28  O3  UNL     1      41.702  32.748  33.197  1.00  0.00    -0.398 OA
ATOM     29  H3  UNL     1      42.651  32.780  33.239  1.00  0.00     0.209 HD
ENDBRANCH  27  28
ENDBRANCH  24  27
ENDBRANCH  22  24
ENDBRANCH  19  20
ENDBRANCH   9  19
BRANCH   1  30
HETATM   30  C3  UNL     1      50.969  28.155  31.832  1.00  0.00     0.025 C 
BRANCH  30  31
HETATM   31  C2  UNL     1      50.736  27.568  33.170  1.00  0.00     0.003 C 
HETATM   32  C1  UNL     1      50.256  26.153  33.178  1.00  0.00     0.005 C 
ENDBRANCH  30  31
BRANCH  30  33
HETATM   33  C4  UNL     1      52.293  28.849  31.677  1.00  0.00    -0.016 C 
HETATM   34  C5  UNL     1      53.324  28.199  32.637  1.00  0.00     0.010 C 
HETATM   35  C6  UNL     1      52.882  28.666  30.300  1.00  0.00     0.010 C 
ENDBRANCH  30  33
ENDBRANCH   1  30
TORSDOF 8
ENDMDL
MODEL 2
REMARK VINA RESULT: -7.426114106      4.298      7.923
REMARK  8 active torsions:
REMARK  status: ('A' for Active; 'I' for Inactive)
REMARK    1  A    between atoms: C2_2  and  C3_3 
REMARK    2  A    between atoms: C3_3  and  C4_4 
REMARK    3  A    between atoms: C3_3  and  C7_7 
REMARK    4  A    between atoms: C14_15  and  C15_16 
REMARK    5  A    between atoms: C15_16  and  C16_17 
REMARK       I    between atoms: C16_17  and  N1_19 
REMARK    6  A    between atoms: N1_19  and  C17_21 
REMARK    7  A    between atoms: C17_21  and  C20_24 
REMARK    8  A    between atoms: C20_24  and  O3_25 
ROOT
HETATM    1  C7  UNL     1      50.822  31.347  30.807  1.00  0.00     0.204 C 
HETATM    2  O1  UNL     1      49.755  30.561  30.601  1.00  0.00    -0.371 OA
HETATM    3  C8  UNL     1      49.693  29.627  29.596  1.00  0.00     0.139 C 
HETATM    4  C9  UNL     1      48.308  29.094  29.677  1.00  0.00     0.034 C 
HETATM    5  C10 UNL     1      48.000  27.698  29.355  1.00  0.00     0.007 C 
HETATM    6  C11 UNL     1      48.496  26.639  30.274  1.00  0.00    -0.014 C 
HETATM    7  C12 UNL     1      48.753  25.351  29.529  1.00  0.00     0.010 C 
HETATM    8  C13 UNL     1      49.661  27.091  31.103  1.00  0.00    -0.001 C 
HETATM    9  C14 UNL     1      50.232  25.866  31.846  1.00  0.00    -0.001 C 
HETATM   10  C21 UNL     1      51.446  26.518  32.487  1.00  0.00     0.006 C 
HETATM   11  C22 UNL     1      51.860  27.640  31.548  1.00  0.00     0.007 C 
HETATM   12  C23 UNL     1      50.873  27.513  30.391  1.00  0.00     0.009 C 
HETATM   13  C24 UNL     1      50.828  28.671  29.501  1.00  0.00     0.055 C 
HETATM   14  C25 UNL     1      50.977  28.204  28.034  1.00  0.00     0.027 C 
HETATM   15  C26 UNL     1      52.074  29.446  29.715  1.00  0.00     0.208 C 
HETATM   16  O4  UNL     1      53.177  28.944  29.415  1.00  0.00    -0.288 OA
HETATM   17  C27 UNL     1      52.057  30.773  30.260  1.00  0.00     0.224 C 
HETATM   18  O5  UNL     1      53.122  31.460  30.273  1.00  0.00    -0.286 OA
ENDROOT
BRANCH   9  19
HETATM   19  C15 UNL     1      49.337  25.453  32.981  1.00  0.00     0.108 C 
BRANCH  19  20
HETATM   20  C16 UNL     1      49.468  23.963  33.126  1.00  0.00     0.218 C 
HETATM   21  O2  UNL     1      50.265  23.475  33.965  1.00  0.00    -0.274 OA
HETATM   22  N1  UNL     1      48.698  23.092  32.327  1.00  0.00    -0.350 N 
ATOM     23  H1  UNL     1      48.071  23.545  31.663  1.00  0.00     0.163 HD
BRANCH  22  24
HETATM   24  C17 UNL     1      48.676  21.677  32.319  1.00  0.00     0.046 C 
HETATM   25  C18 UNL     1      49.964  21.149  31.718  1.00  0.00     0.040 C 
HETATM   26  C19 UNL     1      47.573  21.181  31.340  1.00  0.00     0.040 C 
BRANCH  24  27
HETATM   27  C20 UNL     1      48.424  20.990  33.630  1.00  0.00     0.194 C 
BRANCH  27  28
HETATM   28  O3  UNL     1      49.547  20.603  34.330  1.00  0.00    -0.398 OA
ATOM     29  H3  UNL     1      50.155  21.299  34.553  1.00  0.00     0.209 HD
ENDBRANCH  27  28
ENDBRANCH  24  27
ENDBRANCH  22  24
ENDBRANCH  19  20
ENDBRANCH   9  19
BRANCH   1  30
HETATM   30  C3  UNL     1      50.611  32.807  30.469  1.00  0.00     0.025 C 
BRANCH  30  31
HETATM   31  C2  UNL     1      50.787  33.758  31.587  1.00  0.00     0.003 C 
HETATM   32  C1  UNL     1      51.139  33.147  32.905  1.00  0.00     0.005 C 
ENDBRANCH  30  31
BRANCH  30  33
HETATM   33  C4  UNL     1      49.420  33.084  29.595  1.00  0.00    -0.016 C 
HETATM   34  C5  UNL     1      48.906  34.521  29.874  1.00  0.00     0.010 C 
HETATM   35  C6  UNL     1      49.769  33.080  28.126  1.00  0.00     0.010 C 
ENDBRANCH  30  33
ENDBRANCH   1  30
TORSDOF 8
ENDMDL
MODEL 3
REMARK VINA RESULT: -7.283999536      4.671      7.675
REMARK  8 active torsions:
REMARK  status: ('A' for Active; 'I' for Inactive)
REMARK    1  A    between atoms: C2_2  and  C3_3 
REMARK    2  A    between atoms: C3_3  and  C4_4 
REMARK    3  A    between atoms: C3_3  and  C7_7 
REMARK    4  A    between atoms: C14_15  and  C15_16 
REMARK    5  A    between atoms: C15_16  and  C16_17 
REMARK       I    between atoms: C16_17  and  N1_19 
REMARK    6  A    between atoms: N1_19  and  C17_21 
REMARK    7  A    between atoms: C17_21  and  C20_24 
REMARK    8  A    between atoms: C20_24  and  O3_25 
ROOT
HETATM    1  C7  UNL     1      52.799  23.829  32.479  1.00  0.00     0.204 C 
HETATM    2  O1  UNL     1      52.181  24.182  31.342  1.00  0.00    -0.371 OA
HETATM    3  C8  UNL     1      50.816  24.284  31.228  1.00  0.00     0.139 C 
HETATM    4  C9  UNL     1      50.589  24.576  29.789  1.00  0.00     0.034 C 
HETATM    5  C10 UNL     1      49.483  25.426  29.341  1.00  0.00     0.007 C 
HETATM    6  C11 UNL     1      49.540  26.879  29.659  1.00  0.00    -0.014 C 
HETATM    7  C12 UNL     1      48.153  27.456  29.808  1.00  0.00     0.010 C 
HETATM    8  C13 UNL     1      50.439  27.181  30.821  1.00  0.00    -0.001 C 
HETATM    9  C14 UNL     1      50.254  28.663  31.204  1.00  0.00    -0.001 C 
HETATM   10  C21 UNL     1      51.127  28.702  32.448  1.00  0.00     0.006 C 
HETATM   11  C22 UNL     1      51.069  27.302  33.039  1.00  0.00     0.007 C 
HETATM   12  C23 UNL     1      50.107  26.567  32.112  1.00  0.00     0.009 C 
HETATM   13  C24 UNL     1      50.121  25.112  32.250  1.00  0.00     0.055 C 
HETATM   14  C25 UNL     1      48.675  24.593  32.426  1.00  0.00     0.027 C 
HETATM   15  C26 UNL     1      50.734  24.796  33.563  1.00  0.00     0.208 C 
HETATM   16  O4  UNL     1      50.158  25.141  34.615  1.00  0.00    -0.288 OA
HETATM   17  C27 UNL     1      51.981  24.096  33.668  1.00  0.00     0.224 C 
HETATM   18  O5  UNL     1      52.386  23.701  34.802  1.00  0.00    -0.286 OA
ENDROOT
BRANCH   9  19
HETATM   19  C15 UNL     1      50.917  29.570  30.206  1.00  0.00     0.108 C 
BRANCH  19  20
HETATM   20  C16 UNL     1      50.723  30.979  30.693  1.00  0.00     0.218 C 
HETATM   21  O2  UNL     1      49.585  31.510  30.662  1.00  0.00    -0.274 OA
HETATM   22  N1  UNL     1      51.812  31.724  31.191  1.00  0.00    -0.350 N 
ATOM     23  H1  UNL     1      52.711  31.242  31.189  1.00  0.00     0.163 HD
BRANCH  22  24
HETATM   24  C17 UNL     1      51.830  33.047  31.694  1.00  0.00     0.046 C 
HETATM   25  C18 UNL     1      53.248  33.429  32.075  1.00  0.00     0.040 C 
HETATM   26  C19 UNL     1      51.054  33.100  33.041  1.00  0.00     0.040 C 
BRANCH  24  27
HETATM   27  C20 UNL     1      51.246  34.119  30.821  1.00  0.00     0.194 C 
BRANCH  27  28
HETATM   28  O3  UNL     1      49.918  34.414  31.042  1.00  0.00    -0.398 OA
ATOM     29  H3  UNL     1      49.587  35.185  30.596  1.00  0.00     0.209 HD
ENDBRANCH  27  28
ENDBRANCH  24  27
ENDBRANCH  22  24
ENDBRANCH  19  20
ENDBRANCH   9  19
BRANCH   1  30
HETATM   30  C3  UNL     1      53.438  22.458  32.456  1.00  0.00     0.025 C 
BRANCH  30  31
HETATM   31  C2  UNL     1      54.917  22.438  32.445  1.00  0.00     0.003 C 
HETATM   32  C1  UNL     1      55.572  22.388  33.787  1.00  0.00     0.005 C 
ENDBRANCH  30  31
BRANCH  30  33
HETATM   33  C4  UNL     1      52.793  21.479  31.516  1.00  0.00    -0.016 C 
HETATM   34  C5  UNL     1      53.820  20.377  31.144  1.00  0.00     0.010 C 
HETATM   35  C6  UNL     1      51.647  20.734  32.158  1.00  0.00     0.010 C 
ENDBRANCH  30  33
ENDBRANCH   1  30
TORSDOF 8
ENDMDL
MODEL 4
REMARK VINA RESULT: -7.236795175      1.669      2.124
REMARK  8 active torsions:
REMARK  status: ('A' for Active; 'I' for Inactive)
REMARK    1  A    between atoms: C2_2  and  C3_3 
REMARK    2  A    between atoms: C3_3  and  C4_4 
REMARK    3  A    between atoms: C3_3  and  C7_7 
REMARK    4  A    between atoms: C14_15  and  C15_16 
REMARK    5  A    between atoms: C15_16  and  C16_17 
REMARK       I    between atoms: C16_17  and  N1_19 
REMARK    6  A    between atoms: N1_19  and  C17_21 
REMARK    7  A    between atoms: C17_21  and  C20_24 
REMARK    8  A    between atoms: C20_24  and  O3_25 
ROOT
HETATM    1  C7  UNL     1      49.131  27.005  31.338  1.00  0.00     0.204 C 
HETATM    2  O1  UNL     1      49.533  28.284  31.332  1.00  0.00    -0.371 OA
HETATM    3  C8  UNL     1      49.967  28.931  30.200  1.00  0.00     0.139 C 
HETATM    4  C9  UNL     1      50.415  30.261  30.688  1.00  0.00     0.034 C 
HETATM    5  C10 UNL     1      50.276  31.468  29.868  1.00  0.00     0.007 C 
HETATM    6  C11 UNL     1      48.906  31.987  29.609  1.00  0.00    -0.014 C 
HETATM    7  C12 UNL     1      48.838  32.700  28.280  1.00  0.00     0.010 C 
HETATM    8  C13 UNL     1      47.847  30.938  29.777  1.00  0.00    -0.001 C 
HETATM    9  C14 UNL     1      46.509  31.514  29.274  1.00  0.00    -0.001 C 
HETATM   10  C21 UNL     1      45.646  30.270  29.407  1.00  0.00     0.006 C 
HETATM   11  C22 UNL     1      46.584  29.090  29.208  1.00  0.00     0.007 C 
HETATM   12  C23 UNL     1      47.926  29.753  28.914  1.00  0.00     0.009 C 
HETATM   13  C24 UNL     1      49.080  28.860  29.009  1.00  0.00     0.055 C 
HETATM   14  C25 UNL     1      49.938  28.983  27.729  1.00  0.00     0.027 C 
HETATM   15  C26 UNL     1      48.573  27.469  28.919  1.00  0.00     0.208 C 
HETATM   16  O4  UNL     1      48.035  27.071  27.866  1.00  0.00    -0.288 OA
HETATM   17  C27 UNL     1      48.684  26.551  30.016  1.00  0.00     0.224 C 
HETATM   18  O5  UNL     1      48.391  25.330  29.843  1.00  0.00    -0.286 OA
ENDROOT
BRANCH   9  19
HETATM   19  C15 UNL     1      45.946  32.512  30.246  1.00  0.00     0.108 C 
BRANCH  19  20
HETATM   20  C16 UNL     1      44.500  32.160  30.454  1.00  0.00     0.218 C 
HETATM   21  O2  UNL     1      43.620  32.611  29.679  1.00  0.00    -0.274 OA
HETATM   22  N1  UNL     1      44.109  31.321  31.518  1.00  0.00    -0.350 N 
ATOM     23  H1  UNL     1      44.866  30.988  32.115  1.00  0.00     0.163 HD
BRANCH  22  24
HETATM   24  C17 UNL     1      42.813  30.875  31.871  1.00  0.00     0.046 C 
HETATM   25  C18 UNL     1      42.919  29.708  32.834  1.00  0.00     0.040 C 
HETATM   26  C19 UNL     1      42.115  30.268  30.620  1.00  0.00     0.040 C 
BRANCH  24  27
HETATM   27  C20 UNL     1      41.869  31.897  32.433  1.00  0.00     0.194 C 
BRANCH  27  28
HETATM   28  O3  UNL     1      41.161  32.634  31.508  1.00  0.00    -0.398 OA
ATOM     29  H3  UNL     1      41.464  33.523  31.368  1.00  0.00     0.209 HD
ENDBRANCH  27  28
ENDBRANCH  24  27
ENDBRANCH  22  24
ENDBRANCH  19  20
ENDBRANCH   9  19
BRANCH   1  30
HETATM   30  C3  UNL     1      50.067  26.047  32.042  1.00  0.00     0.025 C 
BRANCH  30  31
HETATM   31  C2  UNL     1      50.125  26.171  33.515  1.00  0.00     0.003 C 
HETATM   32  C1  UNL     1      49.383  25.123  34.280  1.00  0.00     0.005 C 
ENDBRANCH  30  31
BRANCH  30  33
HETATM   33  C4  UNL     1      51.403  25.870  31.377  1.00  0.00    -0.016 C 
HETATM   34  C5  UNL     1      52.511  26.439  32.302  1.00  0.00     0.010 C 
HETATM   35  C6  UNL     1      51.767  24.417  31.193  1.00  0.00     0.010 C 
ENDBRANCH  30  33
ENDBRANCH   1  30
TORSDOF 8
ENDMDL
MODEL 5
REMARK VINA RESULT: -7.178229971      1.781      2.600
REMARK  8 active torsions:
REMARK  status: ('A' for Active; 'I' for Inactive)
REMARK    1  A    between atoms: C2_2  and  C3_3 
REMARK    2  A    between atoms: C3_3  and  C4_4 
REMARK    3  A    between atoms: C3_3  and  C7_7 
REMARK    4  A    between atoms: C14_15  and  C15_16 
REMARK    5  A    between atoms: C15_16  and  C16_17 
REMARK       I    between atoms: C16_17  and  N1_19 
REMARK    6  A    between atoms: N1_19  and  C17_21 
REMARK    7  A    between atoms: C17_21  and  C20_24 
REMARK    8  A    between atoms: C20_24  and  O3_25 
ROOT
HETATM    1  C7  UNL     1      48.971  28.996  30.297  1.00  0.00     0.204 C 
HETATM    2  O1  UNL     1      48.764  30.316  30.404  1.00  0.00    -0.371 OA
HETATM    3  C8  UNL     1      48.260  31.083  29.381  1.00  0.00     0.139 C 
HETATM    4  C9  UNL     1      48.317  32.473  29.904  1.00  0.00     0.034 C 
HETATM    5  C10 UNL     1      47.311  33.474  29.538  1.00  0.00     0.007 C 
HETATM    6  C11 UNL     1      45.927  33.301  30.056  1.00  0.00    -0.014 C 
HETATM    7  C12 UNL     1      44.914  33.894  29.106  1.00  0.00     0.010 C 
HETATM    8  C13 UNL     1      45.625  31.883  30.440  1.00  0.00    -0.001 C 
HETATM    9  C14 UNL     1      44.118  31.774  30.746  1.00  0.00    -0.001 C 
HETATM   10  C21 UNL     1      44.025  30.272  30.966  1.00  0.00     0.006 C 
HETATM   11  C22 UNL     1      45.112  29.658  30.098  1.00  0.00     0.007 C 
HETATM   12  C23 UNL     1      45.721  30.863  29.389  1.00  0.00     0.009 C 
HETATM   13  C24 UNL     1      47.006  30.603  28.742  1.00  0.00     0.055 C 
HETATM   14  C25 UNL     1      46.960  31.101  27.278  1.00  0.00     0.027 C 
HETATM   15  C26 UNL     1      47.130  29.135  28.575  1.00  0.00     0.208 C 
HETATM   16  O4  UNL     1      46.344  28.527  27.820  1.00  0.00    -0.288 OA
HETATM   17  C27 UNL     1      48.140  28.379  29.257  1.00  0.00     0.224 C 
HETATM   18  O5  UNL     1      48.318  27.159  28.961  1.00  0.00    -0.286 OA
ENDROOT
BRANCH   9  19
HETATM   19  C15 UNL     1      43.784  32.406  32.068  1.00  0.00     0.108 C 
BRANCH  19  20
HETATM   20  C16 UNL     1      42.329  32.137  32.331  1.00  0.00     0.218 C 
HETATM   21  O2  UNL     1      41.448  32.896  31.857  1.00  0.00    -0.274 OA
HETATM   22  N1  UNL     1      41.932  31.031  33.111  1.00  0.00    -0.350 N 
ATOM     23  H1  UNL     1      42.690  30.453  33.471  1.00  0.00     0.163 HD
BRANCH  22  24
HETATM   24  C17 UNL     1      40.625  30.613  33.462  1.00  0.00     0.046 C 
HETATM   25  C18 UNL     1      39.655  30.986  32.357  1.00  0.00     0.040 C 
HETATM   26  C19 UNL     1      40.131  31.433  34.688  1.00  0.00     0.040 C 
BRANCH  24  27
HETATM   27  C20 UNL     1      40.443  29.165  33.814  1.00  0.00     0.194 C 
BRANCH  27  28
HETATM   28  O3  UNL     1      41.214  28.273  33.100  1.00  0.00    -0.398 OA
ATOM     29  H3  UNL     1      41.265  27.394  33.457  1.00  0.00     0.209 HD
ENDBRANCH  27  28
ENDBRANCH  24  27
ENDBRANCH  22  24
ENDBRANCH  19  20
ENDBRANCH   9  19
BRANCH   1  30
HETATM   30  C3  UNL     1      50.426  28.582  30.259  1.00  0.00     0.025 C 
BRANCH  30  31
HETATM   31  C2  UNL     1      51.178  28.756  31.522  1.00  0.00     0.003 C 
HETATM   32  C1  UNL     1      50.569  28.118  32.728  1.00  0.00     0.005 C 
ENDBRANCH  30  31
BRANCH  30  33
HETATM   33  C4  UNL     1      51.170  29.011  29.026  1.00  0.00    -0.016 C 
HETATM   34  C5  UNL     1      52.185  30.121  29.403  1.00  0.00     0.010 C 
HETATM   35  C6  UNL     1      52.013  27.901  28.446  1.00  0.00     0.010 C 
ENDBRANCH  30  33
ENDBRANCH   1  30
TORSDOF 8
ENDMDL
