MODEL 1
REMARK VINA RESULT: -8.645848173      0.000      0.000
REMARK  9 active torsions:
REMARK  status: ('A' for Active; 'I' for Inactive)
REMARK    1  A    between atoms: N1_2  and  C3_4 
REMARK    2  A    between atoms: C3_4  and  C4_5 
REMARK    3  A    between atoms: C4_5  and  C5_6 
REMARK    4  A    between atoms: C5_6  and  O1_7 
REMARK    5  A    between atoms: C5_6  and  C6_9 
REMARK    6  A    between atoms: C6_9  and  O2_10 
REMARK    7  A    between atoms: O2_10  and  C7_11 
REMARK    8  A    between atoms: C27_32  and  C28_33 
REMARK    9  A    between atoms: C28_33  and  O4_34 
ROOT
HETATM    1  C7  UNL     1      39.493  27.714  37.559  1.00  0.00     0.144 C 
HETATM    2  C8  UNL     1      39.754  26.677  38.585  1.00  0.00     0.008 C 
HETATM    3  C9  UNL     1      39.227  25.472  38.633  1.00  0.00    -0.072 C 
HETATM    4  C10 UNL     1      39.592  24.559  39.722  1.00  0.00     0.035 C 
HETATM    5  C11 UNL     1      39.716  23.100  39.308  1.00  0.00     0.010 C 
HETATM    6  C12 UNL     1      39.559  22.991  37.801  1.00  0.00     0.001 C 
HETATM    7  C13 UNL     1      39.877  21.742  37.141  1.00  0.00     0.013 C 
HETATM    8  C14 UNL     1      38.848  21.134  36.207  1.00  0.00    -0.005 C 
HETATM    9  C15 UNL     1      37.542  21.774  36.117  1.00  0.00     0.006 C 
HETATM   10  C16 UNL     1      37.772  23.287  36.075  1.00  0.00     0.011 C 
HETATM   11  C17 UNL     1      38.190  23.610  37.506  1.00  0.00    -0.029 C 
HETATM   12  C18 UNL     1      37.129  23.160  38.446  1.00  0.00     0.016 C 
HETATM   13  C19 UNL     1      38.266  25.121  37.548  1.00  0.00    -0.013 C 
HETATM   14  C20 UNL     1      36.939  25.779  37.720  1.00  0.00     0.021 C 
HETATM   15  C21 UNL     1      38.872  25.654  36.266  1.00  0.00     0.017 C 
HETATM   16  C22 UNL     1      38.888  27.157  36.301  1.00  0.00     0.037 C 
HETATM   17  C23 UNL     1      38.830  19.641  36.543  1.00  0.00    -0.008 C 
HETATM   18  C24 UNL     1      37.985  19.259  37.666  1.00  0.00     0.012 C 
HETATM   19  C25 UNL     1      38.745  19.134  38.935  1.00  0.00     0.079 C 
HETATM   20  C26 UNL     1      39.952  19.981  38.996  1.00  0.00     0.138 C 
HETATM   21  O3  UNL     1      40.426  20.108  40.096  1.00  0.00    -0.297 OA
HETATM   22  C27 UNL     1      40.506  20.597  37.829  1.00  0.00     0.046 C 
HETATM   23  C29 UNL     1      40.323  19.484  36.742  1.00  0.00     0.025 C 
ENDROOT
BRANCH   1  24
HETATM   24  O2  UNL     1      40.703  28.363  37.318  1.00  0.00    -0.380 OA
BRANCH  24  25
HETATM   25  C6  UNL     1      40.570  29.600  36.757  1.00  0.00     0.200 C 
BRANCH  25  26
HETATM   26  C5  UNL     1      40.562  29.589  35.248  1.00  0.00     0.143 C 
BRANCH  26  27
HETATM   27  C4  UNL     1      39.751  30.797  34.758  1.00  0.00     0.064 C 
BRANCH  27  28
HETATM   28  C3  UNL     1      40.509  31.315  33.531  1.00  0.00     0.274 C 
BRANCH  28  29
HETATM   29  N1  UNL     1      39.792  30.881  32.371  1.00  0.00     0.080 N 
HETATM   30  C1  UNL     1      38.380  30.762  32.576  1.00  0.00     0.309 C 
HETATM   31  C2  UNL     1      40.160  31.647  31.218  1.00  0.00     0.309 C 
ENDBRANCH  28  29
ENDBRANCH  27  28
ENDBRANCH  26  27
BRANCH  26  32
HETATM   32  O1  UNL     1      41.874  29.830  34.832  1.00  0.00    -0.393 OA
ATOM     33  H1  UNL     1      41.852  29.774  33.884  1.00  0.00     0.210 HD
ENDBRANCH  26  32
ENDBRANCH  25  26
ENDBRANCH  24  25
ENDBRANCH   1  24
BRANCH  22  34
HETATM   34  C28 UNL     1      42.046  20.693  37.879  1.00  0.00     0.181 C 
BRANCH  34  35
HETATM   35  O4  UNL     1      42.486  21.247  36.658  1.00  0.00    -0.400 OA
ATOM     36  H4  UNL     1      41.736  21.310  36.079  1.00  0.00     0.209 HD
ENDBRANCH  34  35
ENDBRANCH  22  34
TORSDOF 9
ENDMDL
MODEL 2
REMARK VINA RESULT: -8.593576013      8.468     14.111
REMARK  9 active torsions:
REMARK  status: ('A' for Active; 'I' for Inactive)
REMARK    1  A    between atoms: N1_2  and  C3_4 
REMARK    2  A    between atoms: C3_4  and  C4_5 
REMARK    3  A    between atoms: C4_5  and  C5_6 
REMARK    4  A    between atoms: C5_6  and  O1_7 
REMARK    5  A    between atoms: C5_6  and  C6_9 
REMARK    6  A    between atoms: C6_9  and  O2_10 
REMARK    7  A    between atoms: O2_10  and  C7_11 
REMARK    8  A    between atoms: C27_32  and  C28_33 
REMARK    9  A    between atoms: C28_33  and  O4_34 
ROOT
HETATM    1  C7  UNL     1      44.599  32.905  30.375  1.00  0.00     0.144 C 
HETATM    2  C8  UNL     1      45.475  31.831  29.851  1.00  0.00     0.008 C 
HETATM    3  C9  UNL     1      46.734  31.954  29.488  1.00  0.00    -0.072 C 
HETATM    4  C10 UNL     1      47.467  30.785  28.987  1.00  0.00     0.035 C 
HETATM    5  C11 UNL     1      48.925  30.721  29.417  1.00  0.00     0.010 C 
HETATM    6  C12 UNL     1      49.209  31.848  30.395  1.00  0.00     0.001 C 
HETATM    7  C13 UNL     1      50.457  31.854  31.129  1.00  0.00     0.013 C 
HETATM    8  C14 UNL     1      51.304  33.111  31.107  1.00  0.00    -0.005 C 
HETATM    9  C15 UNL     1      50.880  34.208  30.246  1.00  0.00     0.006 C 
HETATM   10  C16 UNL     1      49.362  34.345  30.388  1.00  0.00     0.011 C 
HETATM   11  C17 UNL     1      48.836  33.126  29.638  1.00  0.00    -0.029 C 
HETATM   12  C18 UNL     1      49.343  33.146  28.240  1.00  0.00     0.016 C 
HETATM   13  C19 UNL     1      47.335  33.313  29.614  1.00  0.00    -0.013 C 
HETATM   14  C20 UNL     1      46.870  34.247  28.548  1.00  0.00     0.021 C 
HETATM   15  C21 UNL     1      46.850  33.863  30.939  1.00  0.00     0.017 C 
HETATM   16  C22 UNL     1      45.366  34.096  30.878  1.00  0.00     0.037 C 
HETATM   17  C23 UNL     1      52.741  32.626  30.900  1.00  0.00    -0.008 C 
HETATM   18  C24 UNL     1      53.129  32.382  29.518  1.00  0.00     0.012 C 
HETATM   19  C25 UNL     1      53.009  30.953  29.136  1.00  0.00     0.079 C 
HETATM   20  C26 UNL     1      51.988  30.212  29.903  1.00  0.00     0.138 C 
HETATM   21  O3  UNL     1      51.680  29.145  29.436  1.00  0.00    -0.297 OA
HETATM   22  C27 UNL     1      51.418  30.734  31.108  1.00  0.00     0.046 C 
HETATM   23  C29 UNL     1      52.651  31.410  31.797  1.00  0.00     0.025 C 
ENDROOT
BRANCH   1  24
HETATM   24  O2  UNL     1      43.804  32.334  31.368  1.00  0.00    -0.380 OA
BRANCH  24  25
HETATM   25  C6  UNL     1      42.710  31.672  30.892  1.00  0.00     0.200 C 
BRANCH  25  26
HETATM   26  C5  UNL     1      41.396  32.294  31.296  1.00  0.00     0.143 C 
BRANCH  26  27
HETATM   27  C4  UNL     1      40.314  31.205  31.270  1.00  0.00     0.064 C 
BRANCH  27  28
HETATM   28  C3  UNL     1      40.630  30.300  32.465  1.00  0.00     0.274 C 
BRANCH  28  29
HETATM   29  N1  UNL     1      39.405  30.075  33.168  1.00  0.00     0.080 N 
HETATM   30  C1  UNL     1      39.469  30.401  34.560  1.00  0.00     0.309 C 
HETATM   31  C2  UNL     1      38.295  30.656  32.474  1.00  0.00     0.309 C 
ENDBRANCH  28  29
ENDBRANCH  27  28
ENDBRANCH  26  27
BRANCH  26  32
HETATM   32  O1  UNL     1      41.516  32.664  32.638  1.00  0.00    -0.393 OA
ATOM     33  H1  UNL     1      41.266  33.580  32.670  1.00  0.00     0.210 HD
ENDBRANCH  26  32
ENDBRANCH  25  26
ENDBRANCH  24  25
ENDBRANCH   1  24
BRANCH  22  34
HETATM   34  C28 UNL     1      51.088  29.632  32.138  1.00  0.00     0.181 C 
BRANCH  34  35
HETATM   35  O4  UNL     1      51.116  30.216  33.422  1.00  0.00    -0.400 OA
ATOM     36  H4  UNL     1      50.668  29.629  34.019  1.00  0.00     0.209 HD
ENDBRANCH  34  35
ENDBRANCH  22  34
TORSDOF 9
ENDMDL
MODEL 3
REMARK VINA RESULT: -8.473387315      8.566     14.030
REMARK  9 active torsions:
REMARK  status: ('A' for Active; 'I' for Inactive)
REMARK    1  A    between atoms: N1_2  and  C3_4 
REMARK    2  A    between atoms: C3_4  and  C4_5 
REMARK    3  A    between atoms: C4_5  and  C5_6 
REMARK    4  A    between atoms: C5_6  and  O1_7 
REMARK    5  A    between atoms: C5_6  and  C6_9 
REMARK    6  A    between atoms: C6_9  and  O2_10 
REMARK    7  A    between atoms: O2_10  and  C7_11 
REMARK    8  A    between atoms: C27_32  and  C28_33 
REMARK    9  A    between atoms: C28_33  and  O4_34 
ROOT
HETATM    1  C7  UNL     1      44.819  33.221  30.321  1.00  0.00     0.144 C 
HETATM    2  C8  UNL     1      45.565  32.043  29.820  1.00  0.00     0.008 C 
HETATM    3  C9  UNL     1      46.832  32.011  29.464  1.00  0.00    -0.072 C 
HETATM    4  C10 UNL     1      47.425  30.757  28.987  1.00  0.00     0.035 C 
HETATM    5  C11 UNL     1      48.864  30.529  29.428  1.00  0.00     0.010 C 
HETATM    6  C12 UNL     1      49.273  31.631  30.391  1.00  0.00     0.001 C 
HETATM    7  C13 UNL     1      50.509  31.503  31.134  1.00  0.00     0.013 C 
HETATM    8  C14 UNL     1      51.498  32.651  31.097  1.00  0.00    -0.005 C 
HETATM    9  C15 UNL     1      51.210  33.776  30.216  1.00  0.00     0.006 C 
HETATM   10  C16 UNL     1      49.718  34.092  30.345  1.00  0.00     0.011 C 
HETATM   11  C17 UNL     1      49.056  32.931  29.611  1.00  0.00    -0.029 C 
HETATM   12  C18 UNL     1      49.569  32.869  28.216  1.00  0.00     0.016 C 
HETATM   13  C19 UNL     1      47.587  33.293  29.572  1.00  0.00    -0.013 C 
HETATM   14  C20 UNL     1      47.241  34.257  28.489  1.00  0.00     0.021 C 
HETATM   15  C21 UNL     1      47.163  33.917  30.886  1.00  0.00     0.017 C 
HETATM   16  C22 UNL     1      45.717  34.322  30.810  1.00  0.00     0.037 C 
HETATM   17  C23 UNL     1      52.869  31.998  30.908  1.00  0.00    -0.008 C 
HETATM   18  C24 UNL     1      53.233  31.687  29.533  1.00  0.00     0.012 C 
HETATM   19  C25 UNL     1      52.948  30.275  29.173  1.00  0.00     0.079 C 
HETATM   20  C26 UNL     1      51.843  29.672  29.944  1.00  0.00     0.138 C 
HETATM   21  O3  UNL     1      51.415  28.641  29.492  1.00  0.00    -0.297 OA
HETATM   22  C27 UNL     1      51.332  30.277  31.136  1.00  0.00     0.046 C 
HETATM   23  C29 UNL     1      52.632  30.816  31.824  1.00  0.00     0.025 C 
ENDROOT
BRANCH   1  24
HETATM   24  O2  UNL     1      43.957  32.764  31.316  1.00  0.00    -0.380 OA
BRANCH  24  25
HETATM   25  C6  UNL     1      43.344  31.581  31.022  1.00  0.00     0.200 C 
BRANCH  25  26
HETATM   26  C5  UNL     1      41.912  31.501  31.491  1.00  0.00     0.143 C 
BRANCH  26  27
HETATM   27  C4  UNL     1      41.890  30.854  32.882  1.00  0.00     0.064 C 
BRANCH  27  28
HETATM   28  C3  UNL     1      41.252  31.901  33.800  1.00  0.00     0.274 C 
BRANCH  28  29
HETATM   29  N1  UNL     1      40.301  31.224  34.626  1.00  0.00     0.080 N 
HETATM   30  C1  UNL     1      39.191  30.680  33.902  1.00  0.00     0.309 C 
HETATM   31  C2  UNL     1      40.945  30.295  35.505  1.00  0.00     0.309 C 
ENDBRANCH  28  29
ENDBRANCH  27  28
ENDBRANCH  26  27
BRANCH  26  32
HETATM   32  O1  UNL     1      41.475  32.814  31.686  1.00  0.00    -0.393 OA
ATOM     33  H1  UNL     1      41.898  33.325  31.006  1.00  0.00     0.210 HD
ENDBRANCH  26  32
ENDBRANCH  25  26
ENDBRANCH  24  25
ENDBRANCH   1  24
BRANCH  22  34
HETATM   34  C28 UNL     1      50.869  29.239  32.181  1.00  0.00     0.181 C 
BRANCH  34  35
HETATM   35  O4  UNL     1      51.053  29.801  33.462  1.00  0.00    -0.400 OA
ATOM     36  H4  UNL     1      51.735  29.307  33.903  1.00  0.00     0.209 HD
ENDBRANCH  34  35
ENDBRANCH  22  34
TORSDOF 9
ENDMDL
MODEL 4
REMARK VINA RESULT: -8.417594405      8.508     14.203
REMARK  9 active torsions:
REMARK  status: ('A' for Active; 'I' for Inactive)
REMARK    1  A    between atoms: N1_2  and  C3_4 
REMARK    2  A    between atoms: C3_4  and  C4_5 
REMARK    3  A    between atoms: C4_5  and  C5_6 
REMARK    4  A    between atoms: C5_6  and  O1_7 
REMARK    5  A    between atoms: C5_6  and  C6_9 
REMARK    6  A    between atoms: C6_9  and  O2_10 
REMARK    7  A    between atoms: O2_10  and  C7_11 
REMARK    8  A    between atoms: C27_32  and  C28_33 
REMARK    9  A    between atoms: C28_33  and  O4_34 
ROOT
HETATM    1  C7  UNL     1      44.426  32.688  30.456  1.00  0.00     0.144 C 
HETATM    2  C8  UNL     1      45.391  31.696  29.925  1.00  0.00     0.008 C 
HETATM    3  C9  UNL     1      46.620  31.938  29.520  1.00  0.00    -0.072 C 
HETATM    4  C10 UNL     1      47.453  30.839  29.018  1.00  0.00     0.035 C 
HETATM    5  C11 UNL     1      48.922  30.933  29.402  1.00  0.00     0.010 C 
HETATM    6  C12 UNL     1      49.119  32.105  30.349  1.00  0.00     0.001 C 
HETATM    7  C13 UNL     1      50.380  32.254  31.043  1.00  0.00     0.013 C 
HETATM    8  C14 UNL     1      51.094  33.590  30.970  1.00  0.00    -0.005 C 
HETATM    9  C15 UNL     1      50.535  34.618  30.102  1.00  0.00     0.006 C 
HETATM   10  C16 UNL     1      49.015  34.603  30.289  1.00  0.00     0.011 C 
HETATM   11  C17 UNL     1      48.594  33.321  29.580  1.00  0.00    -0.029 C 
HETATM   12  C18 UNL     1      49.054  33.361  28.167  1.00  0.00     0.016 C 
HETATM   13  C19 UNL     1      47.082  33.354  29.600  1.00  0.00    -0.013 C 
HETATM   14  C20 UNL     1      46.492  34.212  28.532  1.00  0.00     0.021 C 
HETATM   15  C21 UNL     1      46.583  33.881  30.930  1.00  0.00     0.017 C 
HETATM   16  C22 UNL     1      45.082  33.961  30.911  1.00  0.00     0.037 C 
HETATM   17  C23 UNL     1      52.566  33.249  30.726  1.00  0.00    -0.008 C 
HETATM   18  C24 UNL     1      52.936  33.014  29.338  1.00  0.00     0.012 C 
HETATM   19  C25 UNL     1      52.951  31.572  28.987  1.00  0.00     0.079 C 
HETATM   20  C26 UNL     1      52.034  30.748  29.800  1.00  0.00     0.138 C 
HETATM   21  O3  UNL     1      51.823  29.646  29.364  1.00  0.00    -0.297 OA
HETATM   22  C27 UNL     1      51.450  31.236  31.012  1.00  0.00     0.046 C 
HETATM   23  C29 UNL     1      52.627  32.050  31.649  1.00  0.00     0.025 C 
ENDROOT
BRANCH   1  24
HETATM   24  O2  UNL     1      43.723  32.061  31.484  1.00  0.00    -0.380 OA
BRANCH  24  25
HETATM   25  C6  UNL     1      43.649  30.704  31.362  1.00  0.00     0.200 C 
BRANCH  25  26
HETATM   26  C5  UNL     1      43.131  30.007  32.596  1.00  0.00     0.143 C 
BRANCH  26  27
HETATM   27  C4  UNL     1      41.897  30.767  33.102  1.00  0.00     0.064 C 
BRANCH  27  28
HETATM   28  C3  UNL     1      40.741  30.284  32.220  1.00  0.00     0.274 C 
BRANCH  28  29
HETATM   29  N1  UNL     1      39.848  31.387  32.043  1.00  0.00     0.080 N 
HETATM   30  C1  UNL     1      40.196  32.241  30.948  1.00  0.00     0.309 C 
HETATM   31  C2  UNL     1      38.482  30.955  32.044  1.00  0.00     0.309 C 
ENDBRANCH  28  29
ENDBRANCH  27  28
ENDBRANCH  26  27
BRANCH  26  32
HETATM   32  O1  UNL     1      42.655  28.758  32.188  1.00  0.00    -0.393 OA
ATOM     33  H1  UNL     1      43.267  28.459  31.526  1.00  0.00     0.210 HD
ENDBRANCH  26  32
ENDBRANCH  25  26
ENDBRANCH  24  25
ENDBRANCH   1  24
BRANCH  22  34
HETATM   34  C28 UNL     1      51.265  30.130  32.073  1.00  0.00     0.181 C 
BRANCH  34  35
HETATM   35  O4  UNL     1      51.051  30.756  33.320  1.00  0.00    -0.400 OA
ATOM     36  H4  UNL     1      50.273  30.373  33.709  1.00  0.00     0.209 HD
ENDBRANCH  34  35
ENDBRANCH  22  34
TORSDOF 9
ENDMDL
MODEL 5
REMARK VINA RESULT: -8.279984131      9.156     13.872
REMARK  9 active torsions:
REMARK  status: ('A' for Active; 'I' for Inactive)
REMARK    1  A    between atoms: N1_2  and  C3_4 
REMARK    2  A    between atoms: C3_4  and  C4_5 
REMARK    3  A    between atoms: C4_5  and  C5_6 
REMARK    4  A    between atoms: C5_6  and  O1_7 
REMARK    5  A    between atoms: C5_6  and  C6_9 
REMARK    6  A    between atoms: C6_9  and  O2_10 
REMARK    7  A    between atoms: O2_10  and  C7_11 
REMARK    8  A    between atoms: C27_32  and  C28_33 
REMARK    9  A    between atoms: C28_33  and  O4_34 
ROOT
HETATM    1  C7  UNL     1      45.278  33.401  29.955  1.00  0.00     0.144 C 
HETATM    2  C8  UNL     1      45.924  32.194  29.390  1.00  0.00     0.008 C 
HETATM    3  C9  UNL     1      47.214  32.015  29.192  1.00  0.00    -0.072 C 
HETATM    4  C10 UNL     1      47.697  30.754  28.621  1.00  0.00     0.035 C 
HETATM    5  C11 UNL     1      49.015  30.261  29.200  1.00  0.00     0.010 C 
HETATM    6  C12 UNL     1      49.426  31.163  30.350  1.00  0.00     0.001 C 
HETATM    7  C13 UNL     1      50.515  30.761  31.215  1.00  0.00     0.013 C 
HETATM    8  C14 UNL     1      51.643  31.744  31.463  1.00  0.00    -0.005 C 
HETATM    9  C15 UNL     1      51.635  32.997  30.720  1.00  0.00     0.006 C 
HETATM   10  C16 UNL     1      50.195  33.516  30.706  1.00  0.00     0.011 C 
HETATM   11  C17 UNL     1      49.496  32.566  29.740  1.00  0.00    -0.029 C 
HETATM   12  C18 UNL     1      50.190  32.597  28.425  1.00  0.00     0.016 C 
HETATM   13  C19 UNL     1      48.109  33.146  29.572  1.00  0.00    -0.013 C 
HETATM   14  C20 UNL     1      48.051  34.276  28.601  1.00  0.00     0.021 C 
HETATM   15  C21 UNL     1      47.589  33.663  30.898  1.00  0.00     0.017 C 
HETATM   16  C22 UNL     1      46.235  34.287  30.701  1.00  0.00     0.037 C 
HETATM   17  C23 UNL     1      52.928  30.920  31.355  1.00  0.00    -0.008 C 
HETATM   18  C24 UNL     1      53.439  30.727  30.006  1.00  0.00     0.012 C 
HETATM   19  C25 UNL     1      53.024  29.429  29.417  1.00  0.00     0.079 C 
HETATM   20  C26 UNL     1      51.750  28.909  29.954  1.00  0.00     0.138 C 
HETATM   21  O3  UNL     1      51.258  28.017  29.312  1.00  0.00    -0.297 OA
HETATM   22  C27 UNL     1      51.160  29.435  31.147  1.00  0.00     0.046 C 
HETATM   23  C29 UNL     1      52.408  29.684  32.059  1.00  0.00     0.025 C 
ENDROOT
BRANCH   1  24
HETATM   24  O2  UNL     1      44.230  32.961  30.763  1.00  0.00    -0.380 OA
BRANCH  24  25
HETATM   25  C6  UNL     1      44.002  31.617  30.696  1.00  0.00     0.200 C 
BRANCH  25  26
HETATM   26  C5  UNL     1      43.384  31.040  31.946  1.00  0.00     0.143 C 
BRANCH  26  27
HETATM   27  C4  UNL     1      42.206  31.932  32.362  1.00  0.00     0.064 C 
BRANCH  27  28
HETATM   28  C3  UNL     1      40.962  31.053  32.200  1.00  0.00     0.274 C 
BRANCH  28  29
HETATM   29  N1  UNL     1      39.927  31.874  31.652  1.00  0.00     0.080 N 
HETATM   30  C1  UNL     1      40.280  32.500  30.414  1.00  0.00     0.309 C 
HETATM   31  C2  UNL     1      38.673  31.181  31.628  1.00  0.00     0.309 C 
ENDBRANCH  28  29
ENDBRANCH  27  28
ENDBRANCH  26  27
BRANCH  26  32
HETATM   32  O1  UNL     1      42.812  29.816  31.589  1.00  0.00    -0.393 OA
ATOM     33  H1  UNL     1      42.341  29.523  32.360  1.00  0.00     0.210 HD
ENDBRANCH  26  32
ENDBRANCH  25  26
ENDBRANCH  24  25
ENDBRANCH   1  24
BRANCH  22  34
HETATM   34  C28 UNL     1      50.419  28.359  31.971  1.00  0.00     0.181 C 
BRANCH  34  35
HETATM   35  O4  UNL     1      50.752  28.546  33.329  1.00  0.00    -0.400 OA
ATOM     36  H4  UNL     1      50.928  29.470  33.461  1.00  0.00     0.209 HD
ENDBRANCH  34  35
ENDBRANCH  22  34
TORSDOF 9
ENDMDL
