MODEL 1
REMARK VINA RESULT: -5.945800557      0.000      0.000
REMARK  10 active torsions:
REMARK  status: ('A' for Active; 'I' for Inactive)
REMARK    1  A    between atoms: C2_2  and  O2_4 
REMARK    2  A    between atoms: O2_4  and  C3_5 
REMARK    3  A    between atoms: C3_5  and  C4_6 
REMARK    4  A    between atoms: C4_6  and  S1_7 
REMARK    5  A    between atoms: S1_7  and  C5_8 
REMARK    6  A    between atoms: C5_8  and  N1_10 
REMARK    7  A    between atoms: N2_13  and  C8_14 
REMARK    8  A    between atoms: C8_14  and  C9_15 
REMARK    9  A    between atoms: C9_15  and  O3_16 
REMARK   10  A    between atoms: N3_20  and  O4_22 
ROOT
HETATM    1  C5  UNL     1      -5.374   4.934  14.429  1.00  0.00     0.137 C 
HETATM    2  S2  UNL     1      -6.270   6.086  15.148  1.00  0.00    -0.053 SA
ENDROOT
BRANCH   1   3
HETATM    3  S1  UNL     1      -5.793   3.223  14.669  1.00  0.00    -0.092 SA
BRANCH   3   4
HETATM    4  C4  UNL     1      -4.307   2.242  14.710  1.00  0.00     0.168 C 
BRANCH   4   5
HETATM    5  C3  UNL     1      -4.435   0.950  15.409  1.00  0.00     0.156 C 
HETATM    6  N3  UNL     1      -4.507  -0.157  14.804  1.00  0.00    -0.250 N 
ATOM      7  H3  UNL     1      -4.594  -0.997  15.375  1.00  0.00     0.196 HD
BRANCH   5   8
HETATM    8  O2  UNL     1      -4.481   0.912  16.808  1.00  0.00    -0.263 OA
BRANCH   8   9
HETATM    9  C2  UNL     1      -5.665   0.677  17.485  1.00  0.00     0.261 C 
HETATM   10  C1  UNL     1      -6.420   1.770  18.182  1.00  0.00     0.126 C 
HETATM   11  O1  UNL     1      -6.107  -0.498  17.506  1.00  0.00    -0.265 OA
ENDBRANCH   8   9
ENDBRANCH   5   8
BRANCH   6  12
HETATM   12  O4  UNL     1      -4.478  -0.320  13.461  1.00  0.00    -0.288 OA
ATOM     13  H4  UNL     1      -4.806  -1.078  12.991  1.00  0.00     0.244 HD
ENDBRANCH   6  12
ENDBRANCH   4   5
ENDBRANCH   3   4
ENDBRANCH   1   3
BRANCH   1  14
HETATM   14  N1  UNL     1      -4.276   5.320  13.624  1.00  0.00    -0.363 N 
HETATM   15  C6  UNL     1      -3.145   6.054  14.121  1.00  0.00     0.154 C 
HETATM   16  C7  UNL     1      -1.913   5.622  13.343  1.00  0.00     0.292 C 
HETATM   17  N2  UNL     1      -2.052   5.818  11.936  1.00  0.00     0.093 N 
HETATM   18  C10 UNL     1      -3.419   5.967  11.490  1.00  0.00     0.292 C 
HETATM   19  C11 UNL     1      -4.281   4.958  12.211  1.00  0.00     0.154 C 
BRANCH  17  20
HETATM   20  C8  UNL     1      -1.415   4.826  11.128  1.00  0.00     0.298 C 
BRANCH  20  21
HETATM   21  C9  UNL     1      -0.751   3.727  11.924  1.00  0.00     0.194 C 
BRANCH  21  22
HETATM   22  O3  UNL     1      -1.596   2.635  12.131  1.00  0.00    -0.399 OA
ATOM     23  H3  UNL     1      -1.392   1.906  11.559  1.00  0.00     0.209 HD
ENDBRANCH  21  22
ENDBRANCH  20  21
ENDBRANCH  17  20
ENDBRANCH   1  14
TORSDOF 10
ENDMDL
MODEL 2
REMARK VINA RESULT: -5.938255022      2.707      6.183
REMARK  10 active torsions:
REMARK  status: ('A' for Active; 'I' for Inactive)
REMARK    1  A    between atoms: C2_2  and  O2_4 
REMARK    2  A    between atoms: O2_4  and  C3_5 
REMARK    3  A    between atoms: C3_5  and  C4_6 
REMARK    4  A    between atoms: C4_6  and  S1_7 
REMARK    5  A    between atoms: S1_7  and  C5_8 
REMARK    6  A    between atoms: C5_8  and  N1_10 
REMARK    7  A    between atoms: N2_13  and  C8_14 
REMARK    8  A    between atoms: C8_14  and  C9_15 
REMARK    9  A    between atoms: C9_15  and  O3_16 
REMARK   10  A    between atoms: N3_20  and  O4_22 
ROOT
HETATM    1  C5  UNL     1      -4.409   2.624  12.278  1.00  0.00     0.137 C 
HETATM    2  S2  UNL     1      -4.836   1.324  11.398  1.00  0.00    -0.053 SA
ENDROOT
BRANCH   1   3
HETATM    3  S1  UNL     1      -3.453   3.917  11.519  1.00  0.00    -0.092 SA
BRANCH   3   4
HETATM    4  C4  UNL     1      -2.008   4.250  12.505  1.00  0.00     0.168 C 
BRANCH   4   5
HETATM    5  C3  UNL     1      -2.203   5.240  13.580  1.00  0.00     0.156 C 
HETATM    6  N3  UNL     1      -1.920   5.009  14.789  1.00  0.00    -0.250 N 
ATOM      7  H3  UNL     1      -2.091   5.757  15.460  1.00  0.00     0.196 HD
BRANCH   5   8
HETATM    8  O2  UNL     1      -2.725   6.504  13.281  1.00  0.00    -0.263 OA
BRANCH   8   9
HETATM    9  C2  UNL     1      -3.092   7.389  14.280  1.00  0.00     0.261 C 
HETATM   10  C1  UNL     1      -2.405   8.708  14.474  1.00  0.00     0.126 C 
HETATM   11  O1  UNL     1      -4.034   7.058  15.041  1.00  0.00    -0.265 OA
ENDBRANCH   8   9
ENDBRANCH   5   8
BRANCH   6  12
HETATM   12  O4  UNL     1      -1.408   3.851  15.268  1.00  0.00    -0.288 OA
ATOM     13  H4  UNL     1      -0.681   3.781  15.876  1.00  0.00     0.244 HD
ENDBRANCH   6  12
ENDBRANCH   4   5
ENDBRANCH   3   4
ENDBRANCH   1   3
BRANCH   1  14
HETATM   14  N1  UNL     1      -4.810   2.698  13.633  1.00  0.00    -0.363 N 
HETATM   15  C6  UNL     1      -5.400   3.866  14.225  1.00  0.00     0.154 C 
HETATM   16  C7  UNL     1      -6.380   3.420  15.297  1.00  0.00     0.292 C 
HETATM   17  N2  UNL     1      -5.768   2.609  16.300  1.00  0.00     0.093 N 
HETATM   18  C10 UNL     1      -4.505   2.028  15.906  1.00  0.00     0.292 C 
HETATM   19  C11 UNL     1      -4.620   1.529  14.485  1.00  0.00     0.154 C 
BRANCH  17  20
HETATM   20  C8  UNL     1      -6.603   1.574  16.823  1.00  0.00     0.298 C 
BRANCH  20  21
HETATM   21  C9  UNL     1      -5.905   0.668  17.810  1.00  0.00     0.194 C 
BRANCH  21  22
HETATM   22  O3  UNL     1      -5.954  -0.673  17.427  1.00  0.00    -0.399 OA
ATOM     23  H3  UNL     1      -5.451  -1.234  18.006  1.00  0.00     0.209 HD
ENDBRANCH  21  22
ENDBRANCH  20  21
ENDBRANCH  17  20
ENDBRANCH   1  14
TORSDOF 10
ENDMDL
MODEL 3
REMARK VINA RESULT: -5.914920259      1.740      1.994
REMARK  10 active torsions:
REMARK  status: ('A' for Active; 'I' for Inactive)
REMARK    1  A    between atoms: C2_2  and  O2_4 
REMARK    2  A    between atoms: O2_4  and  C3_5 
REMARK    3  A    between atoms: C3_5  and  C4_6 
REMARK    4  A    between atoms: C4_6  and  S1_7 
REMARK    5  A    between atoms: S1_7  and  C5_8 
REMARK    6  A    between atoms: C5_8  and  N1_10 
REMARK    7  A    between atoms: N2_13  and  C8_14 
REMARK    8  A    between atoms: C8_14  and  C9_15 
REMARK    9  A    between atoms: C9_15  and  O3_16 
REMARK   10  A    between atoms: N3_20  and  O4_22 
ROOT
HETATM    1  C5  UNL     1      -3.679   4.900  13.621  1.00  0.00     0.137 C 
HETATM    2  S2  UNL     1      -4.956   5.895  13.465  1.00  0.00    -0.053 SA
ENDROOT
BRANCH   1   3
HETATM    3  S1  UNL     1      -3.681   3.669  14.904  1.00  0.00    -0.092 SA
BRANCH   3   4
HETATM    4  C4  UNL     1      -4.764   2.330  14.447  1.00  0.00     0.168 C 
BRANCH   4   5
HETATM    5  C3  UNL     1      -4.609   1.104  15.250  1.00  0.00     0.156 C 
HETATM    6  N3  UNL     1      -4.488  -0.045  14.739  1.00  0.00    -0.250 N 
ATOM      7  H3  UNL     1      -4.387  -0.833  15.378  1.00  0.00     0.196 HD
BRANCH   5   8
HETATM    8  O2  UNL     1      -4.592   1.180  16.649  1.00  0.00    -0.263 OA
BRANCH   8   9
HETATM    9  C2  UNL     1      -5.686   0.798  17.406  1.00  0.00     0.261 C 
HETATM   10  C1  UNL     1      -6.491   1.781  18.203  1.00  0.00     0.126 C 
HETATM   11  O1  UNL     1      -5.999  -0.418  17.414  1.00  0.00    -0.265 OA
ENDBRANCH   8   9
ENDBRANCH   5   8
BRANCH   6  12
HETATM   12  O4  UNL     1      -4.480  -0.316  13.413  1.00  0.00    -0.288 OA
ATOM     13  H4  UNL     1      -5.176  -0.755  12.937  1.00  0.00     0.244 HD
ENDBRANCH   6  12
ENDBRANCH   4   5
ENDBRANCH   3   4
ENDBRANCH   1   3
BRANCH   1  14
HETATM   14  N1  UNL     1      -2.588   5.037  12.730  1.00  0.00    -0.363 N 
HETATM   15  C6  UNL     1      -1.816   6.241  12.596  1.00  0.00     0.154 C 
HETATM   16  C7  UNL     1      -0.385   5.859  12.255  1.00  0.00     0.292 C 
HETATM   17  N2  UNL     1      -0.293   5.075  11.065  1.00  0.00     0.093 N 
HETATM   18  C10 UNL     1      -1.534   4.450  10.668  1.00  0.00     0.292 C 
HETATM   19  C11 UNL     1      -2.218   3.898  11.896  1.00  0.00     0.154 C 
BRANCH  17  20
HETATM   20  C8  UNL     1       0.733   4.080  11.084  1.00  0.00     0.298 C 
BRANCH  20  21
HETATM   21  C9  UNL     1       2.132   4.645  11.001  1.00  0.00     0.194 C 
BRANCH  21  22
HETATM   22  O3  UNL     1       2.917   4.284  12.097  1.00  0.00    -0.399 OA
ATOM     23  H3  UNL     1       3.797   4.031  11.845  1.00  0.00     0.209 HD
ENDBRANCH  21  22
ENDBRANCH  20  21
ENDBRANCH  17  20
ENDBRANCH   1  14
TORSDOF 10
ENDMDL
MODEL 4
REMARK VINA RESULT: -5.902682549      2.320      5.974
REMARK  10 active torsions:
REMARK  status: ('A' for Active; 'I' for Inactive)
REMARK    1  A    between atoms: C2_2  and  O2_4 
REMARK    2  A    between atoms: O2_4  and  C3_5 
REMARK    3  A    between atoms: C3_5  and  C4_6 
REMARK    4  A    between atoms: C4_6  and  S1_7 
REMARK    5  A    between atoms: S1_7  and  C5_8 
REMARK    6  A    between atoms: C5_8  and  N1_10 
REMARK    7  A    between atoms: N2_13  and  C8_14 
REMARK    8  A    between atoms: C8_14  and  C9_15 
REMARK    9  A    between atoms: C9_15  and  O3_16 
REMARK   10  A    between atoms: N3_20  and  O4_22 
ROOT
HETATM    1  C5  UNL     1      -4.677   2.674  12.076  1.00  0.00     0.137 C 
HETATM    2  S2  UNL     1      -4.867   1.267  11.282  1.00  0.00    -0.053 SA
ENDROOT
BRANCH   1   3
HETATM    3  S1  UNL     1      -4.136   4.115  11.187  1.00  0.00    -0.092 SA
BRANCH   3   4
HETATM    4  C4  UNL     1      -2.367   4.063  10.982  1.00  0.00     0.168 C 
BRANCH   4   5
HETATM    5  C3  UNL     1      -1.592   4.492  12.161  1.00  0.00     0.156 C 
HETATM    6  N3  UNL     1      -0.684   3.788  12.683  1.00  0.00    -0.250 N 
ATOM      7  H3  UNL     1      -0.204   4.171  13.498  1.00  0.00     0.196 HD
BRANCH   5   8
HETATM    8  O2  UNL     1      -1.851   5.735  12.755  1.00  0.00    -0.263 OA
BRANCH   8   9
HETATM    9  C2  UNL     1      -2.313   5.831  14.056  1.00  0.00     0.261 C 
HETATM   10  C1  UNL     1      -3.009   7.056  14.570  1.00  0.00     0.126 C 
HETATM   11  O1  UNL     1      -2.134   4.849  14.817  1.00  0.00    -0.265 OA
ENDBRANCH   8   9
ENDBRANCH   5   8
BRANCH   6  12
HETATM   12  O4  UNL     1      -0.293   2.565  12.252  1.00  0.00    -0.288 OA
ATOM     13  H4  UNL     1       0.604   2.302  12.083  1.00  0.00     0.244 HD
ENDBRANCH   6  12
ENDBRANCH   4   5
ENDBRANCH   3   4
ENDBRANCH   1   3
BRANCH   1  14
HETATM   14  N1  UNL     1      -4.949   2.721  13.464  1.00  0.00    -0.363 N 
HETATM   15  C6  UNL     1      -5.405   3.900  14.146  1.00  0.00     0.154 C 
HETATM   16  C7  UNL     1      -6.313   3.475  15.288  1.00  0.00     0.292 C 
HETATM   17  N2  UNL     1      -5.669   2.590  16.204  1.00  0.00     0.093 N 
HETATM   18  C10 UNL     1      -4.488   1.945  15.676  1.00  0.00     0.292 C 
HETATM   19  C11 UNL     1      -4.762   1.510  14.257  1.00  0.00     0.154 C 
BRANCH  17  20
HETATM   20  C8  UNL     1      -6.521   1.589  16.767  1.00  0.00     0.298 C 
BRANCH  20  21
HETATM   21  C9  UNL     1      -5.827   0.683  17.755  1.00  0.00     0.194 C 
BRANCH  21  22
HETATM   22  O3  UNL     1      -5.921  -0.664  17.400  1.00  0.00    -0.399 OA
ATOM     23  H3  UNL     1      -6.691  -1.082  17.767  1.00  0.00     0.209 HD
ENDBRANCH  21  22
ENDBRANCH  20  21
ENDBRANCH  17  20
ENDBRANCH   1  14
TORSDOF 10
ENDMDL
MODEL 5
REMARK VINA RESULT: -5.893754581      2.973      3.804
REMARK  10 active torsions:
REMARK  status: ('A' for Active; 'I' for Inactive)
REMARK    1  A    between atoms: C2_2  and  O2_4 
REMARK    2  A    between atoms: O2_4  and  C3_5 
REMARK    3  A    between atoms: C3_5  and  C4_6 
REMARK    4  A    between atoms: C4_6  and  S1_7 
REMARK    5  A    between atoms: S1_7  and  C5_8 
REMARK    6  A    between atoms: C5_8  and  N1_10 
REMARK    7  A    between atoms: N2_13  and  C8_14 
REMARK    8  A    between atoms: C8_14  and  C9_15 
REMARK    9  A    between atoms: C9_15  and  O3_16 
REMARK   10  A    between atoms: N3_20  and  O4_22 
ROOT
HETATM    1  C5  UNL     1      -3.575   5.203  13.604  1.00  0.00     0.137 C 
HETATM    2  S2  UNL     1      -2.031   5.451  14.051  1.00  0.00    -0.053 SA
ENDROOT
BRANCH   1   3
HETATM    3  S1  UNL     1      -4.609   4.137  14.582  1.00  0.00    -0.092 SA
BRANCH   3   4
HETATM    4  C4  UNL     1      -5.218   2.802  13.573  1.00  0.00     0.168 C 
BRANCH   4   5
HETATM    5  C3  UNL     1      -4.504   1.522  13.738  1.00  0.00     0.156 C 
HETATM    6  N3  UNL     1      -3.453   1.233  13.101  1.00  0.00    -0.250 N 
ATOM      7  H3  UNL     1      -3.032   0.322  13.284  1.00  0.00     0.196 HD
BRANCH   5   8
HETATM    8  O2  UNL     1      -4.988   0.561  14.634  1.00  0.00    -0.263 OA
BRANCH   8   9
HETATM    9  C2  UNL     1      -4.716   0.635  15.989  1.00  0.00     0.261 C 
HETATM   10  C1  UNL     1      -5.800   0.638  17.025  1.00  0.00     0.126 C 
HETATM   11  O1  UNL     1      -3.513   0.700  16.343  1.00  0.00    -0.265 OA
ENDBRANCH   8   9
ENDBRANCH   5   8
BRANCH   6  12
HETATM   12  O4  UNL     1      -2.838   2.030  12.197  1.00  0.00    -0.288 OA
ATOM     13  H4  UNL     1      -1.939   1.938  11.903  1.00  0.00     0.244 HD
ENDBRANCH   6  12
ENDBRANCH   4   5
ENDBRANCH   3   4
ENDBRANCH   1   3
BRANCH   1  14
HETATM   14  N1  UNL     1      -4.064   5.843  12.441  1.00  0.00    -0.363 N 
HETATM   15  C6  UNL     1      -3.495   5.664  11.134  1.00  0.00     0.154 C 
HETATM   16  C7  UNL     1      -4.608   5.775  10.105  1.00  0.00     0.292 C 
HETATM   17  N2  UNL     1      -5.303   7.020  10.177  1.00  0.00     0.093 N 
HETATM   18  C10 UNL     1      -5.127   7.727  11.425  1.00  0.00     0.292 C 
HETATM   19  C11 UNL     1      -5.211   6.738  12.563  1.00  0.00     0.154 C 
BRANCH  17  20
HETATM   20  C8  UNL     1      -6.701   6.941   9.891  1.00  0.00     0.298 C 
BRANCH  20  21
HETATM   21  C9  UNL     1      -7.064   7.385   8.494  1.00  0.00     0.194 C 
BRANCH  21  22
HETATM   22  O3  UNL     1      -7.544   6.336   7.709  1.00  0.00    -0.399 OA
ATOM     23  H3  UNL     1      -7.802   5.584   8.229  1.00  0.00     0.209 HD
ENDBRANCH  21  22
ENDBRANCH  20  21
ENDBRANCH  17  20
ENDBRANCH   1  14
TORSDOF 10
ENDMDL
