MODEL 1
REMARK VINA RESULT: -6.002573893      0.000      0.000
REMARK  7 active torsions:
REMARK  status: ('A' for Active; 'I' for Inactive)
REMARK    1  A    between atoms: O1_2  and  C2_3 
REMARK    2  A    between atoms: C2_3  and  C3_4 
REMARK    3  A    between atoms: C3_4  and  O2_5 
REMARK    4  A    between atoms: C5_8  and  C6_9 
REMARK       I    between atoms: C6_9  and  N1_11 
REMARK    5  A    between atoms: C9_14  and  N2_15 
REMARK    6  A    between atoms: N2_15  and  C10_17 
REMARK    7  A    between atoms: C11_19  and  O4_20 
ROOT
HETATM    1  C6  UNL     1      -3.991   5.215  12.407  1.00  0.00     0.226 C 
HETATM    2  O3  UNL     1      -3.186   4.481  11.773  1.00  0.00    -0.273 OA
HETATM    3  N1  UNL     1      -4.782   6.174  11.734  1.00  0.00    -0.349 N 
HETATM    4  C7  UNL     1      -5.683   6.986  12.499  1.00  0.00     0.128 C 
HETATM    5  C8  UNL     1      -6.850   7.512  11.746  1.00  0.00     0.047 C 
HETATM    6  C9  UNL     1      -6.656   7.650  10.277  1.00  0.00     0.113 C 
HETATM    7  C11 UNL     1      -6.071   6.379   9.735  1.00  0.00     0.158 C 
HETATM    8  C12 UNL     1      -4.642   6.289  10.287  1.00  0.00     0.159 C 
ENDROOT
BRANCH   1   9
HETATM    9  C5  UNL     1      -4.078   5.036  13.892  1.00  0.00     0.107 C 
HETATM   10  C4  UNL     1      -4.962   3.887  14.235  1.00  0.00     0.087 C 
HETATM   11  C2  UNL     1      -3.980   2.775  14.651  1.00  0.00     0.185 C 
HETATM   12  O5  UNL     1      -3.011   3.545  15.315  1.00  0.00    -0.352 OA
HETATM   13  C13 UNL     1      -2.727   4.589  14.412  1.00  0.00     0.185 C 
BRANCH  11  14
HETATM   14  O1  UNL     1      -3.526   2.224  13.501  1.00  0.00    -0.358 OA
HETATM   15  C1  UNL     1      -4.284   1.287  12.863  1.00  0.00     0.205 C 
ENDBRANCH  11  14
BRANCH  11  16
HETATM   16  C3  UNL     1      -4.579   1.876  15.669  1.00  0.00     0.232 C 
BRANCH  16  17
HETATM   17  O2  UNL     1      -3.580   1.170  16.319  1.00  0.00    -0.396 OA
ATOM     18  H2  UNL     1      -3.166   0.567  15.713  1.00  0.00     0.209 HD
ENDBRANCH  16  17
ENDBRANCH  11  16
ENDBRANCH   1   9
BRANCH   7  19
HETATM   19  O4  UNL     1      -6.061   6.391   8.348  1.00  0.00    -0.392 OA
ATOM     20  H4  UNL     1      -5.808   5.544   8.003  1.00  0.00     0.210 HD
ENDBRANCH   7  19
BRANCH   6  21
HETATM   21  N2  UNL     1      -7.951   7.950   9.683  1.00  0.00    -0.383 N 
ATOM     22  H2  UNL     1      -8.785   7.419   9.937  1.00  0.00     0.160 HD
BRANCH  21  23
HETATM   23  C10 UNL     1      -8.010   8.908   8.825  1.00  0.00     0.166 C 
HETATM   24  S1  UNL     1      -8.484   9.895   7.616  1.00  0.00    -0.075 SA
ENDBRANCH  21  23
ENDBRANCH   6  21
TORSDOF 7
ENDMDL
MODEL 2
REMARK VINA RESULT: -5.788512130      3.864      4.845
REMARK  7 active torsions:
REMARK  status: ('A' for Active; 'I' for Inactive)
REMARK    1  A    between atoms: O1_2  and  C2_3 
REMARK    2  A    between atoms: C2_3  and  C3_4 
REMARK    3  A    between atoms: C3_4  and  O2_5 
REMARK    4  A    between atoms: C5_8  and  C6_9 
REMARK       I    between atoms: C6_9  and  N1_11 
REMARK    5  A    between atoms: C9_14  and  N2_15 
REMARK    6  A    between atoms: N2_15  and  C10_17 
REMARK    7  A    between atoms: C11_19  and  O4_20 
ROOT
HETATM    1  C6  UNL     1      -4.550   3.172  13.686  1.00  0.00     0.226 C 
HETATM    2  O3  UNL     1      -5.777   3.130  13.401  1.00  0.00    -0.273 OA
HETATM    3  N1  UNL     1      -3.740   4.243  13.243  1.00  0.00    -0.349 N 
HETATM    4  C7  UNL     1      -2.349   4.246  13.593  1.00  0.00     0.128 C 
HETATM    5  C8  UNL     1      -1.713   5.587  13.630  1.00  0.00     0.047 C 
HETATM    6  C9  UNL     1      -2.356   6.626  12.779  1.00  0.00     0.113 C 
HETATM    7  C11 UNL     1      -3.836   6.617  13.023  1.00  0.00     0.158 C 
HETATM    8  C12 UNL     1      -4.363   5.295  12.449  1.00  0.00     0.159 C 
ENDROOT
BRANCH   1   9
HETATM    9  C5  UNL     1      -3.984   2.053  14.506  1.00  0.00     0.107 C 
HETATM   10  C4  UNL     1      -4.331   2.224  15.945  1.00  0.00     0.087 C 
HETATM   11  C2  UNL     1      -5.442   1.184  16.184  1.00  0.00     0.185 C 
HETATM   12  O5  UNL     1      -4.976   0.140  15.369  1.00  0.00    -0.352 OA
HETATM   13  C13 UNL     1      -4.697   0.768  14.138  1.00  0.00     0.185 C 
BRANCH  11  14
HETATM   14  O1  UNL     1      -6.587   1.745  15.729  1.00  0.00    -0.358 OA
HETATM   15  C1  UNL     1      -7.313   2.550  16.557  1.00  0.00     0.205 C 
ENDBRANCH  11  14
BRANCH  11  16
HETATM   16  C3  UNL     1      -5.418   0.677  17.580  1.00  0.00     0.232 C 
BRANCH  16  17
HETATM   17  O2  UNL     1      -5.873  -0.631  17.612  1.00  0.00    -0.396 OA
ATOM     18  H2  UNL     1      -5.262  -1.172  18.099  1.00  0.00     0.209 HD
ENDBRANCH  16  17
ENDBRANCH  11  16
ENDBRANCH   1   9
BRANCH   7  19
HETATM   19  O4  UNL     1      -4.445   7.699  12.403  1.00  0.00    -0.392 OA
ATOM     20  H4  UNL     1      -5.224   7.425  11.934  1.00  0.00     0.210 HD
ENDBRANCH   7  19
BRANCH   6  21
HETATM   21  N2  UNL     1      -1.755   7.910  13.113  1.00  0.00    -0.383 N 
ATOM     22  H2  UNL     1      -1.409   8.536  12.386  1.00  0.00     0.160 HD
BRANCH  21  23
HETATM   23  C10 UNL     1      -1.676   8.229  14.357  1.00  0.00     0.166 C 
HETATM   24  S1  UNL     1      -1.599   9.072  15.752  1.00  0.00    -0.075 SA
ENDBRANCH  21  23
ENDBRANCH   6  21
TORSDOF 7
ENDMDL
MODEL 3
REMARK VINA RESULT: -5.754172818      4.507      6.883
REMARK  7 active torsions:
REMARK  status: ('A' for Active; 'I' for Inactive)
REMARK    1  A    between atoms: O1_2  and  C2_3 
REMARK    2  A    between atoms: C2_3  and  C3_4 
REMARK    3  A    between atoms: C3_4  and  O2_5 
REMARK    4  A    between atoms: C5_8  and  C6_9 
REMARK       I    between atoms: C6_9  and  N1_11 
REMARK    5  A    between atoms: C9_14  and  N2_15 
REMARK    6  A    between atoms: N2_15  and  C10_17 
REMARK    7  A    between atoms: C11_19  and  O4_20 
ROOT
HETATM    1  C6  UNL     1      -3.160   3.931  11.439  1.00  0.00     0.226 C 
HETATM    2  O3  UNL     1      -3.027   3.466  10.275  1.00  0.00    -0.273 OA
HETATM    3  N1  UNL     1      -3.874   3.217  12.428  1.00  0.00    -0.349 N 
HETATM    4  C7  UNL     1      -3.999   3.789  13.737  1.00  0.00     0.128 C 
HETATM    5  C8  UNL     1      -4.209   2.809  14.834  1.00  0.00     0.047 C 
HETATM    6  C9  UNL     1      -4.833   1.519  14.430  1.00  0.00     0.113 C 
HETATM    7  C11 UNL     1      -4.117   0.981  13.226  1.00  0.00     0.158 C 
HETATM    8  C12 UNL     1      -4.450   1.927  12.065  1.00  0.00     0.159 C 
ENDROOT
BRANCH   1   9
HETATM    9  C5  UNL     1      -2.539   5.263  11.734  1.00  0.00     0.107 C 
HETATM   10  C4  UNL     1      -1.101   5.108  12.094  1.00  0.00     0.087 C 
HETATM   11  C2  UNL     1      -0.351   5.585  10.837  1.00  0.00     0.185 C 
HETATM   12  O5  UNL     1      -1.190   6.639  10.440  1.00  0.00    -0.352 OA
HETATM   13  C13 UNL     1      -2.480   6.071  10.454  1.00  0.00     0.185 C 
BRANCH  11  14
HETATM   14  O1  UNL     1      -0.360   4.543   9.973  1.00  0.00    -0.358 OA
HETATM   15  C1  UNL     1       0.464   4.566   8.887  1.00  0.00     0.205 C 
ENDBRANCH  11  14
BRANCH  11  16
HETATM   16  C3  UNL     1       0.958   6.194  11.185  1.00  0.00     0.232 C 
BRANCH  16  17
HETATM   17  O2  UNL     1       1.596   5.420  12.141  1.00  0.00    -0.396 OA
ATOM     18  H2  UNL     1       1.845   5.962  12.881  1.00  0.00     0.209 HD
ENDBRANCH  16  17
ENDBRANCH  11  16
ENDBRANCH   1   9
BRANCH   7  19
HETATM   19  O4  UNL     1      -4.534  -0.311  12.941  1.00  0.00    -0.392 OA
ATOM     20  H4  UNL     1      -3.897  -0.761  12.400  1.00  0.00     0.210 HD
ENDBRANCH   7  19
BRANCH   6  21
HETATM   21  N2  UNL     1      -4.750   0.610  15.565  1.00  0.00    -0.383 N 
ATOM     22  H2  UNL     1      -4.032  -0.114  15.610  1.00  0.00     0.160 HD
BRANCH  21  23
HETATM   23  C10 UNL     1      -5.613   0.750  16.510  1.00  0.00     0.166 C 
HETATM   24  S1  UNL     1      -6.963   1.109  17.351  1.00  0.00    -0.075 SA
ENDBRANCH  21  23
ENDBRANCH   6  21
TORSDOF 7
ENDMDL
MODEL 4
REMARK VINA RESULT: -5.703056634      1.621      1.829
REMARK  7 active torsions:
REMARK  status: ('A' for Active; 'I' for Inactive)
REMARK    1  A    between atoms: O1_2  and  C2_3 
REMARK    2  A    between atoms: C2_3  and  C3_4 
REMARK    3  A    between atoms: C3_4  and  O2_5 
REMARK    4  A    between atoms: C5_8  and  C6_9 
REMARK       I    between atoms: C6_9  and  N1_11 
REMARK    5  A    between atoms: C9_14  and  N2_15 
REMARK    6  A    between atoms: N2_15  and  C10_17 
REMARK    7  A    between atoms: C11_19  and  O4_20 
ROOT
HETATM    1  C6  UNL     1      -3.343   3.951  12.810  1.00  0.00     0.226 C 
HETATM    2  O3  UNL     1      -2.544   3.011  12.551  1.00  0.00    -0.273 OA
HETATM    3  N1  UNL     1      -3.665   4.919  11.831  1.00  0.00    -0.349 N 
HETATM    4  C7  UNL     1      -4.577   5.971  12.174  1.00  0.00     0.128 C 
HETATM    5  C8  UNL     1      -5.310   6.567  11.028  1.00  0.00     0.047 C 
HETATM    6  C9  UNL     1      -4.634   6.455   9.706  1.00  0.00     0.113 C 
HETATM    7  C11 UNL     1      -4.178   5.040   9.503  1.00  0.00     0.158 C 
HETATM    8  C12 UNL     1      -3.050   4.798  10.515  1.00  0.00     0.159 C 
ENDROOT
BRANCH   1   9
HETATM    9  C5  UNL     1      -3.933   4.008  14.186  1.00  0.00     0.107 C 
HETATM   10  C4  UNL     1      -5.053   3.034  14.321  1.00  0.00     0.087 C 
HETATM   11  C2  UNL     1      -4.451   1.890  15.157  1.00  0.00     0.185 C 
HETATM   12  O5  UNL     1      -3.639   2.631  16.031  1.00  0.00    -0.352 OA
HETATM   13  C13 UNL     1      -2.914   3.487  15.179  1.00  0.00     0.185 C 
BRANCH  11  14
HETATM   14  O1  UNL     1      -3.744   1.123  14.294  1.00  0.00    -0.358 OA
HETATM   15  C1  UNL     1      -4.404   0.258  13.472  1.00  0.00     0.205 C 
ENDBRANCH  11  14
BRANCH  11  16
HETATM   16  C3  UNL     1      -5.483   1.229  15.995  1.00  0.00     0.232 C 
BRANCH  16  17
HETATM   17  O2  UNL     1      -4.876   0.520  17.018  1.00  0.00    -0.396 OA
ATOM     18  H2  UNL     1      -4.705  -0.371  16.736  1.00  0.00     0.209 HD
ENDBRANCH  16  17
ENDBRANCH  11  16
ENDBRANCH   1   9
BRANCH   7  19
HETATM   19  O4  UNL     1      -3.724   4.849   8.206  1.00  0.00    -0.392 OA
ATOM     20  H4  UNL     1      -3.774   3.932   7.962  1.00  0.00     0.210 HD
ENDBRANCH   7  19
BRANCH   6  21
HETATM   21  N2  UNL     1      -5.582   6.875   8.684  1.00  0.00    -0.383 N 
ATOM     22  H2  UNL     1      -5.347   6.822   7.692  1.00  0.00     0.160 HD
BRANCH  21  23
HETATM   23  C10 UNL     1      -6.727   7.316   9.073  1.00  0.00     0.166 C 
HETATM   24  S1  UNL     1      -8.212   7.988   9.105  1.00  0.00    -0.075 SA
ENDBRANCH  21  23
ENDBRANCH   6  21
TORSDOF 7
ENDMDL
MODEL 5
REMARK VINA RESULT: -5.682989665      2.657      3.921
REMARK  7 active torsions:
REMARK  status: ('A' for Active; 'I' for Inactive)
REMARK    1  A    between atoms: O1_2  and  C2_3 
REMARK    2  A    between atoms: C2_3  and  C3_4 
REMARK    3  A    between atoms: C3_4  and  O2_5 
REMARK    4  A    between atoms: C5_8  and  C6_9 
REMARK       I    between atoms: C6_9  and  N1_11 
REMARK    5  A    between atoms: C9_14  and  N2_15 
REMARK    6  A    between atoms: N2_15  and  C10_17 
REMARK    7  A    between atoms: C11_19  and  O4_20 
ROOT
HETATM    1  C6  UNL     1      -3.838   3.761  14.848  1.00  0.00     0.226 C 
HETATM    2  O3  UNL     1      -2.870   3.398  15.569  1.00  0.00    -0.273 OA
HETATM    3  N1  UNL     1      -3.932   5.091  14.376  1.00  0.00    -0.349 N 
HETATM    4  C7  UNL     1      -5.052   5.456  13.560  1.00  0.00     0.128 C 
HETATM    5  C8  UNL     1      -4.818   6.604  12.647  1.00  0.00     0.047 C 
HETATM    6  C9  UNL     1      -3.760   7.559  13.076  1.00  0.00     0.113 C 
HETATM    7  C11 UNL     1      -2.529   6.792  13.461  1.00  0.00     0.158 C 
HETATM    8  C12 UNL     1      -2.878   6.028  14.746  1.00  0.00     0.159 C 
ENDROOT
BRANCH   1   9
HETATM    9  C5  UNL     1      -4.881   2.740  14.511  1.00  0.00     0.107 C 
HETATM   10  C4  UNL     1      -5.106   2.679  13.040  1.00  0.00     0.087 C 
HETATM   11  C2  UNL     1      -4.396   1.381  12.609  1.00  0.00     0.185 C 
HETATM   12  O5  UNL     1      -4.689   0.568  13.715  1.00  0.00    -0.352 OA
HETATM   13  C13 UNL     1      -4.336   1.361  14.825  1.00  0.00     0.185 C 
BRANCH  11  14
HETATM   14  O1  UNL     1      -3.082   1.687  12.506  1.00  0.00    -0.358 OA
HETATM   15  C1  UNL     1      -2.707   2.813  11.833  1.00  0.00     0.205 C 
ENDBRANCH  11  14
BRANCH  11  16
HETATM   16  C3  UNL     1      -5.065   0.761  11.437  1.00  0.00     0.232 C 
BRANCH  16  17
HETATM   17  O2  UNL     1      -5.966   1.655  10.883  1.00  0.00    -0.396 OA
ATOM     18  H2  UNL     1      -6.144   1.416   9.981  1.00  0.00     0.209 HD
ENDBRANCH  16  17
ENDBRANCH  11  16
ENDBRANCH   1   9
BRANCH   7  19
HETATM   19  O4  UNL     1      -1.459   7.649  13.674  1.00  0.00    -0.392 OA
ATOM     20  H4  UNL     1      -1.285   7.748  14.602  1.00  0.00     0.210 HD
ENDBRANCH   7  19
BRANCH   6  21
HETATM   21  N2  UNL     1      -3.509   8.473  11.970  1.00  0.00    -0.383 N 
ATOM     22  H2  UNL     1      -2.605   8.934  11.861  1.00  0.00     0.160 HD
BRANCH  21  23
HETATM   23  C10 UNL     1      -4.466   8.680  11.135  1.00  0.00     0.166 C 
HETATM   24  S1  UNL     1      -5.560   9.396  10.161  1.00  0.00    -0.075 SA
ENDBRANCH  21  23
ENDBRANCH   6  21
TORSDOF 7
ENDMDL
