MODEL 1
REMARK VINA RESULT: -7.386543059      0.000      0.000
REMARK  6 active torsions:
REMARK  status: ('A' for Active; 'I' for Inactive)
REMARK    1  A    between atoms: C3_3  and  N1_4 
REMARK    2  A    between atoms: N1_4  and  C5_6 
REMARK    3  A    between atoms: C10_14  and  C11_15 
REMARK    4  A    between atoms: C11_15  and  O2_17 
REMARK    5  A    between atoms: O2_17  and  C12_18 
REMARK    6  A    between atoms: C16_24  and  O5_25 
ROOT
HETATM    1  C1  UNL     1      -5.138   1.062  11.338  1.00  0.00     0.013 C 
HETATM    2  C2  UNL     1      -4.645   2.146  11.137  1.00  0.00    -0.087 C 
HETATM    3  C3  UNL     1      -4.052   3.479  10.867  1.00  0.00     0.365 C 
ENDROOT
BRANCH   3   4
HETATM    4  N1  UNL     1      -3.167   3.828  11.971  1.00  0.00     0.102 N 
HETATM    5  C4  UNL     1      -1.826   3.842  11.424  1.00  0.00     0.311 C 
BRANCH   4   6
HETATM    6  C5  UNL     1      -3.587   5.143  12.437  1.00  0.00     0.266 C 
HETATM    7  C6  UNL     1      -2.630   6.225  12.070  1.00  0.00     0.076 C 
HETATM    8  C7  UNL     1      -2.413   7.032  13.317  1.00  0.00     0.121 C 
HETATM    9  C8  UNL     1      -3.247   8.307  13.348  1.00  0.00     0.046 C 
HETATM   10  C9  UNL     1      -0.944   7.417  13.380  1.00  0.00     0.046 C 
HETATM   11  N2  UNL     1      -2.821   6.220  14.427  1.00  0.00    -0.051 N 
HETATM   12  C10 UNL     1      -3.746   5.232  13.908  1.00  0.00     0.318 C 
ATOM     13  H22 UNL     1      -2.036   5.809  14.934  1.00  0.00     0.279 HD
ATOM     14  H21 UNL     1      -3.205   6.762  15.201  1.00  0.00     0.279 HD
BRANCH  12  15
HETATM   15  C11 UNL     1      -3.517   3.968  14.647  1.00  0.00     0.294 C 
HETATM   16  O1  UNL     1      -2.422   3.775  15.208  1.00  0.00    -0.263 OA
BRANCH  15  17
HETATM   17  O2  UNL     1      -4.458   2.957  14.762  1.00  0.00    -0.283 OA
BRANCH  17  18
HETATM   18  C12 UNL     1      -4.641   2.196  15.932  1.00  0.00     0.327 C 
HETATM   19  O3  UNL     1      -5.941   2.486  16.388  1.00  0.00    -0.321 OA
HETATM   20  C13 UNL     1      -6.345   1.399  17.125  1.00  0.00     0.163 C 
HETATM   21  C14 UNL     1      -6.038   1.733  18.593  1.00  0.00     0.078 C 
HETATM   22  C15 UNL     1      -7.815   1.081  17.003  1.00  0.00     0.078 C 
HETATM   23  O4  UNL     1      -5.640   0.294  16.705  1.00  0.00    -0.321 OA
HETATM   24  C16 UNL     1      -4.717   0.725  15.728  1.00  0.00     0.316 C 
BRANCH  24  25
HETATM   25  O5  UNL     1      -3.526   0.059  16.043  1.00  0.00    -0.367 OA
ATOM     26  H5  UNL     1      -2.994   0.520  16.680  1.00  0.00     0.212 HD
ENDBRANCH  24  25
ENDBRANCH  17  18
ENDBRANCH  15  17
ENDBRANCH  12  15
ENDBRANCH   4   6
ENDBRANCH   3   4
TORSDOF 6
ENDMDL
MODEL 2
REMARK VINA RESULT: -6.862691982      1.882      2.632
REMARK  6 active torsions:
REMARK  status: ('A' for Active; 'I' for Inactive)
REMARK    1  A    between atoms: C3_3  and  N1_4 
REMARK    2  A    between atoms: N1_4  and  C5_6 
REMARK    3  A    between atoms: C10_14  and  C11_15 
REMARK    4  A    between atoms: C11_15  and  O2_17 
REMARK    5  A    between atoms: O2_17  and  C12_18 
REMARK    6  A    between atoms: C16_24  and  O5_25 
ROOT
HETATM    1  C1  UNL     1      -7.301   8.246  11.347  1.00  0.00     0.013 C 
HETATM    2  C2  UNL     1      -6.993   7.411  12.164  1.00  0.00    -0.087 C 
HETATM    3  C3  UNL     1      -6.639   6.390  13.181  1.00  0.00     0.365 C 
ENDROOT
BRANCH   3   4
HETATM    4  N1  UNL     1      -5.292   5.908  12.906  1.00  0.00     0.102 N 
HETATM    5  C4  UNL     1      -4.956   6.379  11.579  1.00  0.00     0.311 C 
BRANCH   4   6
HETATM    6  C5  UNL     1      -4.431   6.483  13.931  1.00  0.00     0.266 C 
HETATM    7  C6  UNL     1      -3.478   7.495  13.392  1.00  0.00     0.076 C 
HETATM    8  C7  UNL     1      -2.135   7.154  13.968  1.00  0.00     0.121 C 
HETATM    9  C8  UNL     1      -1.772   8.017  15.171  1.00  0.00     0.046 C 
HETATM   10  C9  UNL     1      -1.089   7.372  12.888  1.00  0.00     0.046 C 
HETATM   11  N2  UNL     1      -2.195   5.792  14.414  1.00  0.00    -0.051 N 
HETATM   12  C10 UNL     1      -3.594   5.484  14.638  1.00  0.00     0.318 C 
ATOM     13  H22 UNL     1      -1.737   5.140  13.777  1.00  0.00     0.279 HD
ATOM     14  H21 UNL     1      -1.609   5.610  15.229  1.00  0.00     0.279 HD
BRANCH  12  15
HETATM   15  C11 UNL     1      -3.816   4.075  14.236  1.00  0.00     0.294 C 
HETATM   16  O1  UNL     1      -2.994   3.514  13.486  1.00  0.00    -0.263 OA
BRANCH  15  17
HETATM   17  O2  UNL     1      -4.900   3.314  14.644  1.00  0.00    -0.283 OA
BRANCH  17  18
HETATM   18  C12 UNL     1      -4.965   2.658  15.888  1.00  0.00     0.327 C 
HETATM   19  O3  UNL     1      -6.313   2.711  16.288  1.00  0.00    -0.321 OA
HETATM   20  C13 UNL     1      -6.509   1.647  17.134  1.00  0.00     0.163 C 
HETATM   21  C14 UNL     1      -6.336   2.190  18.561  1.00  0.00     0.078 C 
HETATM   22  C15 UNL     1      -7.874   1.013  17.024  1.00  0.00     0.078 C 
HETATM   23  O4  UNL     1      -5.572   0.679  16.850  1.00  0.00    -0.321 OA
HETATM   24  C16 UNL     1      -4.722   1.192  15.846  1.00  0.00     0.316 C 
BRANCH  24  25
HETATM   25  O5  UNL     1      -3.432   0.832  16.251  1.00  0.00    -0.367 OA
ATOM     26  H5  UNL     1      -3.132   0.014  15.872  1.00  0.00     0.212 HD
ENDBRANCH  24  25
ENDBRANCH  17  18
ENDBRANCH  15  17
ENDBRANCH  12  15
ENDBRANCH   4   6
ENDBRANCH   3   4
TORSDOF 6
ENDMDL
MODEL 3
REMARK VINA RESULT: -6.810919098      1.636      2.697
REMARK  6 active torsions:
REMARK  status: ('A' for Active; 'I' for Inactive)
REMARK    1  A    between atoms: C3_3  and  N1_4 
REMARK    2  A    between atoms: N1_4  and  C5_6 
REMARK    3  A    between atoms: C10_14  and  C11_15 
REMARK    4  A    between atoms: C11_15  and  O2_17 
REMARK    5  A    between atoms: O2_17  and  C12_18 
REMARK    6  A    between atoms: C16_24  and  O5_25 
ROOT
HETATM    1  C1  UNL     1       0.577   4.127  11.038  1.00  0.00     0.013 C 
HETATM    2  C2  UNL     1      -0.566   4.502  11.154  1.00  0.00    -0.087 C 
HETATM    3  C3  UNL     1      -1.968   4.971  11.271  1.00  0.00     0.365 C 
ENDROOT
BRANCH   3   4
HETATM    4  N1  UNL     1      -2.432   4.719  12.630  1.00  0.00     0.102 N 
HETATM    5  C4  UNL     1      -1.721   5.653  13.479  1.00  0.00     0.311 C 
BRANCH   4   6
HETATM    6  C5  UNL     1      -3.869   4.961  12.627  1.00  0.00     0.266 C 
HETATM    7  C6  UNL     1      -4.252   6.213  13.339  1.00  0.00     0.076 C 
HETATM    8  C7  UNL     1      -5.394   5.849  14.242  1.00  0.00     0.121 C 
HETATM    9  C8  UNL     1      -6.751   6.222  13.657  1.00  0.00     0.046 C 
HETATM   10  C9  UNL     1      -5.215   6.594  15.554  1.00  0.00     0.046 C 
HETATM   11  N2  UNL     1      -5.370   4.424  14.406  1.00  0.00    -0.051 N 
HETATM   12  C10 UNL     1      -4.657   3.881  13.267  1.00  0.00     0.318 C 
ATOM     13  H22 UNL     1      -4.981   4.129  15.302  1.00  0.00     0.279 HD
ATOM     14  H21 UNL     1      -6.298   4.018  14.529  1.00  0.00     0.279 HD
BRANCH  12  15
HETATM   15  C11 UNL     1      -3.869   2.718  13.740  1.00  0.00     0.294 C 
HETATM   16  O1  UNL     1      -3.547   1.825  12.934  1.00  0.00    -0.263 OA
BRANCH  15  17
HETATM   17  O2  UNL     1      -3.452   2.546  15.051  1.00  0.00    -0.283 OA
BRANCH  17  18
HETATM   18  C12 UNL     1      -4.100   1.696  15.967  1.00  0.00     0.327 C 
HETATM   19  O3  UNL     1      -5.163   2.443  16.510  1.00  0.00    -0.321 OA
HETATM   20  C13 UNL     1      -6.106   1.533  16.924  1.00  0.00     0.163 C 
HETATM   21  C14 UNL     1      -5.852   1.298  18.420  1.00  0.00     0.078 C 
HETATM   22  C15 UNL     1      -7.531   1.994  16.745  1.00  0.00     0.078 C 
HETATM   23  O4  UNL     1      -5.946   0.372  16.201  1.00  0.00    -0.321 OA
HETATM   24  C16 UNL     1      -4.821   0.544  15.365  1.00  0.00     0.316 C 
BRANCH  24  25
HETATM   25  O5  UNL     1      -4.116  -0.662  15.461  1.00  0.00    -0.367 OA
ATOM     26  H5  UNL     1      -4.459  -1.246  16.127  1.00  0.00     0.212 HD
ENDBRANCH  24  25
ENDBRANCH  17  18
ENDBRANCH  15  17
ENDBRANCH  12  15
ENDBRANCH   4   6
ENDBRANCH   3   4
TORSDOF 6
ENDMDL
MODEL 4
REMARK VINA RESULT: -6.669299371      1.516      3.476
REMARK  6 active torsions:
REMARK  status: ('A' for Active; 'I' for Inactive)
REMARK    1  A    between atoms: C3_3  and  N1_4 
REMARK    2  A    between atoms: N1_4  and  C5_6 
REMARK    3  A    between atoms: C10_14  and  C11_15 
REMARK    4  A    between atoms: C11_15  and  O2_17 
REMARK    5  A    between atoms: O2_17  and  C12_18 
REMARK    6  A    between atoms: C16_24  and  O5_25 
ROOT
HETATM    1  C1  UNL     1      -2.451   8.402  14.741  1.00  0.00     0.013 C 
HETATM    2  C2  UNL     1      -3.292   7.537  14.794  1.00  0.00    -0.087 C 
HETATM    3  C3  UNL     1      -4.328   6.478  14.885  1.00  0.00     0.365 C 
ENDROOT
BRANCH   3   4
HETATM    4  N1  UNL     1      -4.430   5.813  13.593  1.00  0.00     0.102 N 
HETATM    5  C4  UNL     1      -4.633   6.861  12.614  1.00  0.00     0.311 C 
BRANCH   4   6
HETATM    6  C5  UNL     1      -3.171   5.107  13.392  1.00  0.00     0.266 C 
HETATM    7  C6  UNL     1      -2.465   5.517  12.145  1.00  0.00     0.076 C 
HETATM    8  C7  UNL     1      -2.055   4.246  11.459  1.00  0.00     0.121 C 
HETATM    9  C8  UNL     1      -0.596   3.884  11.710  1.00  0.00     0.046 C 
HETATM   10  C9  UNL     1      -2.255   4.431   9.964  1.00  0.00     0.046 C 
HETATM   11  N2  UNL     1      -2.862   3.190  11.999  1.00  0.00    -0.051 N 
HETATM   12  C10 UNL     1      -3.321   3.635  13.301  1.00  0.00     0.318 C 
ATOM     13  H22 UNL     1      -3.622   2.909  11.380  1.00  0.00     0.279 HD
ATOM     14  H21 UNL     1      -2.380   2.292  12.030  1.00  0.00     0.279 HD
BRANCH  12  15
HETATM   15  C11 UNL     1      -4.699   3.126  13.492  1.00  0.00     0.294 C 
HETATM   16  O1  UNL     1      -5.207   2.389  12.625  1.00  0.00    -0.263 OA
BRANCH  15  17
HETATM   17  O2  UNL     1      -5.487   3.417  14.594  1.00  0.00    -0.283 OA
BRANCH  17  18
HETATM   18  C12 UNL     1      -5.281   2.855  15.868  1.00  0.00     0.327 C 
HETATM   19  O3  UNL     1      -6.560   2.586  16.389  1.00  0.00    -0.321 OA
HETATM   20  C13 UNL     1      -6.403   1.568  17.299  1.00  0.00     0.163 C 
HETATM   21  C14 UNL     1      -6.268   2.235  18.676  1.00  0.00     0.078 C 
HETATM   22  C15 UNL     1      -7.557   0.597  17.346  1.00  0.00     0.078 C 
HETATM   23  O4  UNL     1      -5.269   0.858  16.974  1.00  0.00    -0.321 OA
HETATM   24  C16 UNL     1      -4.665   1.502  15.872  1.00  0.00     0.316 C 
BRANCH  24  25
HETATM   25  O5  UNL     1      -3.297   1.516  16.172  1.00  0.00    -0.367 OA
ATOM     26  H5  UNL     1      -2.751   1.225  15.452  1.00  0.00     0.212 HD
ENDBRANCH  24  25
ENDBRANCH  17  18
ENDBRANCH  15  17
ENDBRANCH  12  15
ENDBRANCH   4   6
ENDBRANCH   3   4
TORSDOF 6
ENDMDL
MODEL 5
REMARK VINA RESULT: -6.627736442      1.723      2.701
REMARK  6 active torsions:
REMARK  status: ('A' for Active; 'I' for Inactive)
REMARK    1  A    between atoms: C3_3  and  N1_4 
REMARK    2  A    between atoms: N1_4  and  C5_6 
REMARK    3  A    between atoms: C10_14  and  C11_15 
REMARK    4  A    between atoms: C11_15  and  O2_17 
REMARK    5  A    between atoms: O2_17  and  C12_18 
REMARK    6  A    between atoms: C16_24  and  O5_25 
ROOT
HETATM    1  C1  UNL     1      -6.276   6.029  15.169  1.00  0.00     0.013 C 
HETATM    2  C2  UNL     1      -5.936   6.178  14.019  1.00  0.00    -0.087 C 
HETATM    3  C3  UNL     1      -5.534   6.384  12.606  1.00  0.00     0.365 C 
ENDROOT
BRANCH   3   4
HETATM    4  N1  UNL     1      -4.746   5.236  12.174  1.00  0.00     0.102 N 
HETATM    5  C4  UNL     1      -4.764   5.256  10.726  1.00  0.00     0.311 C 
BRANCH   4   6
HETATM    6  C5  UNL     1      -3.406   5.429  12.713  1.00  0.00     0.266 C 
HETATM    7  C6  UNL     1      -2.418   5.853  11.681  1.00  0.00     0.076 C 
HETATM    8  C7  UNL     1      -1.212   4.981  11.872  1.00  0.00     0.121 C 
HETATM    9  C8  UNL     1      -0.105   5.668  12.662  1.00  0.00     0.046 C 
HETATM   10  C9  UNL     1      -0.670   4.618  10.500  1.00  0.00     0.046 C 
HETATM   11  N2  UNL     1      -1.631   3.832  12.623  1.00  0.00    -0.051 N 
HETATM   12  C10 UNL     1      -2.834   4.214  13.338  1.00  0.00     0.318 C 
ATOM     13  H22 UNL     1      -1.753   2.999  12.048  1.00  0.00     0.279 HD
ATOM     14  H21 UNL     1      -0.902   3.464  13.233  1.00  0.00     0.279 HD
BRANCH  12  15
HETATM   15  C11 UNL     1      -3.731   3.036  13.370  1.00  0.00     0.294 C 
HETATM   16  O1  UNL     1      -3.445   2.026  12.699  1.00  0.00    -0.263 OA
BRANCH  15  17
HETATM   17  O2  UNL     1      -4.900   2.972  14.113  1.00  0.00    -0.283 OA
BRANCH  17  18
HETATM   18  C12 UNL     1      -4.940   2.598  15.469  1.00  0.00     0.327 C 
HETATM   19  O3  UNL     1      -6.294   2.647  15.850  1.00  0.00    -0.321 OA
HETATM   20  C13 UNL     1      -6.432   1.781  16.907  1.00  0.00     0.163 C 
HETATM   21  C14 UNL     1      -6.313   2.629  18.181  1.00  0.00     0.078 C 
HETATM   22  C15 UNL     1      -7.752   1.049  16.938  1.00  0.00     0.078 C 
HETATM   23  O4  UNL     1      -5.431   0.838  16.839  1.00  0.00    -0.321 OA
HETATM   24  C16 UNL     1      -4.603   1.177  15.746  1.00  0.00     0.316 C 
BRANCH  24  25
HETATM   25  O5  UNL     1      -3.297   0.998  16.219  1.00  0.00    -0.367 OA
ATOM     26  H5  UNL     1      -3.217   0.289  16.847  1.00  0.00     0.212 HD
ENDBRANCH  24  25
ENDBRANCH  17  18
ENDBRANCH  15  17
ENDBRANCH  12  15
ENDBRANCH   4   6
ENDBRANCH   3   4
TORSDOF 6
ENDMDL
