MODEL 1
REMARK VINA RESULT: -6.601226607      0.000      0.000
REMARK  5 active torsions:
REMARK  status: ('A' for Active; 'I' for Inactive)
REMARK    1  A    between atoms: C3_3  and  N1_4 
REMARK    2  A    between atoms: C3_3  and  C4_8 
REMARK       I    between atoms: C4_8  and  N2_10 
REMARK    3  A    between atoms: N2_10  and  C5_12 
REMARK    4  A    between atoms: C9_18  and  C10_19 
REMARK       I    between atoms: C10_19  and  N4_21 
REMARK    5  A    between atoms: N4_21  and  S1_23 
ROOT
HETATM    1  C1  UNL     1      40.528  -1.497  12.916  1.00  0.00     0.015 C 
HETATM    2  C2  UNL     1      40.067  -1.788  13.993  1.00  0.00    -0.075 C 
HETATM    3  C3  UNL     1      39.489  -2.119  15.305  1.00  0.00     0.352 C 
ENDROOT
BRANCH   3   4
HETATM    4  N1  UNL     1      39.359  -0.952  16.137  1.00  0.00    -0.056 N 
ATOM      5  H13 UNL     1      40.253  -0.476  16.254  1.00  0.00     0.276 HD
ATOM      6  H12 UNL     1      38.845  -0.211  15.660  1.00  0.00     0.276 HD
ATOM      7  H11 UNL     1      38.937  -1.178  17.038  1.00  0.00     0.276 HD
ENDBRANCH   3   4
BRANCH   3   8
HETATM    8  C4  UNL     1      38.187  -2.794  15.075  1.00  0.00     0.265 C 
HETATM    9  O1  UNL     1      38.065  -3.978  15.476  1.00  0.00    -0.270 OA
HETATM   10  N2  UNL     1      37.102  -2.154  14.432  1.00  0.00    -0.310 N 
ATOM     11  H2  UNL     1      36.671  -1.383  14.941  1.00  0.00     0.170 HD
BRANCH  10  12
HETATM   12  C5  UNL     1      36.604  -2.421  13.306  1.00  0.00     0.123 A 
HETATM   13  N3  UNL     1      36.291  -3.736  13.063  1.00  0.00    -0.351 N 
HETATM   14  C6  UNL     1      35.739  -4.141  11.909  1.00  0.00     0.090 A 
ATOM     15  H3  UNL     1      36.485  -4.429  13.784  1.00  0.00     0.166 HD
HETATM   16  C7  UNL     1      35.476  -3.196  10.929  1.00  0.00     0.018 A 
HETATM   17  C8  UNL     1      35.774  -1.878  11.135  1.00  0.00     0.022 A 
HETATM   18  C9  UNL     1      36.356  -1.476  12.360  1.00  0.00     0.077 A 
BRANCH  18  19
HETATM   19  C10 UNL     1      36.688  -0.077  12.553  1.00  0.00     0.268 C 
HETATM   20  O2  UNL     1      37.686   0.351  11.846  1.00  0.00    -0.267 OA
HETATM   21  N4  UNL     1      36.110   0.872  13.375  1.00  0.00    -0.250 N 
ATOM     22  H4  UNL     1      35.322   0.623  13.971  1.00  0.00     0.181 HD
BRANCH  21  23
HETATM   23  S1  UNL     1      36.740   2.503  13.386  1.00  0.00     0.229 S 
HETATM   24  C11 UNL     1      38.377   2.505  14.086  1.00  0.00     0.186 C 
HETATM   25  O3  UNL     1      35.847   3.313  14.272  1.00  0.00    -0.206 OA
HETATM   26  O4  UNL     1      36.745   3.087  12.006  1.00  0.00    -0.206 OA
ENDBRANCH  21  23
ENDBRANCH  18  19
ENDBRANCH  10  12
ENDBRANCH   3   8
TORSDOF 5
ENDMDL
MODEL 2
REMARK VINA RESULT: -6.564972629      5.692      8.325
REMARK  5 active torsions:
REMARK  status: ('A' for Active; 'I' for Inactive)
REMARK    1  A    between atoms: C3_3  and  N1_4 
REMARK    2  A    between atoms: C3_3  and  C4_8 
REMARK       I    between atoms: C4_8  and  N2_10 
REMARK    3  A    between atoms: N2_10  and  C5_12 
REMARK    4  A    between atoms: C9_18  and  C10_19 
REMARK       I    between atoms: C10_19  and  N4_21 
REMARK    5  A    between atoms: N4_21  and  S1_23 
ROOT
HETATM    1  C1  UNL     1      35.021  -9.323  10.379  1.00  0.00     0.015 C 
HETATM    2  C2  UNL     1      35.610  -8.496   9.728  1.00  0.00    -0.075 C 
HETATM    3  C3  UNL     1      36.312  -7.492   8.912  1.00  0.00     0.352 C 
ENDROOT
BRANCH   3   4
HETATM    4  N1  UNL     1      36.421  -7.907   7.538  1.00  0.00    -0.056 N 
ATOM      5  H13 UNL     1      35.504  -7.975   7.097  1.00  0.00     0.276 HD
ATOM      6  H12 UNL     1      36.822  -7.170   6.958  1.00  0.00     0.276 HD
ATOM      7  H11 UNL     1      36.943  -8.778   7.448  1.00  0.00     0.276 HD
ENDBRANCH   3   4
BRANCH   3   8
HETATM    8  C4  UNL     1      35.591  -6.201   9.055  1.00  0.00     0.265 C 
HETATM    9  O1  UNL     1      35.609  -5.413   8.077  1.00  0.00    -0.270 OA
HETATM   10  N2  UNL     1      34.900  -5.844  10.234  1.00  0.00    -0.310 N 
ATOM     11  H2  UNL     1      34.066  -6.392  10.449  1.00  0.00     0.170 HD
BRANCH  10  12
HETATM   12  C5  UNL     1      35.187  -4.930  11.053  1.00  0.00     0.123 A 
HETATM   13  N3  UNL     1      35.635  -3.744  10.526  1.00  0.00    -0.351 N 
HETATM   14  C6  UNL     1      35.955  -2.692  11.295  1.00  0.00     0.090 A 
ATOM     15  H3  UNL     1      35.728  -3.659   9.514  1.00  0.00     0.166 HD
HETATM   16  C7  UNL     1      35.827  -2.810  12.671  1.00  0.00     0.018 A 
HETATM   17  C8  UNL     1      35.384  -3.975  13.232  1.00  0.00     0.022 A 
HETATM   18  C9  UNL     1      35.054  -5.071  12.399  1.00  0.00     0.077 A 
BRANCH  18  19
HETATM   19  C10 UNL     1      34.608  -6.308  13.012  1.00  0.00     0.268 C 
HETATM   20  O2  UNL     1      33.321  -6.459  13.065  1.00  0.00    -0.267 OA
HETATM   21  N4  UNL     1      35.337  -7.349  13.553  1.00  0.00    -0.250 N 
ATOM     22  H4  UNL     1      36.356  -7.313  13.559  1.00  0.00     0.181 HD
BRANCH  21  23
HETATM   23  S1  UNL     1      34.502  -8.729  14.226  1.00  0.00     0.229 S 
HETATM   24  C11 UNL     1      35.512 -10.184  14.042  1.00  0.00     0.186 C 
HETATM   25  O3  UNL     1      33.250  -8.919  13.428  1.00  0.00    -0.206 OA
HETATM   26  O4  UNL     1      34.152  -8.497  15.665  1.00  0.00    -0.206 OA
ENDBRANCH  21  23
ENDBRANCH  18  19
ENDBRANCH  10  12
ENDBRANCH   3   8
TORSDOF 5
ENDMDL
MODEL 3
REMARK VINA RESULT: -6.534074504      1.304      1.607
REMARK  5 active torsions:
REMARK  status: ('A' for Active; 'I' for Inactive)
REMARK    1  A    between atoms: C3_3  and  N1_4 
REMARK    2  A    between atoms: C3_3  and  C4_8 
REMARK       I    between atoms: C4_8  and  N2_10 
REMARK    3  A    between atoms: N2_10  and  C5_12 
REMARK    4  A    between atoms: C9_18  and  C10_19 
REMARK       I    between atoms: C10_19  and  N4_21 
REMARK    5  A    between atoms: N4_21  and  S1_23 
ROOT
HETATM    1  C1  UNL     1      41.094  -1.037  10.435  1.00  0.00     0.015 C 
HETATM    2  C2  UNL     1      40.988  -1.094  11.635  1.00  0.00    -0.075 C 
HETATM    3  C3  UNL     1      40.836  -1.147  13.098  1.00  0.00     0.352 C 
ENDROOT
BRANCH   3   4
HETATM    4  N1  UNL     1      40.416   0.121  13.634  1.00  0.00    -0.056 N 
ATOM      5  H13 UNL     1      41.116   0.507  14.267  1.00  0.00     0.276 HD
ATOM      6  H12 UNL     1      40.428   0.849  12.920  1.00  0.00     0.276 HD
ATOM      7  H11 UNL     1      39.503   0.055  14.084  1.00  0.00     0.276 HD
ENDBRANCH   3   4
BRANCH   3   8
HETATM    8  C4  UNL     1      39.880  -2.237  13.420  1.00  0.00     0.265 C 
HETATM    9  O1  UNL     1      40.314  -3.416  13.402  1.00  0.00    -0.270 OA
HETATM   10  N2  UNL     1      38.525  -1.991  13.740  1.00  0.00    -0.310 N 
ATOM     11  H2  UNL     1      38.354  -1.510  14.623  1.00  0.00     0.170 HD
BRANCH  10  12
HETATM   12  C5  UNL     1      37.504  -2.293  13.067  1.00  0.00     0.123 A 
HETATM   13  N3  UNL     1      37.253  -3.631  12.888  1.00  0.00    -0.351 N 
HETATM   14  C6  UNL     1      36.187  -4.076  12.206  1.00  0.00     0.090 A 
ATOM     15  H3  UNL     1      37.899  -4.310  13.288  1.00  0.00     0.166 HD
HETATM   16  C7  UNL     1      35.310  -3.150  11.663  1.00  0.00     0.018 A 
HETATM   17  C8  UNL     1      35.527  -1.810  11.820  1.00  0.00     0.022 A 
HETATM   18  C9  UNL     1      36.659  -1.365  12.543  1.00  0.00     0.077 A 
BRANCH  18  19
HETATM   19  C10 UNL     1      36.887   0.061  12.680  1.00  0.00     0.268 C 
HETATM   20  O2  UNL     1      37.867   0.529  11.972  1.00  0.00    -0.267 OA
HETATM   21  N4  UNL     1      36.228   1.001  13.449  1.00  0.00    -0.250 N 
ATOM     22  H4  UNL     1      35.447   0.721  14.042  1.00  0.00     0.181 HD
BRANCH  21  23
HETATM   23  S1  UNL     1      36.741   2.671  13.400  1.00  0.00     0.229 S 
HETATM   24  C11 UNL     1      38.342   2.825  14.163  1.00  0.00     0.186 C 
HETATM   25  O3  UNL     1      35.756   3.458  14.206  1.00  0.00    -0.206 OA
HETATM   26  O4  UNL     1      36.765   3.185  11.992  1.00  0.00    -0.206 OA
ENDBRANCH  21  23
ENDBRANCH  18  19
ENDBRANCH  10  12
ENDBRANCH   3   8
TORSDOF 5
ENDMDL
MODEL 4
REMARK VINA RESULT: -6.469253120      0.967      1.324
REMARK  5 active torsions:
REMARK  status: ('A' for Active; 'I' for Inactive)
REMARK    1  A    between atoms: C3_3  and  N1_4 
REMARK    2  A    between atoms: C3_3  and  C4_8 
REMARK       I    between atoms: C4_8  and  N2_10 
REMARK    3  A    between atoms: N2_10  and  C5_12 
REMARK    4  A    between atoms: C9_18  and  C10_19 
REMARK       I    between atoms: C10_19  and  N4_21 
REMARK    5  A    between atoms: N4_21  and  S1_23 
ROOT
HETATM    1  C1  UNL     1      40.602  -1.549  17.500  1.00  0.00     0.015 C 
HETATM    2  C2  UNL     1      39.932  -1.287  16.532  1.00  0.00    -0.075 C 
HETATM    3  C3  UNL     1      39.134  -0.979  15.334  1.00  0.00     0.352 C 
ENDROOT
BRANCH   3   4
HETATM    4  N1  UNL     1      39.963  -0.549  14.240  1.00  0.00    -0.056 N 
ATOM      5  H13 UNL     1      40.233  -1.334  13.646  1.00  0.00     0.276 HD
ATOM      6  H12 UNL     1      39.429  -0.010  13.558  1.00  0.00     0.276 HD
ATOM      7  H11 UNL     1      40.779  -0.032  14.567  1.00  0.00     0.276 HD
ENDBRANCH   3   4
BRANCH   3   8
HETATM    8  C4  UNL     1      38.335  -2.184  14.994  1.00  0.00     0.265 C 
HETATM    9  O1  UNL     1      38.887  -3.305  15.124  1.00  0.00    -0.270 OA
HETATM   10  N2  UNL     1      36.999  -2.107  14.539  1.00  0.00    -0.310 N 
ATOM     11  H2  UNL     1      36.312  -1.780  15.219  1.00  0.00     0.170 HD
BRANCH  10  12
HETATM   12  C5  UNL     1      36.553  -2.393  13.396  1.00  0.00     0.123 A 
HETATM   13  N3  UNL     1      36.245  -3.710  13.162  1.00  0.00    -0.351 N 
HETATM   14  C6  UNL     1      35.746  -4.134  11.991  1.00  0.00     0.090 A 
ATOM     15  H3  UNL     1      36.400  -4.391  13.905  1.00  0.00     0.166 HD
HETATM   16  C7  UNL     1      35.536  -3.206  10.982  1.00  0.00     0.018 A 
HETATM   17  C8  UNL     1      35.831  -1.886  11.178  1.00  0.00     0.022 A 
HETATM   18  C9  UNL     1      36.356  -1.464  12.422  1.00  0.00     0.077 A 
BRANCH  18  19
HETATM   19  C10 UNL     1      36.686  -0.063  12.604  1.00  0.00     0.268 C 
HETATM   20  O2  UNL     1      37.745   0.337  11.971  1.00  0.00    -0.267 OA
HETATM   21  N4  UNL     1      36.053   0.913  13.349  1.00  0.00    -0.250 N 
ATOM     22  H4  UNL     1      35.215   0.687  13.884  1.00  0.00     0.181 HD
BRANCH  21  23
HETATM   23  S1  UNL     1      36.698   2.538  13.370  1.00  0.00     0.229 S 
HETATM   24  C11 UNL     1      38.332   2.522  14.075  1.00  0.00     0.186 C 
HETATM   25  O3  UNL     1      35.809   3.353  14.256  1.00  0.00    -0.206 OA
HETATM   26  O4  UNL     1      36.713   3.128  11.992  1.00  0.00    -0.206 OA
ENDBRANCH  21  23
ENDBRANCH  18  19
ENDBRANCH  10  12
ENDBRANCH   3   8
TORSDOF 5
ENDMDL
MODEL 5
REMARK VINA RESULT: -6.391784651      1.904      3.838
REMARK  5 active torsions:
REMARK  status: ('A' for Active; 'I' for Inactive)
REMARK    1  A    between atoms: C3_3  and  N1_4 
REMARK    2  A    between atoms: C3_3  and  C4_8 
REMARK       I    between atoms: C4_8  and  N2_10 
REMARK    3  A    between atoms: N2_10  and  C5_12 
REMARK    4  A    between atoms: C9_18  and  C10_19 
REMARK       I    between atoms: C10_19  and  N4_21 
REMARK    5  A    between atoms: N4_21  and  S1_23 
ROOT
HETATM    1  C1  UNL     1      35.837  -5.803  10.718  1.00  0.00     0.015 C 
HETATM    2  C2  UNL     1      35.483  -4.968  11.513  1.00  0.00    -0.075 C 
HETATM    3  C3  UNL     1      35.073  -3.956  12.500  1.00  0.00     0.352 C 
ENDROOT
BRANCH   3   4
HETATM    4  N1  UNL     1      35.237  -4.433  13.848  1.00  0.00    -0.056 N 
ATOM      5  H13 UNL     1      34.374  -4.843  14.205  1.00  0.00     0.276 HD
ATOM      6  H12 UNL     1      35.832  -5.261  13.880  1.00  0.00     0.276 HD
ATOM      7  H11 UNL     1      35.585  -3.700  14.466  1.00  0.00     0.276 HD
ENDBRANCH   3   4
BRANCH   3   8
HETATM    8  C4  UNL     1      35.855  -2.721  12.242  1.00  0.00     0.265 C 
HETATM    9  O1  UNL     1      35.847  -2.260  11.073  1.00  0.00    -0.270 OA
HETATM   10  N2  UNL     1      36.591  -2.062  13.253  1.00  0.00    -0.310 N 
ATOM     11  H2  UNL     1      36.043  -1.622  13.992  1.00  0.00     0.170 HD
BRANCH  10  12
HETATM   12  C5  UNL     1      37.842  -1.952  13.352  1.00  0.00     0.123 A 
HETATM   13  N3  UNL     1      38.555  -3.113  13.523  1.00  0.00    -0.351 N 
HETATM   14  C6  UNL     1      39.893  -3.126  13.624  1.00  0.00     0.090 A 
ATOM     15  H3  UNL     1      38.050  -3.997  13.576  1.00  0.00     0.166 HD
HETATM   16  C7  UNL     1      40.577  -1.922  13.552  1.00  0.00     0.018 A 
HETATM   17  C8  UNL     1      39.902  -0.746  13.383  1.00  0.00     0.022 A 
HETATM   18  C9  UNL     1      38.491  -0.759  13.280  1.00  0.00     0.077 A 
BRANCH  18  19
HETATM   19  C10 UNL     1      37.789   0.501  13.124  1.00  0.00     0.268 C 
HETATM   20  O2  UNL     1      37.061   0.593  12.054  1.00  0.00    -0.267 OA
HETATM   21  N4  UNL     1      37.774   1.621  13.932  1.00  0.00    -0.250 N 
ATOM     22  H4  UNL     1      38.322   1.640  14.792  1.00  0.00     0.181 HD
BRANCH  21  23
HETATM   23  S1  UNL     1      36.813   3.006  13.472  1.00  0.00     0.229 S 
HETATM   24  C11 UNL     1      37.350   4.435  14.387  1.00  0.00     0.186 C 
HETATM   25  O3  UNL     1      35.397   2.705  13.854  1.00  0.00    -0.206 OA
HETATM   26  O4  UNL     1      36.894   3.252  11.996  1.00  0.00    -0.206 OA
ENDBRANCH  21  23
ENDBRANCH  18  19
ENDBRANCH  10  12
ENDBRANCH   3   8
TORSDOF 5
ENDMDL
