MODEL 1
REMARK VINA RESULT: -6.413199695      0.000      0.000
REMARK  7 active torsions:
REMARK  status: ('A' for Active; 'I' for Inactive)
REMARK       I    between atoms: C2_2  and  N1_4 
REMARK    1  A    between atoms: N1_4  and  C3_6 
REMARK    2  A    between atoms: C3_6  and  C5_9 
REMARK       I    between atoms: C5_9  and  N3_11 
REMARK    3  A    between atoms: N3_11  and  C6_13 
REMARK    4  A    between atoms: C6_13  and  N4_14 
REMARK       I    between atoms: N4_14  and  C7_16 
REMARK    5  A    between atoms: C7_16  and  O4_18 
REMARK    6  A    between atoms: O4_18  and  C8_19 
REMARK    7  A    between atoms: C12_23  and  O5_25 
ROOT
HETATM    1  C3  UNL     1      35.187  -5.809  11.329  1.00  0.00     0.285 C 
HETATM    2  C4  UNL     1      33.964  -6.280  11.975  1.00  0.00     0.094 C 
HETATM    3  N2  UNL     1      32.970  -6.645  12.483  1.00  0.00    -0.195 NA
ENDROOT
BRANCH   1   4
HETATM    4  N1  UNL     1      35.156  -6.145   9.961  1.00  0.00    -0.337 N 
HETATM    5  C2  UNL     1      36.123  -6.980   9.426  1.00  0.00     0.215 C 
HETATM    6  C1  UNL     1      36.142  -7.375   7.975  1.00  0.00     0.117 C 
HETATM    7  O1  UNL     1      37.005  -7.426  10.129  1.00  0.00    -0.274 OA
ATOM      8  H1  UNL     1      34.418  -5.773   9.363  1.00  0.00     0.164 HD
ENDBRANCH   1   4
BRANCH   1   9
HETATM    9  C5  UNL     1      35.376  -4.339  11.558  1.00  0.00     0.260 C 
HETATM   10  O2  UNL     1      35.239  -3.615  10.509  1.00  0.00    -0.270 OA
HETATM   11  N3  UNL     1      35.666  -3.707  12.731  1.00  0.00    -0.307 N 
ATOM     12  H3  UNL     1      34.852  -3.316  13.205  1.00  0.00     0.170 HD
BRANCH  11  13
HETATM   13  C6  UNL     1      36.802  -3.508  13.365  1.00  0.00     0.161 C 
HETATM   14  C12 UNL     1      37.082  -4.485  14.394  1.00  0.00     0.194 C 
HETATM   15  N5  UNL     1      38.176  -4.607  15.253  1.00  0.00    -0.071 NA
BRANCH  13  16
HETATM   16  N4  UNL     1      37.572  -2.439  13.001  1.00  0.00    -0.285 N 
HETATM   17  C7  UNL     1      37.344  -1.207  12.393  1.00  0.00     0.367 C 
HETATM   18  O3  UNL     1      36.218  -0.836  12.028  1.00  0.00    -0.238 OA
ATOM     19  H4  UNL     1      38.556  -2.578  13.232  1.00  0.00     0.172 HD
BRANCH  17  20
HETATM   20  O4  UNL     1      38.371  -0.278  12.138  1.00  0.00    -0.294 OA
BRANCH  20  21
HETATM   21  C8  UNL     1      38.657   0.765  13.046  1.00  0.00     0.061 C 
HETATM   22  C9  UNL     1      37.557   1.771  13.192  1.00  0.00     0.046 C 
HETATM   23  C10 UNL     1      39.921   1.454  12.558  1.00  0.00     0.046 C 
HETATM   24  C11 UNL     1      38.989   0.212  14.421  1.00  0.00     0.046 C 
ENDBRANCH  20  21
ENDBRANCH  17  20
ENDBRANCH  13  16
BRANCH  14  25
HETATM   25  O5  UNL     1      36.193  -5.432  14.589  1.00  0.00    -0.346 OA
ATOM     26  H5  UNL     1      35.279  -5.210  14.457  1.00  0.00     0.219 HD
ENDBRANCH  14  25
ENDBRANCH  11  13
ENDBRANCH   1   9
TORSDOF 7
ENDMDL
MODEL 2
REMARK VINA RESULT: -6.277559793      2.041      3.272
REMARK  7 active torsions:
REMARK  status: ('A' for Active; 'I' for Inactive)
REMARK       I    between atoms: C2_2  and  N1_4 
REMARK    1  A    between atoms: N1_4  and  C3_6 
REMARK    2  A    between atoms: C3_6  and  C5_9 
REMARK       I    between atoms: C5_9  and  N3_11 
REMARK    3  A    between atoms: N3_11  and  C6_13 
REMARK    4  A    between atoms: C6_13  and  N4_14 
REMARK       I    between atoms: N4_14  and  C7_16 
REMARK    5  A    between atoms: C7_16  and  O4_18 
REMARK    6  A    between atoms: O4_18  and  C8_19 
REMARK    7  A    between atoms: C12_23  and  O5_25 
ROOT
HETATM    1  C3  UNL     1      35.028  -7.046  11.408  1.00  0.00     0.285 C 
HETATM    2  C4  UNL     1      33.688  -6.664  11.853  1.00  0.00     0.094 C 
HETATM    3  N2  UNL     1      32.617  -6.338  12.206  1.00  0.00    -0.195 NA
ENDROOT
BRANCH   1   4
HETATM    4  N1  UNL     1      35.150  -6.806  10.025  1.00  0.00    -0.337 N 
HETATM    5  C2  UNL     1      36.083  -7.505   9.275  1.00  0.00     0.215 C 
HETATM    6  C1  UNL     1      36.259  -7.293   7.797  1.00  0.00     0.117 C 
HETATM    7  O1  UNL     1      36.803  -8.325   9.804  1.00  0.00    -0.274 OA
ATOM      8  H1  UNL     1      34.549  -6.117   9.573  1.00  0.00     0.164 HD
ENDBRANCH   1   4
BRANCH   1   9
HETATM    9  C5  UNL     1      36.076  -6.336  12.212  1.00  0.00     0.260 C 
HETATM   10  O2  UNL     1      36.472  -6.975  13.251  1.00  0.00    -0.270 OA
HETATM   11  N3  UNL     1      36.641  -5.121  11.960  1.00  0.00    -0.307 N 
ATOM     12  H3  UNL     1      37.543  -5.171  11.487  1.00  0.00     0.170 HD
BRANCH  11  13
HETATM   13  C6  UNL     1      36.237  -3.894  12.215  1.00  0.00     0.161 C 
HETATM   14  C12 UNL     1      35.528  -3.267  11.123  1.00  0.00     0.194 C 
HETATM   15  N5  UNL     1      34.950  -2.001  11.026  1.00  0.00    -0.071 NA
BRANCH  13  16
HETATM   16  N4  UNL     1      36.519  -3.358  13.441  1.00  0.00    -0.285 N 
HETATM   17  C7  UNL     1      37.280  -2.292  13.912  1.00  0.00     0.367 C 
HETATM   18  O3  UNL     1      37.926  -1.545  13.161  1.00  0.00    -0.238 OA
ATOM     19  H4  UNL     1      36.058  -3.865  14.197  1.00  0.00     0.172 HD
BRANCH  17  20
HETATM   20  O4  UNL     1      37.383  -1.970  15.279  1.00  0.00    -0.294 OA
BRANCH  20  21
HETATM   21  C8  UNL     1      38.517  -2.339  16.034  1.00  0.00     0.061 C 
HETATM   22  C9  UNL     1      39.075  -3.685  15.691  1.00  0.00     0.046 C 
HETATM   23  C10 UNL     1      38.112  -2.309  17.500  1.00  0.00     0.046 C 
HETATM   24  C11 UNL     1      39.624  -1.309  15.889  1.00  0.00     0.046 C 
ENDBRANCH  20  21
ENDBRANCH  17  20
ENDBRANCH  13  16
BRANCH  14  25
HETATM   25  O5  UNL     1      35.377  -3.963  10.018  1.00  0.00    -0.346 OA
ATOM     26  H5  UNL     1      34.615  -3.776   9.483  1.00  0.00     0.219 HD
ENDBRANCH  14  25
ENDBRANCH  11  13
ENDBRANCH   1   9
TORSDOF 7
ENDMDL
MODEL 3
REMARK VINA RESULT: -6.251738484      1.921      6.509
REMARK  7 active torsions:
REMARK  status: ('A' for Active; 'I' for Inactive)
REMARK       I    between atoms: C2_2  and  N1_4 
REMARK    1  A    between atoms: N1_4  and  C3_6 
REMARK    2  A    between atoms: C3_6  and  C5_9 
REMARK       I    between atoms: C5_9  and  N3_11 
REMARK    3  A    between atoms: N3_11  and  C6_13 
REMARK    4  A    between atoms: C6_13  and  N4_14 
REMARK       I    between atoms: N4_14  and  C7_16 
REMARK    5  A    between atoms: C7_16  and  O4_18 
REMARK    6  A    between atoms: O4_18  and  C8_19 
REMARK    7  A    between atoms: C12_23  and  O5_25 
ROOT
HETATM    1  C3  UNL     1      36.593  -1.331  12.569  1.00  0.00     0.285 C 
HETATM    2  C4  UNL     1      35.564  -1.811  11.648  1.00  0.00     0.094 C 
HETATM    3  N2  UNL     1      34.723  -2.196  10.924  1.00  0.00    -0.195 NA
ENDROOT
BRANCH   1   4
HETATM    4  N1  UNL     1      36.318   0.004  12.926  1.00  0.00    -0.337 N 
HETATM    5  C2  UNL     1      37.252   0.998  12.682  1.00  0.00     0.215 C 
HETATM    6  C1  UNL     1      37.016   2.439  13.041  1.00  0.00     0.117 C 
HETATM    7  O1  UNL     1      38.314   0.726  12.162  1.00  0.00    -0.274 OA
ATOM      8  H1  UNL     1      35.428   0.239  13.365  1.00  0.00     0.164 HD
ENDBRANCH   1   4
BRANCH   1   9
HETATM    9  C5  UNL     1      36.705  -2.237  13.759  1.00  0.00     0.260 C 
HETATM   10  O2  UNL     1      37.227  -1.691  14.794  1.00  0.00    -0.270 OA
HETATM   11  N3  UNL     1      36.318  -3.540  13.856  1.00  0.00    -0.307 N 
ATOM     12  H3  UNL     1      35.403  -3.671  14.287  1.00  0.00     0.170 HD
BRANCH  11  13
HETATM   13  C6  UNL     1      36.905  -4.661  13.496  1.00  0.00     0.161 C 
HETATM   14  C12 UNL     1      37.752  -5.238  14.516  1.00  0.00     0.194 C 
HETATM   15  N5  UNL     1      38.515  -6.407  14.506  1.00  0.00    -0.071 NA
BRANCH  13  16
HETATM   16  N4  UNL     1      36.664  -5.149  12.241  1.00  0.00    -0.285 N 
HETATM   17  C7  UNL     1      35.534  -5.507  11.511  1.00  0.00     0.367 C 
HETATM   18  O3  UNL     1      34.384  -5.424  11.969  1.00  0.00    -0.238 OA
ATOM     19  H4  UNL     1      37.524  -5.283  11.709  1.00  0.00     0.172 HD
BRANCH  17  20
HETATM   20  O4  UNL     1      35.599  -5.994  10.192  1.00  0.00    -0.294 OA
BRANCH  20  21
HETATM   21  C8  UNL     1      36.060  -7.300   9.915  1.00  0.00     0.061 C 
HETATM   22  C9  UNL     1      37.352  -7.651  10.585  1.00  0.00     0.046 C 
HETATM   23  C10 UNL     1      36.217  -7.412   8.407  1.00  0.00     0.046 C 
HETATM   24  C11 UNL     1      35.020  -8.336  10.303  1.00  0.00     0.046 C 
ENDBRANCH  20  21
ENDBRANCH  17  20
ENDBRANCH  13  16
BRANCH  14  25
HETATM   25  O5  UNL     1      37.853  -4.594  15.656  1.00  0.00    -0.346 OA
ATOM     26  H5  UNL     1      38.668  -4.140  15.833  1.00  0.00     0.219 HD
ENDBRANCH  14  25
ENDBRANCH  11  13
ENDBRANCH   1   9
TORSDOF 7
ENDMDL
MODEL 4
REMARK VINA RESULT: -6.235299466      2.472      4.410
REMARK  7 active torsions:
REMARK  status: ('A' for Active; 'I' for Inactive)
REMARK       I    between atoms: C2_2  and  N1_4 
REMARK    1  A    between atoms: N1_4  and  C3_6 
REMARK    2  A    between atoms: C3_6  and  C5_9 
REMARK       I    between atoms: C5_9  and  N3_11 
REMARK    3  A    between atoms: N3_11  and  C6_13 
REMARK    4  A    between atoms: C6_13  and  N4_14 
REMARK       I    between atoms: N4_14  and  C7_16 
REMARK    5  A    between atoms: C7_16  and  O4_18 
REMARK    6  A    between atoms: O4_18  and  C8_19 
REMARK    7  A    between atoms: C12_23  and  O5_25 
ROOT
HETATM    1  C3  UNL     1      35.635  -2.964  12.183  1.00  0.00     0.285 C 
HETATM    2  C4  UNL     1      35.646  -3.777  10.968  1.00  0.00     0.094 C 
HETATM    3  N2  UNL     1      35.671  -4.419   9.985  1.00  0.00    -0.195 NA
ENDROOT
BRANCH   1   4
HETATM    4  N1  UNL     1      36.825  -3.182  12.905  1.00  0.00    -0.337 N 
HETATM    5  C2  UNL     1      36.920  -4.245  13.789  1.00  0.00     0.215 C 
HETATM    6  C1  UNL     1      38.162  -4.528  14.587  1.00  0.00     0.117 C 
HETATM    7  O1  UNL     1      35.980  -4.994  13.949  1.00  0.00    -0.274 OA
ATOM      8  H1  UNL     1      37.620  -2.555  12.777  1.00  0.00     0.164 HD
ENDBRANCH   1   4
BRANCH   1   9
HETATM    9  C5  UNL     1      35.417  -1.518  11.851  1.00  0.00     0.260 C 
HETATM   10  O2  UNL     1      34.846  -1.311  10.723  1.00  0.00    -0.270 OA
HETATM   11  N3  UNL     1      35.749  -0.430  12.603  1.00  0.00    -0.307 N 
ATOM     12  H3  UNL     1      34.977  -0.054  13.154  1.00  0.00     0.170 HD
BRANCH  11  13
HETATM   13  C6  UNL     1      36.881   0.225  12.751  1.00  0.00     0.161 C 
HETATM   14  C12 UNL     1      36.749   1.479  13.459  1.00  0.00     0.194 C 
HETATM   15  N5  UNL     1      37.712   2.426  13.811  1.00  0.00    -0.071 NA
BRANCH  13  16
HETATM   16  N4  UNL     1      38.023  -0.325  12.238  1.00  0.00    -0.285 N 
HETATM   17  C7  UNL     1      39.136  -0.979  12.760  1.00  0.00     0.367 C 
HETATM   18  O3  UNL     1      39.280  -1.194  13.974  1.00  0.00    -0.238 OA
ATOM     19  H4  UNL     1      38.072  -0.234  11.223  1.00  0.00     0.172 HD
BRANCH  17  20
HETATM   20  O4  UNL     1      40.191  -1.451  11.958  1.00  0.00    -0.294 OA
BRANCH  20  21
HETATM   21  C8  UNL     1      41.274  -0.616  11.605  1.00  0.00     0.061 C 
HETATM   22  C9  UNL     1      41.075   0.827  11.951  1.00  0.00     0.046 C 
HETATM   23  C10 UNL     1      41.485  -0.760  10.107  1.00  0.00     0.046 C 
HETATM   24  C11 UNL     1      42.561  -1.094  12.254  1.00  0.00     0.046 C 
ENDBRANCH  20  21
ENDBRANCH  17  20
ENDBRANCH  13  16
BRANCH  14  25
HETATM   25  O5  UNL     1      35.547   1.827  13.858  1.00  0.00    -0.346 OA
ATOM     26  H5  UNL     1      35.249   2.702  13.639  1.00  0.00     0.219 HD
ENDBRANCH  14  25
ENDBRANCH  11  13
ENDBRANCH   1   9
TORSDOF 7
ENDMDL
MODEL 5
REMARK VINA RESULT: -6.211026809      2.695      7.833
REMARK  7 active torsions:
REMARK  status: ('A' for Active; 'I' for Inactive)
REMARK       I    between atoms: C2_2  and  N1_4 
REMARK    1  A    between atoms: N1_4  and  C3_6 
REMARK    2  A    between atoms: C3_6  and  C5_9 
REMARK       I    between atoms: C5_9  and  N3_11 
REMARK    3  A    between atoms: N3_11  and  C6_13 
REMARK    4  A    between atoms: C6_13  and  N4_14 
REMARK       I    between atoms: N4_14  and  C7_16 
REMARK    5  A    between atoms: C7_16  and  O4_18 
REMARK    6  A    between atoms: O4_18  and  C8_19 
REMARK    7  A    between atoms: C12_23  and  O5_25 
ROOT
HETATM    1  C3  UNL     1      35.589  -4.641  11.152  1.00  0.00     0.285 C 
HETATM    2  C4  UNL     1      35.542  -5.113   9.769  1.00  0.00     0.094 C 
HETATM    3  N2  UNL     1      35.484  -5.488   8.658  1.00  0.00    -0.195 NA
ENDROOT
BRANCH   1   4
HETATM    4  N1  UNL     1      35.374  -3.248  11.180  1.00  0.00    -0.337 N 
HETATM    5  C2  UNL     1      36.207  -2.429  11.927  1.00  0.00     0.215 C 
HETATM    6  C1  UNL     1      36.028  -0.938  11.996  1.00  0.00     0.117 C 
HETATM    7  O1  UNL     1      37.124  -2.904  12.562  1.00  0.00    -0.274 OA
ATOM      8  H1  UNL     1      34.604  -2.842  10.649  1.00  0.00     0.164 HD
ENDBRANCH   1   4
BRANCH   1   9
HETATM    9  C5  UNL     1      34.611  -5.393  12.004  1.00  0.00     0.260 C 
HETATM   10  O2  UNL     1      34.525  -4.974  13.212  1.00  0.00    -0.270 OA
HETATM   11  N3  UNL     1      33.823  -6.445  11.639  1.00  0.00    -0.307 N 
ATOM     12  H3  UNL     1      32.868  -6.183  11.396  1.00  0.00     0.170 HD
BRANCH  11  13
HETATM   13  C6  UNL     1      34.066  -7.735  11.544  1.00  0.00     0.161 C 
HETATM   14  C12 UNL     1      33.949  -8.451  12.794  1.00  0.00     0.194 C 
HETATM   15  N5  UNL     1      34.117  -9.807  13.081  1.00  0.00    -0.071 NA
BRANCH  13  16
HETATM   16  N4  UNL     1      34.393  -8.247  10.319  1.00  0.00    -0.285 N 
HETATM   17  C7  UNL     1      35.508  -8.866   9.762  1.00  0.00     0.367 C 
HETATM   18  O3  UNL     1      36.548  -9.079  10.404  1.00  0.00    -0.238 OA
ATOM     19  H4  UNL     1      33.630  -8.151   9.647  1.00  0.00     0.172 HD
BRANCH  17  20
HETATM   20  O4  UNL     1      35.553  -9.302   8.424  1.00  0.00    -0.294 OA
BRANCH  20  21
HETATM   21  C8  UNL     1      35.186 -10.618   8.070  1.00  0.00     0.061 C 
HETATM   22  C9  UNL     1      34.334 -11.314   9.087  1.00  0.00     0.046 C 
HETATM   23  C10 UNL     1      36.470 -11.402   7.854  1.00  0.00     0.046 C 
HETATM   24  C11 UNL     1      34.457 -10.638   6.738  1.00  0.00     0.046 C 
ENDBRANCH  20  21
ENDBRANCH  17  20
ENDBRANCH  13  16
BRANCH  14  25
HETATM   25  O5  UNL     1      33.634  -7.757  13.864  1.00  0.00    -0.346 OA
ATOM     26  H5  UNL     1      33.553  -8.229  14.685  1.00  0.00     0.219 HD
ENDBRANCH  14  25
ENDBRANCH  11  13
ENDBRANCH   1   9
TORSDOF 7
ENDMDL
