MODEL 1
REMARK VINA RESULT: -6.112534362      0.000      0.000
REMARK  4 active torsions:
REMARK  status: ('A' for Active; 'I' for Inactive)
REMARK       I    between atoms: N2_3  and  C2_5 
REMARK    1  A    between atoms: N4_7  and  S1_9 
REMARK    2  A    between atoms: S1_9  and  C3_12 
REMARK    3  A    between atoms: C8_17  and  S2_18 
REMARK    4  A    between atoms: S2_18  and  N5_19 
ROOT
HETATM    1  N1  UNL     1      36.215   0.382  12.357  1.00  0.00    -0.172 NA
HETATM    2  C1  UNL     1      36.374  -0.640  11.825  1.00  0.00     0.184 C 
HETATM    3  N2  UNL     1      36.572  -1.861  11.172  1.00  0.00    -0.267 N 
ATOM      4  H2  UNL     1      37.072  -1.903  10.284  1.00  0.00     0.180 HD
HETATM    5  C2  UNL     1      36.068  -3.024  11.766  1.00  0.00     0.211 C 
HETATM    6  N3  UNL     1      35.905  -3.111  13.178  1.00  0.00    -0.062 NA
HETATM    7  N4  UNL     1      35.752  -4.015  11.038  1.00  0.00    -0.253 N 
ATOM      8  H4  UNL     1      35.867  -3.957  10.027  1.00  0.00     0.181 HD
ENDROOT
BRANCH   7   9
HETATM    9  S1  UNL     1      35.116  -5.490  11.763  1.00  0.00     0.266 S 
HETATM   10  O1  UNL     1      35.932  -5.628  13.017  1.00  0.00    -0.200 OA
HETATM   11  O2  UNL     1      33.684  -5.144  12.037  1.00  0.00    -0.200 OA
BRANCH   9  12
HETATM   12  C3  UNL     1      35.353  -6.749  10.619  1.00  0.00     0.103 A 
HETATM   13  C4  UNL     1      35.866  -6.514   9.346  1.00  0.00     0.027 A 
HETATM   14  C5  UNL     1      36.066  -7.499   8.424  1.00  0.00     0.002 A 
HETATM   15  C6  UNL     1      35.741  -8.782   8.778  1.00  0.00     0.002 A 
HETATM   16  C7  UNL     1      35.237  -9.027  10.023  1.00  0.00     0.027 A 
HETATM   17  C8  UNL     1      35.020  -8.043  10.991  1.00  0.00     0.102 A 
BRANCH  17  18
HETATM   18  S2  UNL     1      34.384  -8.519  12.482  1.00  0.00     0.258 S 
HETATM   19  O3  UNL     1      34.098 -10.019  12.426  1.00  0.00    -0.201 OA
HETATM   20  O4  UNL     1      33.177  -7.865  12.986  1.00  0.00    -0.201 OA
BRANCH  18  21
HETATM   21  N5  UNL     1      35.595  -8.375  13.718  1.00  0.00    -0.324 N 
ATOM     22  H52 UNL     1      36.550  -8.721  13.627  1.00  0.00     0.169 HD
ATOM     23  H51 UNL     1      35.208  -7.898  14.532  1.00  0.00     0.169 HD
ENDBRANCH  18  21
ENDBRANCH  17  18
ENDBRANCH   9  12
ENDBRANCH   7   9
TORSDOF 4
ENDMDL
MODEL 2
REMARK VINA RESULT: -5.982838474      7.109     10.553
REMARK  4 active torsions:
REMARK  status: ('A' for Active; 'I' for Inactive)
REMARK       I    between atoms: N2_3  and  C2_5 
REMARK    1  A    between atoms: N4_7  and  S1_9 
REMARK    2  A    between atoms: S1_9  and  C3_12 
REMARK    3  A    between atoms: C8_17  and  S2_18 
REMARK    4  A    between atoms: S2_18  and  N5_19 
ROOT
HETATM    1  N1  UNL     1      35.288  -2.498  10.772  1.00  0.00    -0.172 NA
HETATM    2  C1  UNL     1      35.533  -1.865  11.716  1.00  0.00     0.184 C 
HETATM    3  N2  UNL     1      35.822  -1.114  12.861  1.00  0.00    -0.267 N 
ATOM      4  H2  UNL     1      35.627  -1.485  13.791  1.00  0.00     0.180 HD
HETATM    5  C2  UNL     1      36.384   0.157  12.701  1.00  0.00     0.211 C 
HETATM    6  N3  UNL     1      37.176   0.467  11.558  1.00  0.00    -0.062 NA
HETATM    7  N4  UNL     1      36.188   1.048  13.584  1.00  0.00    -0.253 N 
ATOM      8  H4  UNL     1      35.621   0.831  14.404  1.00  0.00     0.181 HD
ENDROOT
BRANCH   7   9
HETATM    9  S1  UNL     1      36.887   2.655  13.404  1.00  0.00     0.266 S 
HETATM   10  O1  UNL     1      36.756   2.917  11.930  1.00  0.00    -0.200 OA
HETATM   11  O2  UNL     1      35.977   3.515  14.229  1.00  0.00    -0.200 OA
BRANCH   9  12
HETATM   12  C3  UNL     1      38.506   2.560  13.969  1.00  0.00     0.103 A 
HETATM   13  C4  UNL     1      38.997   1.446  14.644  1.00  0.00     0.027 A 
HETATM   14  C5  UNL     1      40.280   1.349  15.098  1.00  0.00     0.002 A 
HETATM   15  C6  UNL     1      41.120   2.406  14.872  1.00  0.00     0.002 A 
HETATM   16  C7  UNL     1      40.652   3.506  14.211  1.00  0.00     0.027 A 
HETATM   17  C8  UNL     1      39.345   3.638  13.733  1.00  0.00     0.102 A 
BRANCH  17  18
HETATM   18  S2  UNL     1      38.930   5.071  12.938  1.00  0.00     0.258 S 
HETATM   19  O3  UNL     1      39.973   6.132  13.284  1.00  0.00    -0.201 OA
HETATM   20  O4  UNL     1      37.613   5.662  13.173  1.00  0.00    -0.201 OA
BRANCH  18  21
HETATM   21  N5  UNL     1      39.099   4.869  11.222  1.00  0.00    -0.324 N 
ATOM     22  H52 UNL     1      38.325   4.925  10.560  1.00  0.00     0.169 HD
ATOM     23  H51 UNL     1      40.074   4.689  10.987  1.00  0.00     0.169 HD
ENDBRANCH  18  21
ENDBRANCH  17  18
ENDBRANCH   9  12
ENDBRANCH   7   9
TORSDOF 4
ENDMDL
MODEL 3
REMARK VINA RESULT: -5.917133577      1.689      1.819
REMARK  4 active torsions:
REMARK  status: ('A' for Active; 'I' for Inactive)
REMARK       I    between atoms: N2_3  and  C2_5 
REMARK    1  A    between atoms: N4_7  and  S1_9 
REMARK    2  A    between atoms: S1_9  and  C3_12 
REMARK    3  A    between atoms: C8_17  and  S2_18 
REMARK    4  A    between atoms: S2_18  and  N5_19 
ROOT
HETATM    1  N1  UNL     1      37.416  -2.187  14.566  1.00  0.00    -0.172 NA
HETATM    2  C1  UNL     1      36.690  -2.607  13.762  1.00  0.00     0.184 C 
HETATM    3  N2  UNL     1      35.812  -3.097  12.789  1.00  0.00    -0.267 N 
ATOM      4  H2  UNL     1      35.381  -2.469  12.111  1.00  0.00     0.180 HD
HETATM    5  C2  UNL     1      35.539  -4.469  12.767  1.00  0.00     0.211 C 
HETATM    6  N3  UNL     1      36.491  -5.411  13.254  1.00  0.00    -0.062 NA
HETATM    7  N4  UNL     1      34.431  -4.883  12.308  1.00  0.00    -0.253 N 
ATOM      8  H4  UNL     1      33.746  -4.213  11.958  1.00  0.00     0.181 HD
ENDROOT
BRANCH   7   9
HETATM    9  S1  UNL     1      34.065  -6.607  12.270  1.00  0.00     0.266 S 
HETATM   10  O1  UNL     1      34.617  -7.097  13.579  1.00  0.00    -0.200 OA
HETATM   11  O2  UNL     1      32.568  -6.635  12.224  1.00  0.00    -0.200 OA
BRANCH   9  12
HETATM   12  C3  UNL     1      34.847  -7.251  10.883  1.00  0.00     0.103 A 
HETATM   13  C4  UNL     1      35.440  -6.442   9.917  1.00  0.00     0.027 A 
HETATM   14  C5  UNL     1      36.069  -6.933   8.810  1.00  0.00     0.002 A 
HETATM   15  C6  UNL     1      36.114  -8.293   8.650  1.00  0.00     0.002 A 
HETATM   16  C7  UNL     1      35.536  -9.097   9.590  1.00  0.00     0.027 A 
HETATM   17  C8  UNL     1      34.885  -8.629  10.734  1.00  0.00     0.102 A 
BRANCH  17  18
HETATM   18  S2  UNL     1      34.221  -9.765  11.794  1.00  0.00     0.258 S 
HETATM   19  O3  UNL     1      34.393 -11.154  11.179  1.00  0.00    -0.201 OA
HETATM   20  O4  UNL     1      32.820  -9.637  12.192  1.00  0.00    -0.201 OA
BRANCH  18  21
HETATM   21  N5  UNL     1      35.160  -9.838  13.252  1.00  0.00    -0.324 N 
ATOM     22  H52 UNL     1      36.179  -9.887  13.275  1.00  0.00     0.169 HD
ATOM     23  H51 UNL     1      34.545  -9.825  14.065  1.00  0.00     0.169 HD
ENDBRANCH  18  21
ENDBRANCH  17  18
ENDBRANCH   9  12
ENDBRANCH   7   9
TORSDOF 4
ENDMDL
MODEL 4
REMARK VINA RESULT: -5.878101825      2.532      3.010
REMARK  4 active torsions:
REMARK  status: ('A' for Active; 'I' for Inactive)
REMARK       I    between atoms: N2_3  and  C2_5 
REMARK    1  A    between atoms: N4_7  and  S1_9 
REMARK    2  A    between atoms: S1_9  and  C3_12 
REMARK    3  A    between atoms: C8_17  and  S2_18 
REMARK    4  A    between atoms: S2_18  and  N5_19 
ROOT
HETATM    1  N1  UNL     1      36.671   1.213  11.980  1.00  0.00    -0.172 NA
HETATM    2  C1  UNL     1      36.475   0.181  12.478  1.00  0.00     0.184 C 
HETATM    3  N2  UNL     1      36.243  -1.056  13.090  1.00  0.00    -0.267 N 
ATOM      4  H2  UNL     1      36.338  -1.163  14.100  1.00  0.00     0.180 HD
HETATM    5  C2  UNL     1      35.879  -2.141  12.286  1.00  0.00     0.211 C 
HETATM    6  N3  UNL     1      35.195  -1.938  11.053  1.00  0.00    -0.062 NA
HETATM    7  N4  UNL     1      36.159  -3.322  12.658  1.00  0.00    -0.253 N 
ATOM      8  H4  UNL     1      36.648  -3.472  13.540  1.00  0.00     0.181 HD
ENDROOT
BRANCH   7   9
HETATM    9  S1  UNL     1      35.709  -4.704  11.662  1.00  0.00     0.266 S 
HETATM   10  O1  UNL     1      34.281  -4.955  12.059  1.00  0.00    -0.200 OA
HETATM   11  O2  UNL     1      35.837  -4.173  10.267  1.00  0.00    -0.200 OA
BRANCH   9  12
HETATM   12  C3  UNL     1      36.792  -5.977  12.058  1.00  0.00     0.103 A 
HETATM   13  C4  UNL     1      37.803  -5.829  13.004  1.00  0.00     0.027 A 
HETATM   14  C5  UNL     1      38.671  -6.828  13.336  1.00  0.00     0.002 A 
HETATM   15  C6  UNL     1      38.533  -8.034  12.701  1.00  0.00     0.002 A 
HETATM   16  C7  UNL     1      37.546  -8.192  11.771  1.00  0.00     0.027 A 
HETATM   17  C8  UNL     1      36.640  -7.192  11.408  1.00  0.00     0.102 A 
BRANCH  17  18
HETATM   18  S2  UNL     1      35.480  -7.556  10.233  1.00  0.00     0.258 S 
HETATM   19  O3  UNL     1      35.641  -9.023   9.838  1.00  0.00    -0.201 OA
HETATM   20  O4  UNL     1      35.443  -6.774   8.998  1.00  0.00    -0.201 OA
BRANCH  18  21
HETATM   21  N5  UNL     1      33.890  -7.487  10.927  1.00  0.00    -0.324 N 
ATOM     22  H52 UNL     1      33.590  -6.784  11.603  1.00  0.00     0.169 HD
ATOM     23  H51 UNL     1      33.316  -8.245  10.560  1.00  0.00     0.169 HD
ENDBRANCH  18  21
ENDBRANCH  17  18
ENDBRANCH   9  12
ENDBRANCH   7   9
TORSDOF 4
ENDMDL
MODEL 5
REMARK VINA RESULT: -5.725324968      1.029      1.154
REMARK  4 active torsions:
REMARK  status: ('A' for Active; 'I' for Inactive)
REMARK       I    between atoms: N2_3  and  C2_5 
REMARK    1  A    between atoms: N4_7  and  S1_9 
REMARK    2  A    between atoms: S1_9  and  C3_12 
REMARK    3  A    between atoms: C8_17  and  S2_18 
REMARK    4  A    between atoms: S2_18  and  N5_19 
ROOT
HETATM    1  N1  UNL     1      36.568   0.766  12.259  1.00  0.00    -0.172 NA
HETATM    2  C1  UNL     1      36.707  -0.285  11.782  1.00  0.00     0.184 C 
HETATM    3  N2  UNL     1      36.880  -1.543  11.196  1.00  0.00    -0.267 N 
ATOM      4  H2  UNL     1      37.368  -1.641  10.305  1.00  0.00     0.180 HD
HETATM    5  C2  UNL     1      36.369  -2.665  11.858  1.00  0.00     0.211 C 
HETATM    6  N3  UNL     1      36.223  -2.672  13.275  1.00  0.00    -0.062 NA
HETATM    7  N4  UNL     1      36.030  -3.690  11.191  1.00  0.00    -0.253 N 
ATOM      8  H4  UNL     1      36.132  -3.689  10.176  1.00  0.00     0.181 HD
ENDROOT
BRANCH   7   9
HETATM    9  S1  UNL     1      35.384  -5.114  12.003  1.00  0.00     0.266 S 
HETATM   10  O1  UNL     1      36.280  -5.253  13.202  1.00  0.00    -0.200 OA
HETATM   11  O2  UNL     1      33.992  -4.696  12.365  1.00  0.00    -0.200 OA
BRANCH   9  12
HETATM   12  C3  UNL     1      35.486  -6.414  10.885  1.00  0.00     0.103 A 
HETATM   13  C4  UNL     1      36.144  -6.298   9.664  1.00  0.00     0.027 A 
HETATM   14  C5  UNL     1      36.240  -7.319   8.764  1.00  0.00     0.002 A 
HETATM   15  C6  UNL     1      35.655  -8.515   9.087  1.00  0.00     0.002 A 
HETATM   16  C7  UNL     1      35.005  -8.641  10.282  1.00  0.00     0.027 A 
HETATM   17  C8  UNL     1      34.889  -7.618  11.226  1.00  0.00     0.102 A 
BRANCH  17  18
HETATM   18  S2  UNL     1      34.047  -7.945  12.654  1.00  0.00     0.258 S 
HETATM   19  O3  UNL     1      32.793  -7.071  12.684  1.00  0.00    -0.201 OA
HETATM   20  O4  UNL     1      34.725  -7.775  13.939  1.00  0.00    -0.201 OA
BRANCH  18  21
HETATM   21  N5  UNL     1      33.421  -9.563  12.619  1.00  0.00    -0.324 N 
ATOM     22  H52 UNL     1      33.646 -10.249  11.898  1.00  0.00     0.169 HD
ATOM     23  H51 UNL     1      32.805  -9.717  13.417  1.00  0.00     0.169 HD
ENDBRANCH  18  21
ENDBRANCH  17  18
ENDBRANCH   9  12
ENDBRANCH   7   9
TORSDOF 4
ENDMDL
