MODEL 1
REMARK VINA RESULT: -6.070410189      0.000      0.000
REMARK  4 active torsions:
REMARK  status: ('A' for Active; 'I' for Inactive)
REMARK    1  A    between atoms: C2_2  and  N1_3 
REMARK    2  A    between atoms: C2_2  and  C3_7 
REMARK       I    between atoms: C3_7  and  N2_9 
REMARK    3  A    between atoms: C7_19  and  C8_20 
REMARK    4  A    between atoms: C8_20  and  C11_23 
ROOT
HETATM    1  C3  UNL     1      35.822  -8.289   9.344  1.00  0.00     0.253 C 
HETATM    2  O1  UNL     1      35.007  -9.207   9.700  1.00  0.00    -0.271 OA
HETATM    3  N2  UNL     1      36.086  -7.151  10.106  1.00  0.00    -0.314 N 
ATOM      4  H2  UNL     1      36.089  -6.255   9.617  1.00  0.00     0.170 HD
HETATM    5  C4  UNL     1      36.327  -7.129  11.372  1.00  0.00     0.100 C 
HETATM    6  N3  UNL     1      36.348  -8.304  12.159  1.00  0.00    -0.273 N 
ATOM      7  H3  UNL     1      35.878  -9.185  11.951  1.00  0.00     0.180 HD
HETATM    8  S1  UNL     1      37.327  -7.955  13.544  1.00  0.00     0.236 S 
HETATM    9  O2  UNL     1      36.701  -8.428  14.816  1.00  0.00    -0.205 OA
HETATM   10  O3  UNL     1      38.714  -8.470  13.384  1.00  0.00    -0.205 OA
HETATM   11  C5  UNL     1      37.252  -6.163  13.394  1.00  0.00     0.138 C 
HETATM   12  C6  UNL     1      38.722  -5.706  13.405  1.00  0.00     0.029 C 
HETATM   13  C7  UNL     1      36.595  -5.910  12.106  1.00  0.00     0.090 C 
ENDROOT
BRANCH  13  14
HETATM   14  C8  UNL     1      35.392  -4.982  12.150  1.00  0.00     0.043 C 
HETATM   15  C9  UNL     1      35.449  -4.192  13.469  1.00  0.00     0.025 C 
HETATM   16  C10 UNL     1      34.096  -5.745  12.193  1.00  0.00     0.025 C 
BRANCH  14  17
HETATM   17  C11 UNL     1      35.346  -4.036  11.011  1.00  0.00     0.239 C 
HETATM   18  N4  UNL     1      34.925  -2.690  11.132  1.00  0.00    -0.061 NA
HETATM   19  O4  UNL     1      35.690  -4.390   9.835  1.00  0.00    -0.276 OA
ENDBRANCH  14  17
ENDBRANCH  13  14
BRANCH   1  20
HETATM   20  C2  UNL     1      36.496  -8.496   8.043  1.00  0.00     0.271 C 
HETATM   21  C1  UNL     1      35.896  -9.655   7.276  1.00  0.00     0.050 C 
BRANCH  20  22
HETATM   22  N1  UNL     1      36.474  -7.271   7.299  1.00  0.00    -0.067 N 
ATOM     23  H13 UNL     1      37.325  -6.732   7.457  1.00  0.00     0.275 HD
ATOM     24  H12 UNL     1      36.575  -7.448   6.300  1.00  0.00     0.275 HD
ATOM     25  H11 UNL     1      35.644  -6.710   7.490  1.00  0.00     0.275 HD
ENDBRANCH  20  22
ENDBRANCH   1  20
TORSDOF 4
ENDMDL
MODEL 2
REMARK VINA RESULT: -5.660449446      2.204      4.861
REMARK  4 active torsions:
REMARK  status: ('A' for Active; 'I' for Inactive)
REMARK    1  A    between atoms: C2_2  and  N1_3 
REMARK    2  A    between atoms: C2_2  and  C3_7 
REMARK       I    between atoms: C3_7  and  N2_9 
REMARK    3  A    between atoms: C7_19  and  C8_20 
REMARK    4  A    between atoms: C8_20  and  C11_23 
ROOT
HETATM    1  C3  UNL     1      36.752  -4.400  12.574  1.00  0.00     0.253 C 
HETATM    2  O1  UNL     1      37.773  -4.679  13.291  1.00  0.00    -0.271 OA
HETATM    3  N2  UNL     1      36.142  -5.310  11.710  1.00  0.00    -0.314 N 
ATOM      4  H2  UNL     1      35.913  -4.979  10.772  1.00  0.00     0.170 HD
HETATM    5  C4  UNL     1      35.842  -6.533  11.991  1.00  0.00     0.100 C 
HETATM    6  N3  UNL     1      36.111  -7.108  13.254  1.00  0.00    -0.273 N 
ATOM      7  H3  UNL     1      36.818  -6.804  13.923  1.00  0.00     0.180 HD
HETATM    8  S1  UNL     1      35.005  -8.426  13.444  1.00  0.00     0.236 S 
HETATM    9  O2  UNL     1      35.674  -9.658  13.962  1.00  0.00    -0.205 OA
HETATM   10  O3  UNL     1      33.828  -8.045  14.270  1.00  0.00    -0.205 OA
HETATM   11  C5  UNL     1      34.583  -8.584  11.702  1.00  0.00     0.138 C 
HETATM   12  C6  UNL     1      33.046  -8.524  11.663  1.00  0.00     0.029 C 
HETATM   13  C7  UNL     1      35.207  -7.428  11.046  1.00  0.00     0.090 C 
ENDROOT
BRANCH  13  14
HETATM   14  C8  UNL     1      36.098  -7.745   9.857  1.00  0.00     0.043 C 
HETATM   15  C9  UNL     1      35.751  -9.162   9.367  1.00  0.00     0.025 C 
HETATM   16  C10 UNL     1      37.551  -7.796  10.243  1.00  0.00     0.025 C 
BRANCH  14  17
HETATM   17  C11 UNL     1      35.940  -6.785   8.739  1.00  0.00     0.239 C 
HETATM   18  N4  UNL     1      35.429  -5.475   8.903  1.00  0.00    -0.061 NA
HETATM   19  O4  UNL     1      36.261  -7.094   7.545  1.00  0.00    -0.276 OA
ENDBRANCH  14  17
ENDBRANCH  13  14
BRANCH   1  20
HETATM   20  C2  UNL     1      36.228  -3.022  12.705  1.00  0.00     0.271 C 
HETATM   21  C1  UNL     1      35.404  -2.616  11.501  1.00  0.00     0.050 C 
BRANCH  20  22
HETATM   22  N1  UNL     1      35.503  -2.908  13.935  1.00  0.00    -0.067 N 
ATOM     23  H13 UNL     1      35.260  -1.936  14.128  1.00  0.00     0.275 HD
ATOM     24  H12 UNL     1      34.564  -3.297  13.845  1.00  0.00     0.275 HD
ATOM     25  H11 UNL     1      35.998  -3.325  14.724  1.00  0.00     0.275 HD
ENDBRANCH  20  22
ENDBRANCH   1  20
TORSDOF 4
ENDMDL
MODEL 3
REMARK VINA RESULT: -5.465837511      1.345      1.667
REMARK  4 active torsions:
REMARK  status: ('A' for Active; 'I' for Inactive)
REMARK    1  A    between atoms: C2_2  and  N1_3 
REMARK    2  A    between atoms: C2_2  and  C3_7 
REMARK       I    between atoms: C3_7  and  N2_9 
REMARK    3  A    between atoms: C7_19  and  C8_20 
REMARK    4  A    between atoms: C8_20  and  C11_23 
ROOT
HETATM    1  C3  UNL     1      35.959  -8.286   9.427  1.00  0.00     0.253 C 
HETATM    2  O1  UNL     1      35.191  -9.249   9.767  1.00  0.00    -0.271 OA
HETATM    3  N2  UNL     1      36.259  -7.205  10.257  1.00  0.00    -0.314 N 
ATOM      4  H2  UNL     1      36.208  -6.274   9.844  1.00  0.00     0.170 HD
HETATM    5  C4  UNL     1      36.593  -7.279  11.500  1.00  0.00     0.100 C 
HETATM    6  N3  UNL     1      36.696  -8.511  12.185  1.00  0.00    -0.273 N 
ATOM      7  H3  UNL     1      36.228  -9.384  11.941  1.00  0.00     0.180 HD
HETATM    8  S1  UNL     1      37.770  -8.250  13.518  1.00  0.00     0.236 S 
HETATM    9  O2  UNL     1      37.251  -8.838  14.790  1.00  0.00    -0.205 OA
HETATM   10  O3  UNL     1      39.150  -8.716  13.215  1.00  0.00    -0.205 OA
HETATM   11  C5  UNL     1      37.650  -6.454  13.520  1.00  0.00     0.138 C 
HETATM   12  C6  UNL     1      39.108  -5.963  13.460  1.00  0.00     0.029 C 
HETATM   13  C7  UNL     1      36.893  -6.115  12.309  1.00  0.00     0.090 C 
ENDROOT
BRANCH  13  14
HETATM   14  C8  UNL     1      35.680  -5.225  12.516  1.00  0.00     0.043 C 
HETATM   15  C9  UNL     1      35.642  -4.198  11.369  1.00  0.00     0.025 C 
HETATM   16  C10 UNL     1      35.788  -4.414  13.778  1.00  0.00     0.025 C 
BRANCH  14  17
HETATM   17  C11 UNL     1      34.404  -5.977  12.545  1.00  0.00     0.239 C 
HETATM   18  N4  UNL     1      34.078  -6.919  13.550  1.00  0.00    -0.061 NA
HETATM   19  O4  UNL     1      33.513  -5.814  11.647  1.00  0.00    -0.276 OA
ENDBRANCH  14  17
ENDBRANCH  13  14
BRANCH   1  20
HETATM   20  C2  UNL     1      36.537  -8.372   8.067  1.00  0.00     0.271 C 
HETATM   21  C1  UNL     1      35.964  -9.534   7.284  1.00  0.00     0.050 C 
BRANCH  20  22
HETATM   22  N1  UNL     1      36.363  -7.116   7.399  1.00  0.00    -0.067 N 
ATOM     23  H13 UNL     1      35.882  -7.239   6.509  1.00  0.00     0.275 HD
ATOM     24  H12 UNL     1      35.674  -6.538   7.880  1.00  0.00     0.275 HD
ATOM     25  H11 UNL     1      37.241  -6.612   7.275  1.00  0.00     0.275 HD
ENDBRANCH  20  22
ENDBRANCH   1  20
TORSDOF 4
ENDMDL
MODEL 4
REMARK VINA RESULT: -5.401298497      7.301      9.023
REMARK  4 active torsions:
REMARK  status: ('A' for Active; 'I' for Inactive)
REMARK    1  A    between atoms: C2_2  and  N1_3 
REMARK    2  A    between atoms: C2_2  and  C3_7 
REMARK       I    between atoms: C3_7  and  N2_9 
REMARK    3  A    between atoms: C7_19  and  C8_20 
REMARK    4  A    between atoms: C8_20  and  C11_23 
ROOT
HETATM    1  C3  UNL     1      37.562  -0.807  13.039  1.00  0.00     0.253 C 
HETATM    2  O1  UNL     1      37.687  -1.320  14.203  1.00  0.00    -0.271 OA
HETATM    3  N2  UNL     1      37.928   0.503  12.728  1.00  0.00    -0.314 N 
ATOM      4  H2  UNL     1      37.264   1.054  12.185  1.00  0.00     0.170 HD
HETATM    5  C4  UNL     1      39.032   1.078  13.065  1.00  0.00     0.100 C 
HETATM    6  N3  UNL     1      40.030   0.419  13.819  1.00  0.00    -0.273 N 
ATOM      7  H3  UNL     1      39.896  -0.377  14.442  1.00  0.00     0.180 HD
HETATM    8  S1  UNL     1      41.524   1.226  13.477  1.00  0.00     0.236 S 
HETATM    9  O2  UNL     1      42.317   1.501  14.713  1.00  0.00    -0.205 OA
HETATM   10  O3  UNL     1      42.323   0.498  12.455  1.00  0.00    -0.205 OA
HETATM   11  C5  UNL     1      40.790   2.729  12.812  1.00  0.00     0.138 C 
HETATM   12  C6  UNL     1      41.454   2.916  11.437  1.00  0.00     0.029 C 
HETATM   13  C7  UNL     1      39.353   2.445  12.708  1.00  0.00     0.090 C 
ENDROOT
BRANCH  13  14
HETATM   14  C8  UNL     1      38.431   3.451  13.376  1.00  0.00     0.043 C 
HETATM   15  C9  UNL     1      38.786   4.850  12.841  1.00  0.00     0.025 C 
HETATM   16  C10 UNL     1      38.655   3.518  14.862  1.00  0.00     0.025 C 
BRANCH  14  17
HETATM   17  C11 UNL     1      36.996   3.179  13.126  1.00  0.00     0.239 C 
HETATM   18  N4  UNL     1      36.044   3.006  14.159  1.00  0.00    -0.061 NA
HETATM   19  O4  UNL     1      36.531   3.083  11.942  1.00  0.00    -0.276 OA
ENDBRANCH  14  17
ENDBRANCH  13  14
BRANCH   1  20
HETATM   20  C2  UNL     1      36.992  -1.694  12.001  1.00  0.00     0.271 C 
HETATM   21  C1  UNL     1      35.890  -2.573  12.555  1.00  0.00     0.050 C 
BRANCH  20  22
HETATM   22  N1  UNL     1      36.559  -0.903  10.888  1.00  0.00    -0.067 N 
ATOM     23  H13 UNL     1      35.706  -1.282  10.478  1.00  0.00     0.275 HD
ATOM     24  H12 UNL     1      36.205   0.002  11.197  1.00  0.00     0.275 HD
ATOM     25  H11 UNL     1      37.286  -0.790  10.180  1.00  0.00     0.275 HD
ENDBRANCH  20  22
ENDBRANCH   1  20
TORSDOF 4
ENDMDL
MODEL 5
REMARK VINA RESULT: -5.389810726      2.673      4.554
REMARK  4 active torsions:
REMARK  status: ('A' for Active; 'I' for Inactive)
REMARK    1  A    between atoms: C2_2  and  N1_3 
REMARK    2  A    between atoms: C2_2  and  C3_7 
REMARK       I    between atoms: C3_7  and  N2_9 
REMARK    3  A    between atoms: C7_19  and  C8_20 
REMARK    4  A    between atoms: C8_20  and  C11_23 
ROOT
HETATM    1  C3  UNL     1      35.752  -4.498  11.765  1.00  0.00     0.253 C 
HETATM    2  O1  UNL     1      35.530  -4.499  10.506  1.00  0.00    -0.271 OA
HETATM    3  N2  UNL     1      35.795  -5.655  12.543  1.00  0.00    -0.314 N 
ATOM      4  H2  UNL     1      35.284  -5.640  13.426  1.00  0.00     0.170 HD
HETATM    5  C4  UNL     1      36.424  -6.740  12.246  1.00  0.00     0.100 C 
HETATM    6  N3  UNL     1      37.166  -6.884  11.051  1.00  0.00    -0.273 N 
ATOM      7  H3  UNL     1      37.034  -6.359  10.187  1.00  0.00     0.180 HD
HETATM    8  S1  UNL     1      38.341  -8.122  11.342  1.00  0.00     0.236 S 
HETATM    9  O2  UNL     1      38.421  -9.104  10.219  1.00  0.00    -0.205 OA
HETATM   10  O3  UNL     1      39.674  -7.551  11.676  1.00  0.00    -0.205 OA
HETATM   11  C5  UNL     1      37.531  -8.829  12.785  1.00  0.00     0.138 C 
HETATM   12  C6  UNL     1      38.616  -8.847  13.876  1.00  0.00     0.029 C 
HETATM   13  C7  UNL     1      36.431  -7.910  13.101  1.00  0.00     0.090 C 
ENDROOT
BRANCH  13  14
HETATM   14  C8  UNL     1      35.056  -8.543  13.228  1.00  0.00     0.043 C 
HETATM   15  C9  UNL     1      34.494  -8.187  14.616  1.00  0.00     0.025 C 
HETATM   16  C10 UNL     1      35.125 -10.046  13.195  1.00  0.00     0.025 C 
BRANCH  14  17
HETATM   17  C11 UNL     1      34.108  -8.090  12.183  1.00  0.00     0.239 C 
HETATM   18  N4  UNL     1      33.024  -7.218  12.439  1.00  0.00    -0.061 NA
HETATM   19  O4  UNL     1      34.221  -8.471  10.971  1.00  0.00    -0.276 OA
ENDBRANCH  14  17
ENDBRANCH  13  14
BRANCH   1  20
HETATM   20  C2  UNL     1      35.967  -3.169  12.381  1.00  0.00     0.271 C 
HETATM   21  C1  UNL     1      35.377  -2.057  11.540  1.00  0.00     0.050 C 
BRANCH  20  22
HETATM   22  N1  UNL     1      35.455  -3.180  13.719  1.00  0.00    -0.067 N 
ATOM     23  H13 UNL     1      36.200  -3.352  14.394  1.00  0.00     0.275 HD
ATOM     24  H12 UNL     1      35.180  -2.243  14.014  1.00  0.00     0.275 HD
ATOM     25  H11 UNL     1      34.689  -3.843  13.842  1.00  0.00     0.275 HD
ENDBRANCH  20  22
ENDBRANCH   1  20
TORSDOF 4
ENDMDL
