MODEL 1
REMARK VINA RESULT: -6.435549361      0.000      0.000
REMARK  5 active torsions:
REMARK  status: ('A' for Active; 'I' for Inactive)
REMARK       I    between atoms: C2_2  and  N1_4 
REMARK    1  A    between atoms: N1_4  and  S1_6 
REMARK    2  A    between atoms: S1_6  and  N2_9 
REMARK    3  A    between atoms: N2_9  and  C3_11 
REMARK    4  A    between atoms: C6_14  and  S2_15 
REMARK    5  A    between atoms: S2_15  and  N3_16 
ROOT
HETATM    1  C3  UNL     1      37.383  -1.885  12.892  1.00  0.00     0.130 A 
HETATM    2  C4  UNL     1      38.407  -1.135  13.419  1.00  0.00     0.053 A 
HETATM    3  C5  UNL     1      38.267   0.247  13.594  1.00  0.00     0.049 A 
HETATM    4  C6  UNL     1      37.054   0.786  13.207  1.00  0.00     0.163 A 
HETATM    5  N4  UNL     1      36.088   0.016  12.700  1.00  0.00    -0.287 N 
ATOM      6  H4  UNL     1      35.209   0.454  12.426  1.00  0.00     0.188 HD
HETATM    7  N5  UNL     1      36.221  -1.294  12.534  1.00  0.00    -0.284 N 
ATOM      8  H5  UNL     1      35.458  -1.846  12.143  1.00  0.00     0.188 HD
ENDROOT
BRANCH   1   9
HETATM    9  N2  UNL     1      37.505  -3.145  12.731  1.00  0.00    -0.252 N 
ATOM     10  H2  UNL     1      38.352  -3.466  12.261  1.00  0.00     0.182 HD
BRANCH   9  11
HETATM   11  S1  UNL     1      36.404  -4.339  13.215  1.00  0.00     0.327 S 
HETATM   12  O2  UNL     1      36.805  -5.069  14.448  1.00  0.00    -0.182 OA
HETATM   13  O3  UNL     1      35.080  -3.652  13.525  1.00  0.00    -0.182 OA
BRANCH  11  14
HETATM   14  N1  UNL     1      36.121  -5.433  11.912  1.00  0.00    -0.237 N 
HETATM   15  C2  UNL     1      35.799  -4.911  10.631  1.00  0.00     0.228 C 
HETATM   16  C1  UNL     1      35.559  -5.869   9.522  1.00  0.00     0.118 C 
HETATM   17  O1  UNL     1      35.716  -3.675  10.431  1.00  0.00    -0.273 OA
ATOM     18  H1  UNL     1      36.182  -6.440  12.060  1.00  0.00     0.183 HD
ENDBRANCH  11  14
ENDBRANCH   9  11
ENDBRANCH   1   9
BRANCH   4  19
HETATM   19  S2  UNL     1      36.804   2.509  13.395  1.00  0.00     0.273 S 
HETATM   20  O4  UNL     1      36.726   3.087  12.000  1.00  0.00    -0.199 OA
HETATM   21  O5  UNL     1      35.488   2.715  14.101  1.00  0.00    -0.199 OA
BRANCH  19  22
HETATM   22  N3  UNL     1      38.104   3.223  14.257  1.00  0.00    -0.323 N 
ATOM     23  H32 UNL     1      38.298   3.043  15.242  1.00  0.00     0.169 HD
ATOM     24  H31 UNL     1      38.643   3.842  13.652  1.00  0.00     0.169 HD
ENDBRANCH  19  22
ENDBRANCH   4  19
TORSDOF 5
ENDMDL
MODEL 2
REMARK VINA RESULT: -6.343992236      1.307      1.877
REMARK  5 active torsions:
REMARK  status: ('A' for Active; 'I' for Inactive)
REMARK       I    between atoms: C2_2  and  N1_4 
REMARK    1  A    between atoms: N1_4  and  S1_6 
REMARK    2  A    between atoms: S1_6  and  N2_9 
REMARK    3  A    between atoms: N2_9  and  C3_11 
REMARK    4  A    between atoms: C6_14  and  S2_15 
REMARK    5  A    between atoms: S2_15  and  N3_16 
ROOT
HETATM    1  C3  UNL     1      36.847  -2.119  12.725  1.00  0.00     0.130 A 
HETATM    2  C4  UNL     1      37.987  -1.498  13.176  1.00  0.00     0.053 A 
HETATM    3  C5  UNL     1      38.016  -0.114  13.385  1.00  0.00     0.049 A 
HETATM    4  C6  UNL     1      36.842   0.564  13.112  1.00  0.00     0.163 A 
HETATM    5  N4  UNL     1      35.759  -0.083  12.676  1.00  0.00    -0.287 N 
ATOM      6  H4  UNL     1      34.914   0.455  12.485  1.00  0.00     0.188 HD
HETATM    7  N5  UNL     1      35.732  -1.395  12.477  1.00  0.00    -0.284 N 
ATOM      8  H5  UNL     1      34.882  -1.851  12.143  1.00  0.00     0.188 HD
ENDROOT
BRANCH   1   9
HETATM    9  N2  UNL     1      36.815  -3.379  12.532  1.00  0.00    -0.252 N 
ATOM     10  H2  UNL     1      37.532  -3.932  13.002  1.00  0.00     0.182 HD
BRANCH   9  11
HETATM   11  S1  UNL     1      35.703  -4.230  11.577  1.00  0.00     0.327 S 
HETATM   12  O2  UNL     1      34.372  -4.416  12.216  1.00  0.00    -0.182 OA
HETATM   13  O3  UNL     1      35.469  -3.423  10.307  1.00  0.00    -0.182 OA
BRANCH  11  14
HETATM   14  N1  UNL     1      36.380  -5.744  11.105  1.00  0.00    -0.237 N 
HETATM   15  C2  UNL     1      36.964  -6.578  12.096  1.00  0.00     0.228 C 
HETATM   16  C1  UNL     1      37.541  -7.878  11.668  1.00  0.00     0.118 C 
HETATM   17  O1  UNL     1      36.997  -6.234  13.302  1.00  0.00    -0.273 OA
ATOM     18  H1  UNL     1      36.362  -6.036  10.128  1.00  0.00     0.183 HD
ENDBRANCH  11  14
ENDBRANCH   9  11
ENDBRANCH   1   9
BRANCH   4  19
HETATM   19  S2  UNL     1      36.801   2.298  13.350  1.00  0.00     0.273 S 
HETATM   20  O4  UNL     1      36.760   2.920  11.972  1.00  0.00    -0.199 OA
HETATM   21  O5  UNL     1      35.534   2.637  14.094  1.00  0.00    -0.199 OA
BRANCH  19  22
HETATM   22  N3  UNL     1      38.194   2.830  14.196  1.00  0.00    -0.323 N 
ATOM     23  H32 UNL     1      38.815   3.567  13.861  1.00  0.00     0.169 HD
ATOM     24  H31 UNL     1      38.310   2.312  15.067  1.00  0.00     0.169 HD
ENDBRANCH  19  22
ENDBRANCH   4  19
TORSDOF 5
ENDMDL
MODEL 3
REMARK VINA RESULT: -6.270741872      3.114      3.892
REMARK  5 active torsions:
REMARK  status: ('A' for Active; 'I' for Inactive)
REMARK       I    between atoms: C2_2  and  N1_4 
REMARK    1  A    between atoms: N1_4  and  S1_6 
REMARK    2  A    between atoms: S1_6  and  N2_9 
REMARK    3  A    between atoms: N2_9  and  C3_11 
REMARK    4  A    between atoms: C6_14  and  S2_15 
REMARK    5  A    between atoms: S2_15  and  N3_16 
ROOT
HETATM    1  C3  UNL     1      35.280  -4.864  12.858  1.00  0.00     0.130 A 
HETATM    2  C4  UNL     1      35.544  -4.531  11.550  1.00  0.00     0.053 A 
HETATM    3  C5  UNL     1      35.987  -3.247  11.212  1.00  0.00     0.049 A 
HETATM    4  C6  UNL     1      36.135  -2.361  12.264  1.00  0.00     0.163 A 
HETATM    5  N4  UNL     1      35.866  -2.731  13.518  1.00  0.00    -0.287 N 
ATOM      6  H4  UNL     1      35.988  -2.046  14.265  1.00  0.00     0.188 HD
HETATM    7  N5  UNL     1      35.447  -3.948  13.839  1.00  0.00    -0.284 N 
ATOM      8  H5  UNL     1      35.253  -4.190  14.811  1.00  0.00     0.188 HD
ENDROOT
BRANCH   1   9
HETATM    9  N2  UNL     1      34.877  -6.033  13.172  1.00  0.00    -0.252 N 
ATOM     10  H2  UNL     1      35.340  -6.478  13.964  1.00  0.00     0.182 HD
BRANCH   9  11
HETATM   11  S1  UNL     1      33.651  -6.921  12.409  1.00  0.00     0.327 S 
HETATM   12  O2  UNL     1      33.173  -8.091  13.193  1.00  0.00    -0.182 OA
HETATM   13  O3  UNL     1      32.453  -5.997  12.228  1.00  0.00    -0.182 OA
BRANCH  11  14
HETATM   14  N1  UNL     1      34.171  -7.399  10.836  1.00  0.00    -0.237 N 
HETATM   15  C2  UNL     1      35.416  -8.068  10.695  1.00  0.00     0.228 C 
HETATM   16  C1  UNL     1      35.845  -8.472   9.331  1.00  0.00     0.118 C 
HETATM   17  O1  UNL     1      36.141  -8.315  11.689  1.00  0.00    -0.273 OA
ATOM     18  H1  UNL     1      33.593  -7.203  10.019  1.00  0.00     0.183 HD
ENDBRANCH  11  14
ENDBRANCH   9  11
ENDBRANCH   1   9
BRANCH   4  19
HETATM   19  S2  UNL     1      36.685  -0.735  11.920  1.00  0.00     0.273 S 
HETATM   20  O4  UNL     1      38.196  -0.770  11.984  1.00  0.00    -0.199 OA
HETATM   21  O5  UNL     1      36.248  -0.381  10.521  1.00  0.00    -0.199 OA
BRANCH  19  22
HETATM   22  N3  UNL     1      36.071   0.373  13.075  1.00  0.00    -0.323 N 
ATOM     23  H32 UNL     1      36.144   0.240  14.084  1.00  0.00     0.169 HD
ATOM     24  H31 UNL     1      35.629   1.169  12.615  1.00  0.00     0.169 HD
ENDBRANCH  19  22
ENDBRANCH   4  19
TORSDOF 5
ENDMDL
MODEL 4
REMARK VINA RESULT: -6.263122464      2.727      6.816
REMARK  5 active torsions:
REMARK  status: ('A' for Active; 'I' for Inactive)
REMARK       I    between atoms: C2_2  and  N1_4 
REMARK    1  A    between atoms: N1_4  and  S1_6 
REMARK    2  A    between atoms: S1_6  and  N2_9 
REMARK    3  A    between atoms: N2_9  and  C3_11 
REMARK    4  A    between atoms: C6_14  and  S2_15 
REMARK    5  A    between atoms: S2_15  and  N3_16 
ROOT
HETATM    1  C3  UNL     1      35.835  -2.222  12.609  1.00  0.00     0.130 A 
HETATM    2  C4  UNL     1      35.649  -2.810  11.380  1.00  0.00     0.053 A 
HETATM    3  C5  UNL     1      35.148  -4.113  11.277  1.00  0.00     0.049 A 
HETATM    4  C6  UNL     1      34.862  -4.748  12.472  1.00  0.00     0.163 A 
HETATM    5  N4  UNL     1      35.060  -4.135  13.642  1.00  0.00    -0.287 N 
ATOM      6  H4  UNL     1      34.837  -4.640  14.499  1.00  0.00     0.188 HD
HETATM    7  N5  UNL     1      35.534  -2.900  13.740  1.00  0.00    -0.284 N 
ATOM      8  H5  UNL     1      35.670  -2.468  14.654  1.00  0.00     0.188 HD
ENDROOT
BRANCH   1   9
HETATM    9  N2  UNL     1      36.290  -1.034  12.709  1.00  0.00    -0.252 N 
ATOM     10  H2  UNL     1      35.707  -0.288  12.331  1.00  0.00     0.182 HD
BRANCH   9  11
HETATM   11  S1  UNL     1      37.764  -0.570  13.405  1.00  0.00     0.327 S 
HETATM   12  O2  UNL     1      37.893  -0.923  14.845  1.00  0.00    -0.182 OA
HETATM   13  O3  UNL     1      38.877  -1.308  12.673  1.00  0.00    -0.182 OA
BRANCH  11  14
HETATM   14  N1  UNL     1      38.019   1.118  13.156  1.00  0.00    -0.237 N 
HETATM   15  C2  UNL     1      36.937   2.016  13.359  1.00  0.00     0.228 C 
HETATM   16  C1  UNL     1      37.179   3.465  13.140  1.00  0.00     0.118 C 
HETATM   17  O1  UNL     1      35.805   1.606  13.712  1.00  0.00    -0.273 OA
ATOM     18  H1  UNL     1      38.934   1.465  12.868  1.00  0.00     0.183 HD
ENDBRANCH  11  14
ENDBRANCH   9  11
ENDBRANCH   1   9
BRANCH   4  19
HETATM   19  S2  UNL     1      34.233  -6.381  12.424  1.00  0.00     0.273 S 
HETATM   20  O4  UNL     1      35.160  -7.173  11.530  1.00  0.00    -0.199 OA
HETATM   21  O5  UNL     1      34.281  -6.941  13.823  1.00  0.00    -0.199 OA
BRANCH  19  22
HETATM   22  N3  UNL     1      32.640  -6.401  11.788  1.00  0.00    -0.323 N 
ATOM     23  H32 UNL     1      32.238  -5.640  11.241  1.00  0.00     0.169 HD
ATOM     24  H31 UNL     1      32.163  -7.268  12.033  1.00  0.00     0.169 HD
ENDBRANCH  19  22
ENDBRANCH   4  19
TORSDOF 5
ENDMDL
MODEL 5
REMARK VINA RESULT: -6.248059019      1.633      2.280
REMARK  5 active torsions:
REMARK  status: ('A' for Active; 'I' for Inactive)
REMARK       I    between atoms: C2_2  and  N1_4 
REMARK    1  A    between atoms: N1_4  and  S1_6 
REMARK    2  A    between atoms: S1_6  and  N2_9 
REMARK    3  A    between atoms: N2_9  and  C3_11 
REMARK    4  A    between atoms: C6_14  and  S2_15 
REMARK    5  A    between atoms: S2_15  and  N3_16 
ROOT
HETATM    1  C3  UNL     1      37.026  -1.291  12.261  1.00  0.00     0.130 A 
HETATM    2  C4  UNL     1      38.257  -0.690  12.145  1.00  0.00     0.053 A 
HETATM    3  C5  UNL     1      38.440   0.649  12.510  1.00  0.00     0.049 A 
HETATM    4  C6  UNL     1      37.319   1.305  12.985  1.00  0.00     0.163 A 
HETATM    5  N4  UNL     1      36.143   0.679  13.080  1.00  0.00    -0.287 N 
ATOM      6  H4  UNL     1      35.341   1.201  13.434  1.00  0.00     0.188 HD
HETATM    7  N5  UNL     1      35.970  -0.590  12.734  1.00  0.00    -0.284 N 
ATOM      8  H5  UNL     1      35.054  -1.031  12.822  1.00  0.00     0.188 HD
ENDROOT
BRANCH   1   9
HETATM    9  N2  UNL     1      36.853  -2.510  11.930  1.00  0.00    -0.252 N 
ATOM     10  H2  UNL     1      37.656  -3.131  12.036  1.00  0.00     0.182 HD
BRANCH   9  11
HETATM   11  S1  UNL     1      35.427  -3.206  11.333  1.00  0.00     0.327 S 
HETATM   12  O2  UNL     1      34.372  -2.219  10.981  1.00  0.00    -0.182 OA
HETATM   13  O3  UNL     1      35.775  -3.949  10.050  1.00  0.00    -0.182 OA
BRANCH  11  14
HETATM   14  N1  UNL     1      34.834  -4.373  12.456  1.00  0.00    -0.237 N 
HETATM   15  C2  UNL     1      35.738  -5.321  13.008  1.00  0.00     0.228 C 
HETATM   16  C1  UNL     1      35.208  -6.316  13.974  1.00  0.00     0.118 C 
HETATM   17  O1  UNL     1      36.953  -5.324  12.694  1.00  0.00    -0.273 OA
ATOM     18  H1  UNL     1      33.849  -4.384  12.719  1.00  0.00     0.183 HD
ENDBRANCH  11  14
ENDBRANCH   9  11
ENDBRANCH   1   9
BRANCH   4  19
HETATM   19  S2  UNL     1      37.469   2.983  13.462  1.00  0.00     0.273 S 
HETATM   20  O4  UNL     1      37.636   3.779  12.187  1.00  0.00    -0.199 OA
HETATM   21  O5  UNL     1      36.189   3.389  14.147  1.00  0.00    -0.199 OA
BRANCH  19  22
HETATM   22  N3  UNL     1      38.831   3.207  14.480  1.00  0.00    -0.323 N 
ATOM     23  H32 UNL     1      39.626   3.801  14.242  1.00  0.00     0.169 HD
ATOM     24  H31 UNL     1      38.733   2.669  15.341  1.00  0.00     0.169 HD
ENDBRANCH  19  22
ENDBRANCH   4  19
TORSDOF 5
ENDMDL
