MODEL 1
REMARK VINA RESULT: -6.145337044      0.000      0.000
REMARK  4 active torsions:
REMARK  status: ('A' for Active; 'I' for Inactive)
REMARK       I    between atoms: C2_4  and  N2_5 
REMARK       I    between atoms: C2_4  and  N4_14 
REMARK    1  A    between atoms: N2_5  and  C3_7 
REMARK    2  A    between atoms: N4_14  and  S1_16 
REMARK    3  A    between atoms: S1_16  and  N5_19 
REMARK    4  A    between atoms: N5_19  and  S2_21 
ROOT
HETATM    1  C1  UNL     1      37.912  -4.424  14.904  1.00  0.00     0.165 C 
HETATM    2  N1  UNL     1      36.918  -4.897  13.979  1.00  0.00    -0.230 N 
ATOM      3  H1  UNL     1      36.960  -5.871  13.676  1.00  0.00     0.177 HD
HETATM    4  C2  UNL     1      35.977  -4.150  13.514  1.00  0.00     0.690 C 
HETATM    5  N2  UNL     1      35.930  -2.801  13.941  1.00  0.00    -0.176 N 
ATOM      6  H2  UNL     1      35.285  -2.565  14.696  1.00  0.00     0.186 HD
HETATM    7  N4  UNL     1      35.014  -4.660  12.604  1.00  0.00    -0.099 N 
ATOM      8  H4  UNL     1      34.018  -4.620  12.823  1.00  0.00     0.199 HD
ENDROOT
BRANCH   5   9
HETATM    9  C3  UNL     1      36.648  -1.846  13.443  1.00  0.00     0.120 A 
HETATM   10  C4  UNL     1      36.625  -1.626  12.089  1.00  0.00     0.049 A 
HETATM   11  C5  UNL     1      37.379  -0.618  11.557  1.00  0.00     0.005 A 
HETATM   12  C6  UNL     1      38.149   0.159  12.380  1.00  0.00     0.017 A 
HETATM   13  C7  UNL     1      38.133  -0.110  13.741  1.00  0.00     0.089 A 
HETATM   14  N3  UNL     1      37.399  -1.088  14.248  1.00  0.00    -0.352 N 
ATOM     15  H3  UNL     1      37.407  -1.263  15.253  1.00  0.00     0.166 HD
ENDBRANCH   5   9
BRANCH   7  16
HETATM   16  S1  UNL     1      35.556  -5.342  11.138  1.00  0.00     0.345 S 
HETATM   17  O1  UNL     1      36.934  -5.929  11.292  1.00  0.00    -0.181 OA
HETATM   18  O2  UNL     1      35.596  -4.309  10.022  1.00  0.00    -0.181 OA
BRANCH  16  19
HETATM   19  N5  UNL     1      34.533  -6.612  10.565  1.00  0.00    -0.194 N 
ATOM     20  H5  UNL     1      34.309  -6.824   9.593  1.00  0.00     0.193 HD
BRANCH  19  21
HETATM   21  S2  UNL     1      33.965  -7.453  11.964  1.00  0.00     0.236 S 
HETATM   22  C8  UNL     1      33.617  -9.154  11.605  1.00  0.00     0.186 C 
HETATM   23  O3  UNL     1      35.043  -7.434  13.018  1.00  0.00    -0.205 OA
HETATM   24  O4  UNL     1      32.783  -6.746  12.530  1.00  0.00    -0.205 OA
ENDBRANCH  19  21
ENDBRANCH  16  19
ENDBRANCH   7  16
TORSDOF 4
ENDMDL
MODEL 2
REMARK VINA RESULT: -5.942984543      1.986      2.565
REMARK  4 active torsions:
REMARK  status: ('A' for Active; 'I' for Inactive)
REMARK       I    between atoms: C2_4  and  N2_5 
REMARK       I    between atoms: C2_4  and  N4_14 
REMARK    1  A    between atoms: N2_5  and  C3_7 
REMARK    2  A    between atoms: N4_14  and  S1_16 
REMARK    3  A    between atoms: S1_16  and  N5_19 
REMARK    4  A    between atoms: N5_19  and  S2_21 
ROOT
HETATM    1  C1  UNL     1      38.067  -5.926  13.078  1.00  0.00     0.165 C 
HETATM    2  N1  UNL     1      36.750  -6.486  13.212  1.00  0.00    -0.230 N 
ATOM      3  H1  UNL     1      36.603  -7.457  12.933  1.00  0.00     0.177 HD
HETATM    4  C2  UNL     1      35.744  -5.820  13.666  1.00  0.00     0.690 C 
HETATM    5  N2  UNL     1      35.959  -4.474  14.048  1.00  0.00    -0.176 N 
ATOM      6  H2  UNL     1      36.105  -4.281  15.039  1.00  0.00     0.186 HD
HETATM    7  N4  UNL     1      34.461  -6.415  13.784  1.00  0.00    -0.099 N 
ATOM      8  H4  UNL     1      33.984  -6.450  14.685  1.00  0.00     0.199 HD
ENDROOT
BRANCH   5   9
HETATM    9  C3  UNL     1      35.985  -3.472  13.229  1.00  0.00     0.120 A 
HETATM   10  C4  UNL     1      35.336  -3.572  12.025  1.00  0.00     0.049 A 
HETATM   11  C5  UNL     1      35.358  -2.517  11.157  1.00  0.00     0.005 A 
HETATM   12  C6  UNL     1      36.027  -1.373  11.498  1.00  0.00     0.017 A 
HETATM   13  C7  UNL     1      36.664  -1.328  12.729  1.00  0.00     0.089 A 
HETATM   14  N3  UNL     1      36.638  -2.355  13.564  1.00  0.00    -0.352 N 
ATOM     15  H3  UNL     1      37.117  -2.294  14.463  1.00  0.00     0.166 HD
ENDBRANCH   5   9
BRANCH   7  16
HETATM   16  S1  UNL     1      33.732  -7.070  12.387  1.00  0.00     0.345 S 
HETATM   17  O1  UNL     1      34.681  -7.040  11.219  1.00  0.00    -0.181 OA
HETATM   18  O2  UNL     1      32.473  -6.307  12.004  1.00  0.00    -0.181 OA
BRANCH  16  19
HETATM   19  N5  UNL     1      33.241  -8.715  12.590  1.00  0.00    -0.194 N 
ATOM     20  H5  UNL     1      32.505  -9.200  12.078  1.00  0.00     0.193 HD
BRANCH  19  21
HETATM   21  S2  UNL     1      34.246  -9.377  13.831  1.00  0.00     0.236 S 
HETATM   22  C8  UNL     1      34.023 -11.129  13.983  1.00  0.00     0.186 C 
HETATM   23  O3  UNL     1      35.690  -9.144  13.467  1.00  0.00    -0.205 OA
HETATM   24  O4  UNL     1      33.994  -8.666  15.115  1.00  0.00    -0.205 OA
ENDBRANCH  19  21
ENDBRANCH  16  19
ENDBRANCH   7  16
TORSDOF 4
ENDMDL
MODEL 3
REMARK VINA RESULT: -5.835231526      1.767      2.391
REMARK  4 active torsions:
REMARK  status: ('A' for Active; 'I' for Inactive)
REMARK       I    between atoms: C2_4  and  N2_5 
REMARK       I    between atoms: C2_4  and  N4_14 
REMARK    1  A    between atoms: N2_5  and  C3_7 
REMARK    2  A    between atoms: N4_14  and  S1_16 
REMARK    3  A    between atoms: S1_16  and  N5_19 
REMARK    4  A    between atoms: N5_19  and  S2_21 
ROOT
HETATM    1  C1  UNL     1      38.428  -5.224  13.434  1.00  0.00     0.165 C 
HETATM    2  N1  UNL     1      37.130  -5.842  13.458  1.00  0.00    -0.230 N 
ATOM      3  H1  UNL     1      37.059  -6.834  13.230  1.00  0.00     0.177 HD
HETATM    4  C2  UNL     1      36.051  -5.202  13.754  1.00  0.00     0.690 C 
HETATM    5  N2  UNL     1      36.163  -3.827  14.068  1.00  0.00    -0.176 N 
ATOM      6  H2  UNL     1      36.187  -3.566  15.055  1.00  0.00     0.186 HD
HETATM    7  N4  UNL     1      34.790  -5.854  13.769  1.00  0.00    -0.099 N 
ATOM      8  H4  UNL     1      34.216  -5.858  14.613  1.00  0.00     0.199 HD
ENDROOT
BRANCH   5   9
HETATM    9  C3  UNL     1      36.236  -2.876  13.194  1.00  0.00     0.120 A 
HETATM   10  C4  UNL     1      37.127  -1.850  13.390  1.00  0.00     0.049 A 
HETATM   11  C5  UNL     1      37.210  -0.844  12.469  1.00  0.00     0.005 A 
HETATM   12  C6  UNL     1      36.404  -0.869  11.362  1.00  0.00     0.017 A 
HETATM   13  C7  UNL     1      35.523  -1.931  11.216  1.00  0.00     0.089 A 
HETATM   14  N3  UNL     1      35.449  -2.902  12.113  1.00  0.00    -0.352 N 
ATOM     15  H3  UNL     1      34.792  -3.670  11.980  1.00  0.00     0.166 HD
ENDBRANCH   5   9
BRANCH   7  16
HETATM   16  S1  UNL     1      34.254  -6.628  12.347  1.00  0.00     0.345 S 
HETATM   17  O1  UNL     1      34.714  -5.885  11.121  1.00  0.00    -0.181 OA
HETATM   18  O2  UNL     1      32.736  -6.731  12.305  1.00  0.00    -0.181 OA
BRANCH  16  19
HETATM   19  N5  UNL     1      34.839  -8.247  12.198  1.00  0.00    -0.194 N 
ATOM     20  H5  UNL     1      35.097  -8.726  11.336  1.00  0.00     0.193 HD
BRANCH  19  21
HETATM   21  S2  UNL     1      34.900  -8.895  13.799  1.00  0.00     0.236 S 
HETATM   22  C8  UNL     1      34.904 -10.669  13.784  1.00  0.00     0.186 C 
HETATM   23  O3  UNL     1      36.184  -8.455  14.456  1.00  0.00    -0.205 OA
HETATM   24  O4  UNL     1      33.778  -8.344  14.608  1.00  0.00    -0.205 OA
ENDBRANCH  19  21
ENDBRANCH  16  19
ENDBRANCH   7  16
TORSDOF 4
ENDMDL
MODEL 4
REMARK VINA RESULT: -5.815498778      3.049      5.771
REMARK  4 active torsions:
REMARK  status: ('A' for Active; 'I' for Inactive)
REMARK       I    between atoms: C2_4  and  N2_5 
REMARK       I    between atoms: C2_4  and  N4_14 
REMARK    1  A    between atoms: N2_5  and  C3_7 
REMARK    2  A    between atoms: N4_14  and  S1_16 
REMARK    3  A    between atoms: S1_16  and  N5_19 
REMARK    4  A    between atoms: N5_19  and  S2_21 
ROOT
HETATM    1  C1  UNL     1      33.252  -6.746  12.144  1.00  0.00     0.165 C 
HETATM    2  N1  UNL     1      33.732  -5.392  12.190  1.00  0.00    -0.230 N 
ATOM      3  H1  UNL     1      33.226  -4.679  11.663  1.00  0.00     0.177 HD
HETATM    4  C2  UNL     1      34.772  -5.035  12.863  1.00  0.00     0.690 C 
HETATM    5  N2  UNL     1      35.465  -6.034  13.588  1.00  0.00    -0.176 N 
ATOM      6  H2  UNL     1      35.265  -6.121  14.584  1.00  0.00     0.186 HD
HETATM    7  N4  UNL     1      35.208  -3.684  12.883  1.00  0.00    -0.099 N 
ATOM      8  H4  UNL     1      35.296  -3.178  13.764  1.00  0.00     0.199 HD
ENDROOT
BRANCH   5   9
HETATM    9  C3  UNL     1      36.335  -6.844  13.076  1.00  0.00     0.120 A 
HETATM   10  C4  UNL     1      36.575  -8.047  13.690  1.00  0.00     0.049 A 
HETATM   11  C5  UNL     1      37.491  -8.908  13.153  1.00  0.00     0.005 A 
HETATM   12  C6  UNL     1      38.159  -8.560  12.011  1.00  0.00     0.017 A 
HETATM   13  C7  UNL     1      37.876  -7.331  11.433  1.00  0.00     0.089 A 
HETATM   14  N3  UNL     1      36.986  -6.503  11.959  1.00  0.00    -0.352 N 
ATOM     15  H3  UNL     1      36.799  -5.606  11.513  1.00  0.00     0.166 HD
ENDBRANCH   5   9
BRANCH   7  16
HETATM   16  S1  UNL     1      35.582  -2.925  11.402  1.00  0.00     0.345 S 
HETATM   17  O1  UNL     1      34.476  -1.997  10.976  1.00  0.00    -0.181 OA
HETATM   18  O2  UNL     1      35.809  -3.943  10.293  1.00  0.00    -0.181 OA
BRANCH  16  19
HETATM   19  N5  UNL     1      37.027  -1.980  11.474  1.00  0.00    -0.194 N 
ATOM     20  H5  UNL     1      37.362  -1.322  10.770  1.00  0.00     0.193 HD
BRANCH  19  21
HETATM   21  S2  UNL     1      37.792  -2.368  12.974  1.00  0.00     0.236 S 
HETATM   22  C8  UNL     1      39.373  -1.578  13.122  1.00  0.00     0.186 C 
HETATM   23  O3  UNL     1      36.936  -1.859  14.106  1.00  0.00    -0.205 OA
HETATM   24  O4  UNL     1      37.888  -3.846  13.123  1.00  0.00    -0.205 OA
ENDBRANCH  19  21
ENDBRANCH  16  19
ENDBRANCH   7  16
TORSDOF 4
ENDMDL
MODEL 5
REMARK VINA RESULT: -5.808194951      0.620      1.108
REMARK  4 active torsions:
REMARK  status: ('A' for Active; 'I' for Inactive)
REMARK       I    between atoms: C2_4  and  N2_5 
REMARK       I    between atoms: C2_4  and  N4_14 
REMARK    1  A    between atoms: N2_5  and  C3_7 
REMARK    2  A    between atoms: N4_14  and  S1_16 
REMARK    3  A    between atoms: S1_16  and  N5_19 
REMARK    4  A    between atoms: N5_19  and  S2_21 
ROOT
HETATM    1  C1  UNL     1      38.053  -4.483  14.926  1.00  0.00     0.165 C 
HETATM    2  N1  UNL     1      37.022  -4.894  14.012  1.00  0.00    -0.230 N 
ATOM      3  H1  UNL     1      37.002  -5.868  13.707  1.00  0.00     0.177 HD
HETATM    4  C2  UNL     1      36.123  -4.090  13.557  1.00  0.00     0.690 C 
HETATM    5  N2  UNL     1      36.163  -2.742  13.986  1.00  0.00    -0.176 N 
ATOM      6  H2  UNL     1      35.542  -2.468  14.747  1.00  0.00     0.186 HD
HETATM    7  N4  UNL     1      35.121  -4.540  12.658  1.00  0.00    -0.099 N 
ATOM      8  H4  UNL     1      34.132  -4.440  12.888  1.00  0.00     0.199 HD
ENDROOT
BRANCH   5   9
HETATM    9  C3  UNL     1      36.932  -1.832  13.480  1.00  0.00     0.120 A 
HETATM   10  C4  UNL     1      37.807  -1.162  14.297  1.00  0.00     0.049 A 
HETATM   11  C5  UNL     1      38.622  -0.200  13.769  1.00  0.00     0.005 A 
HETATM   12  C6  UNL     1      38.557   0.084  12.432  1.00  0.00     0.017 A 
HETATM   13  C7  UNL     1      37.653  -0.626  11.653  1.00  0.00     0.089 A 
HETATM   14  N3  UNL     1      36.867  -1.556  12.173  1.00  0.00    -0.352 N 
ATOM     15  H3  UNL     1      36.212  -2.061  11.577  1.00  0.00     0.166 HD
ENDBRANCH   5   9
BRANCH   7  16
HETATM   16  S1  UNL     1      35.605  -5.252  11.185  1.00  0.00     0.345 S 
HETATM   17  O1  UNL     1      36.958  -5.898  11.317  1.00  0.00    -0.181 OA
HETATM   18  O2  UNL     1      35.668  -4.227  10.063  1.00  0.00    -0.181 OA
BRANCH  16  19
HETATM   19  N5  UNL     1      34.517  -6.479  10.639  1.00  0.00    -0.194 N 
ATOM     20  H5  UNL     1      34.249  -6.673   9.674  1.00  0.00     0.193 HD
BRANCH  19  21
HETATM   21  S2  UNL     1      33.971  -7.314  12.051  1.00  0.00     0.236 S 
HETATM   22  C8  UNL     1      33.598  -9.011  11.699  1.00  0.00     0.186 C 
HETATM   23  O3  UNL     1      35.072  -7.306  13.080  1.00  0.00    -0.205 OA
HETATM   24  O4  UNL     1      32.809  -6.595  12.642  1.00  0.00    -0.205 OA
ENDBRANCH  19  21
ENDBRANCH  16  19
ENDBRANCH   7  16
TORSDOF 4
ENDMDL
