MODEL 1
REMARK VINA RESULT: -9.456462499      0.000      0.000
REMARK  16 active torsions:
REMARK  status: ('A' for Active; 'I' for Inactive)
REMARK    1  A    between atoms: C2_2  and  C3_3 
REMARK    2  A    between atoms: C3_3  and  C4_4 
REMARK    3  A    between atoms: C4_4  and  C5_5 
REMARK    4  A    between atoms: C5_5  and  C6_6 
REMARK    5  A    between atoms: C6_6  and  N1_7 
REMARK    6  A    between atoms: N2_12  and  C8_13 
REMARK    7  A    between atoms: C8_13  and  C9_14 
REMARK    8  A    between atoms: C9_14  and  C10_15 
REMARK    9  A    between atoms: C10_15  and  N3_16 
REMARK   10  A    between atoms: N3_16  and  C11_19 
REMARK   11  A    between atoms: C11_19  and  C12_20 
REMARK   12  A    between atoms: C12_20  and  C13_21 
REMARK   13  A    between atoms: C13_21  and  N4_22 
REMARK   14  A    between atoms: C18_31  and  N7_32 
REMARK   15  A    between atoms: N8_35  and  C21_36 
REMARK   16  A    between atoms: C23_38  and  C24_39 
ROOT
HETATM    1  C1  UNL     1       5.033   2.577  -8.787  1.00  0.00     0.040 C 
HETATM    2  C2  UNL     1       4.849   3.692  -9.783  1.00  0.00     0.043 C 
HETATM    3  C7  UNL     1       5.051   5.006  -9.091  1.00  0.00     0.156 C 
HETATM    4  N2  UNL     1       4.326   5.151  -7.851  1.00  0.00    -0.345 N 
HETATM    5  C15 UNL     1       2.895   5.098  -7.721  1.00  0.00     0.256 C 
HETATM    6  O1  UNL     1       2.365   5.777  -6.831  1.00  0.00    -0.267 OA
HETATM    7  C16 UNL     1       1.942   4.313  -8.535  1.00  0.00     0.060 A 
HETATM    8  C17 UNL     1       0.663   4.288  -8.024  1.00  0.00     0.049 A 
HETATM    9  C18 UNL     1      -0.354   3.603  -8.663  1.00  0.00     0.040 A 
HETATM   10  C33 UNL     1      -0.009   2.947  -9.842  1.00  0.00     0.032 A 
HETATM   11  C34 UNL     1       1.272   2.972 -10.350  1.00  0.00     0.032 A 
HETATM   12  C35 UNL     1       2.281   3.658  -9.708  1.00  0.00     0.044 A 
HETATM   13  N10 UNL     1       3.538   3.568 -10.373  1.00  0.00    -0.379 N 
ATOM     14  H10 UNL     1       3.508   3.397 -11.378  1.00  0.00     0.160 HD
ENDROOT
BRANCH   9  15
HETATM   15  N7  UNL     1      -1.676   3.561  -8.152  1.00  0.00    -0.298 N 
HETATM   16  C19 UNL     1      -2.499   2.373  -8.037  1.00  0.00     0.154 C 
HETATM   17  C20 UNL     1      -3.895   2.956  -8.235  1.00  0.00     0.155 C 
HETATM   18  N8  UNL     1      -3.767   4.120  -7.342  1.00  0.00    -0.283 N 
HETATM   19  C32 UNL     1      -2.485   4.643  -7.647  1.00  0.00     0.331 C 
HETATM   20  O2  UNL     1      -2.151   5.839  -7.491  1.00  0.00    -0.246 OA
BRANCH  18  21
HETATM   21  C21 UNL     1      -4.753   4.508  -6.433  1.00  0.00     0.112 A 
HETATM   22  C22 UNL     1      -4.391   5.125  -5.258  1.00  0.00     0.061 A 
HETATM   23  C23 UNL     1      -5.280   5.571  -4.303  1.00  0.00    -0.021 A 
HETATM   24  C30 UNL     1      -6.622   5.364  -4.579  1.00  0.00     0.029 A 
HETATM   25  C31 UNL     1      -7.001   4.740  -5.763  1.00  0.00     0.090 A 
HETATM   26  N9  UNL     1      -6.089   4.326  -6.661  1.00  0.00    -0.352 N 
ATOM     27  H9  UNL     1      -6.397   3.870  -7.520  1.00  0.00     0.166 HD
BRANCH  23  28
HETATM   28  C24 UNL     1      -4.820   6.201  -3.070  1.00  0.00    -0.026 A 
HETATM   29  C25 UNL     1      -3.864   5.525  -2.305  1.00  0.00     0.012 A 
HETATM   30  C26 UNL     1      -3.388   6.056  -1.147  1.00  0.00     0.001 A 
HETATM   31  C27 UNL     1      -3.858   7.286  -0.718  1.00  0.00     0.000 A 
HETATM   32  C28 UNL     1      -4.817   7.975  -1.474  1.00  0.00     0.001 A 
HETATM   33  C29 UNL     1      -5.291   7.422  -2.650  1.00  0.00     0.012 A 
ENDBRANCH  23  28
ENDBRANCH  18  21
ENDBRANCH   9  15
BRANCH   4  34
HETATM   34  C8  UNL     1       5.066   5.357  -6.643  1.00  0.00     0.128 C 
BRANCH  34  35
HETATM   35  C9  UNL     1       4.690   4.437  -5.505  1.00  0.00     0.047 C 
BRANCH  35  36
HETATM   36  C10 UNL     1       4.362   5.150  -4.239  1.00  0.00     0.234 C 
BRANCH  36  37
HETATM   37  N3  UNL     1       2.999   4.904  -3.839  1.00  0.00    -0.075 N 
ATOM     38  H32 UNL     1       2.453   4.482  -4.591  1.00  0.00     0.277 HD
ATOM     39  H31 UNL     1       2.934   4.146  -3.160  1.00  0.00     0.277 HD
BRANCH  37  40
HETATM   40  C11 UNL     1       2.390   6.114  -3.351  1.00  0.00     0.234 C 
BRANCH  40  41
HETATM   41  C12 UNL     1       1.056   5.729  -2.724  1.00  0.00     0.047 C 
BRANCH  41  42
HETATM   42  C13 UNL     1       0.009   5.709  -3.802  1.00  0.00     0.123 C 
BRANCH  42  43
HETATM   43  N4  UNL     1       0.339   6.748  -4.781  1.00  0.00    -0.367 N 
HETATM   44  C14 UNL     1      -0.521   7.678  -5.072  1.00  0.00     0.196 C 
HETATM   45  N5  UNL     1      -1.802   7.724  -4.460  1.00  0.00    -0.067 NA
HETATM   46  N6  UNL     1      -0.184   8.674  -6.017  1.00  0.00    -0.067 NA
ATOM     47  H4  UNL     1       1.251   6.742  -5.237  1.00  0.00     0.161 HD
ENDBRANCH  42  43
ENDBRANCH  41  42
ENDBRANCH  40  41
ENDBRANCH  37  40
ENDBRANCH  36  37
ENDBRANCH  35  36
ENDBRANCH  34  35
ENDBRANCH   4  34
BRANCH   2  48
HETATM   48  C3  UNL     1       5.919   3.471 -10.860  1.00  0.00     0.032 C 
BRANCH  48  49
HETATM   49  C4  UNL     1       6.254   4.732 -11.562  1.00  0.00     0.004 C 
BRANCH  49  50
HETATM   50  C5  UNL     1       6.197   4.606 -13.042  1.00  0.00     0.027 C 
BRANCH  50  51
HETATM   51  C6  UNL     1       6.940   5.570 -13.876  1.00  0.00     0.229 C 
BRANCH  51  52
HETATM   52  N1  UNL     1       6.942   6.938 -13.504  1.00  0.00    -0.079 N 
ATOM     53  H13 UNL     1       5.983   7.231 -13.319  1.00  0.00     0.274 HD
ATOM     54  H12 UNL     1       7.359   7.025 -12.576  1.00  0.00     0.274 HD
ATOM     55  H11 UNL     1       7.379   7.617 -14.127  1.00  0.00     0.274 HD
ENDBRANCH  51  52
ENDBRANCH  50  51
ENDBRANCH  49  50
ENDBRANCH  48  49
ENDBRANCH   2  48
TORSDOF 16
ENDMDL
MODEL 2
REMARK VINA RESULT: -9.277484601      1.240      1.527
REMARK  16 active torsions:
REMARK  status: ('A' for Active; 'I' for Inactive)
REMARK    1  A    between atoms: C2_2  and  C3_3 
REMARK    2  A    between atoms: C3_3  and  C4_4 
REMARK    3  A    between atoms: C4_4  and  C5_5 
REMARK    4  A    between atoms: C5_5  and  C6_6 
REMARK    5  A    between atoms: C6_6  and  N1_7 
REMARK    6  A    between atoms: N2_12  and  C8_13 
REMARK    7  A    between atoms: C8_13  and  C9_14 
REMARK    8  A    between atoms: C9_14  and  C10_15 
REMARK    9  A    between atoms: C10_15  and  N3_16 
REMARK   10  A    between atoms: N3_16  and  C11_19 
REMARK   11  A    between atoms: C11_19  and  C12_20 
REMARK   12  A    between atoms: C12_20  and  C13_21 
REMARK   13  A    between atoms: C13_21  and  N4_22 
REMARK   14  A    between atoms: C18_31  and  N7_32 
REMARK   15  A    between atoms: N8_35  and  C21_36 
REMARK   16  A    between atoms: C23_38  and  C24_39 
ROOT
HETATM    1  C1  UNL     1       5.002   2.597  -8.595  1.00  0.00     0.040 C 
HETATM    2  C2  UNL     1       4.808   3.581  -9.719  1.00  0.00     0.043 C 
HETATM    3  C7  UNL     1       4.967   4.973  -9.187  1.00  0.00     0.156 C 
HETATM    4  N2  UNL     1       4.217   5.245  -7.983  1.00  0.00    -0.345 N 
HETATM    5  C15 UNL     1       2.785   5.171  -7.869  1.00  0.00     0.256 C 
HETATM    6  O1  UNL     1       2.223   5.937  -7.074  1.00  0.00    -0.267 OA
HETATM    7  C16 UNL     1       1.866   4.269  -8.597  1.00  0.00     0.060 A 
HETATM    8  C17 UNL     1       0.579   4.272  -8.105  1.00  0.00     0.049 A 
HETATM    9  C18 UNL     1      -0.410   3.490  -8.673  1.00  0.00     0.040 A 
HETATM   10  C33 UNL     1      -0.028   2.707  -9.759  1.00  0.00     0.032 A 
HETATM   11  C34 UNL     1       1.261   2.705 -10.249  1.00  0.00     0.032 A 
HETATM   12  C35 UNL     1       2.241   3.489  -9.678  1.00  0.00     0.044 A 
HETATM   13  N10 UNL     1       3.511   3.353 -10.310  1.00  0.00    -0.379 N 
ATOM     14  H10 UNL     1       3.503   3.063 -11.287  1.00  0.00     0.160 HD
ENDROOT
BRANCH   9  15
HETATM   15  N7  UNL     1      -1.739   3.475  -8.179  1.00  0.00    -0.298 N 
HETATM   16  C19 UNL     1      -2.599   2.309  -8.108  1.00  0.00     0.154 C 
HETATM   17  C20 UNL     1      -3.974   2.941  -8.306  1.00  0.00     0.155 C 
HETATM   18  N8  UNL     1      -3.822   4.075  -7.379  1.00  0.00    -0.283 N 
HETATM   19  C32 UNL     1      -2.521   4.566  -7.654  1.00  0.00     0.331 C 
HETATM   20  O2  UNL     1      -2.152   5.746  -7.459  1.00  0.00    -0.246 OA
BRANCH  18  21
HETATM   21  C21 UNL     1      -4.808   4.467  -6.472  1.00  0.00     0.112 A 
HETATM   22  C22 UNL     1      -4.446   5.102  -5.306  1.00  0.00     0.061 A 
HETATM   23  C23 UNL     1      -5.335   5.554  -4.353  1.00  0.00    -0.021 A 
HETATM   24  C30 UNL     1      -6.677   5.334  -4.622  1.00  0.00     0.029 A 
HETATM   25  C31 UNL     1      -7.055   4.692  -5.797  1.00  0.00     0.090 A 
HETATM   26  N9  UNL     1      -6.143   4.272  -6.692  1.00  0.00    -0.352 N 
ATOM     27  H9  UNL     1      -6.451   3.804  -7.545  1.00  0.00     0.166 HD
BRANCH  23  28
HETATM   28  C24 UNL     1      -4.875   6.203  -3.130  1.00  0.00    -0.026 A 
HETATM   29  C25 UNL     1      -3.929   5.533  -2.348  1.00  0.00     0.012 A 
HETATM   30  C26 UNL     1      -3.454   6.081  -1.198  1.00  0.00     0.001 A 
HETATM   31  C27 UNL     1      -3.915   7.323  -0.795  1.00  0.00     0.000 A 
HETATM   32  C28 UNL     1      -4.864   8.006  -1.569  1.00  0.00     0.001 A 
HETATM   33  C29 UNL     1      -5.337   7.436  -2.736  1.00  0.00     0.012 A 
ENDBRANCH  23  28
ENDBRANCH  18  21
ENDBRANCH   9  15
BRANCH   4  34
HETATM   34  C8  UNL     1       4.930   5.614  -6.798  1.00  0.00     0.128 C 
BRANCH  34  35
HETATM   35  C9  UNL     1       4.730   4.683  -5.625  1.00  0.00     0.047 C 
BRANCH  35  36
HETATM   36  C10 UNL     1       4.079   5.329  -4.451  1.00  0.00     0.234 C 
BRANCH  36  37
HETATM   37  N3  UNL     1       2.969   4.543  -3.973  1.00  0.00    -0.075 N 
ATOM     38  H32 UNL     1       2.726   3.794  -4.623  1.00  0.00     0.277 HD
ATOM     39  H31 UNL     1       3.227   3.969  -3.171  1.00  0.00     0.277 HD
BRANCH  37  40
HETATM   40  C11 UNL     1       1.839   5.388  -3.684  1.00  0.00     0.234 C 
BRANCH  40  41
HETATM   41  C12 UNL     1       0.614   4.739  -4.315  1.00  0.00     0.047 C 
BRANCH  41  42
HETATM   42  C13 UNL     1      -0.529   5.714  -4.251  1.00  0.00     0.123 C 
BRANCH  42  43
HETATM   43  N4  UNL     1      -0.272   6.786  -5.216  1.00  0.00    -0.367 N 
HETATM   44  C14 UNL     1      -0.924   7.907  -5.148  1.00  0.00     0.196 C 
HETATM   45  N5  UNL     1      -1.903   8.138  -4.144  1.00  0.00    -0.067 NA
HETATM   46  N6  UNL     1      -0.659   8.931  -6.086  1.00  0.00    -0.067 NA
ATOM     47  H4  UNL     1       0.426   6.650  -5.948  1.00  0.00     0.161 HD
ENDBRANCH  42  43
ENDBRANCH  41  42
ENDBRANCH  40  41
ENDBRANCH  37  40
ENDBRANCH  36  37
ENDBRANCH  35  36
ENDBRANCH  34  35
ENDBRANCH   4  34
BRANCH   2  48
HETATM   48  C3  UNL     1       5.902   3.261 -10.747  1.00  0.00     0.032 C 
BRANCH  48  49
HETATM   49  C4  UNL     1       5.897   1.827 -11.118  1.00  0.00     0.004 C 
BRANCH  49  50
HETATM   50  C5  UNL     1       6.533   1.564 -12.436  1.00  0.00     0.027 C 
BRANCH  50  51
HETATM   51  C6  UNL     1       6.344   0.249 -13.077  1.00  0.00     0.229 C 
BRANCH  51  52
HETATM   52  N1  UNL     1       7.462  -0.390 -13.669  1.00  0.00    -0.079 N 
ATOM     53  H13 UNL     1       8.282  -0.227 -13.086  1.00  0.00     0.274 HD
ATOM     54  H12 UNL     1       7.350  -1.400 -13.576  1.00  0.00     0.274 HD
ATOM     55  H11 UNL     1       7.698  -0.173 -14.638  1.00  0.00     0.274 HD
ENDBRANCH  51  52
ENDBRANCH  50  51
ENDBRANCH  49  50
ENDBRANCH  48  49
ENDBRANCH   2  48
TORSDOF 16
ENDMDL
MODEL 3
REMARK VINA RESULT: -9.066679357      2.680      3.627
REMARK  16 active torsions:
REMARK  status: ('A' for Active; 'I' for Inactive)
REMARK    1  A    between atoms: C2_2  and  C3_3 
REMARK    2  A    between atoms: C3_3  and  C4_4 
REMARK    3  A    between atoms: C4_4  and  C5_5 
REMARK    4  A    between atoms: C5_5  and  C6_6 
REMARK    5  A    between atoms: C6_6  and  N1_7 
REMARK    6  A    between atoms: N2_12  and  C8_13 
REMARK    7  A    between atoms: C8_13  and  C9_14 
REMARK    8  A    between atoms: C9_14  and  C10_15 
REMARK    9  A    between atoms: C10_15  and  N3_16 
REMARK   10  A    between atoms: N3_16  and  C11_19 
REMARK   11  A    between atoms: C11_19  and  C12_20 
REMARK   12  A    between atoms: C12_20  and  C13_21 
REMARK   13  A    between atoms: C13_21  and  N4_22 
REMARK   14  A    between atoms: C18_31  and  N7_32 
REMARK   15  A    between atoms: N8_35  and  C21_36 
REMARK   16  A    between atoms: C23_38  and  C24_39 
ROOT
HETATM    1  C1  UNL     1       2.491  -0.174 -11.214  1.00  0.00     0.040 C 
HETATM    2  C2  UNL     1       3.256   0.935 -10.540  1.00  0.00     0.043 C 
HETATM    3  C7  UNL     1       3.692   0.477  -9.182  1.00  0.00     0.156 C 
HETATM    4  N2  UNL     1       2.649  -0.132  -8.390  1.00  0.00    -0.345 N 
HETATM    5  C15 UNL     1       1.437   0.524  -7.979  1.00  0.00     0.256 C 
HETATM    6  O1  UNL     1       0.931   0.189  -6.898  1.00  0.00    -0.267 OA
HETATM    7  C16 UNL     1       0.689   1.577  -8.700  1.00  0.00     0.060 A 
HETATM    8  C17 UNL     1      -0.553   1.840  -8.167  1.00  0.00     0.049 A 
HETATM    9  C18 UNL     1      -1.383   2.801  -8.716  1.00  0.00     0.040 A 
HETATM   10  C33 UNL     1      -0.890   3.477  -9.830  1.00  0.00     0.032 A 
HETATM   11  C34 UNL     1       0.354   3.211 -10.361  1.00  0.00     0.032 A 
HETATM   12  C35 UNL     1       1.175   2.252  -9.807  1.00  0.00     0.044 A 
HETATM   13  N10 UNL     1       2.417   2.109 -10.492  1.00  0.00    -0.379 N 
ATOM     14  H10 UNL     1       2.750   2.925 -11.004  1.00  0.00     0.160 HD
ENDROOT
BRANCH   9  15
HETATM   15  N7  UNL     1      -2.667   3.084  -8.187  1.00  0.00    -0.298 N 
HETATM   16  C19 UNL     1      -3.792   2.169  -8.166  1.00  0.00     0.154 C 
HETATM   17  C20 UNL     1      -4.966   3.137  -8.283  1.00  0.00     0.155 C 
HETATM   18  N8  UNL     1      -4.523   4.129  -7.290  1.00  0.00    -0.283 N 
HETATM   19  C32 UNL     1      -3.143   4.297  -7.569  1.00  0.00     0.331 C 
HETATM   20  O2  UNL     1      -2.487   5.331  -7.310  1.00  0.00    -0.246 OA
BRANCH  18  21
HETATM   21  C21 UNL     1      -5.368   4.692  -6.331  1.00  0.00     0.112 A 
HETATM   22  C22 UNL     1      -4.836   5.194  -5.165  1.00  0.00     0.061 A 
HETATM   23  C23 UNL     1      -5.571   5.791  -4.164  1.00  0.00    -0.021 A 
HETATM   24  C30 UNL     1      -6.938   5.873  -4.380  1.00  0.00     0.029 A 
HETATM   25  C31 UNL     1      -7.488   5.368  -5.554  1.00  0.00     0.090 A 
HETATM   26  N9  UNL     1      -6.721   4.794  -6.499  1.00  0.00    -0.352 N 
ATOM     27  H9  UNL     1      -7.153   4.432  -7.349  1.00  0.00     0.166 HD
BRANCH  23  28
HETATM   28  C24 UNL     1      -4.938   6.285  -2.945  1.00  0.00    -0.026 A 
HETATM   29  C25 UNL     1      -5.333   7.537  -2.463  1.00  0.00     0.012 A 
HETATM   30  C26 UNL     1      -4.788   8.056  -1.331  1.00  0.00     0.001 A 
HETATM   31  C27 UNL     1      -3.827   7.333  -0.643  1.00  0.00     0.000 A 
HETATM   32  C28 UNL     1      -3.422   6.077  -1.116  1.00  0.00     0.001 A 
HETATM   33  C29 UNL     1      -3.986   5.562  -2.269  1.00  0.00     0.012 A 
ENDBRANCH  23  28
ENDBRANCH  18  21
ENDBRANCH   9  15
BRANCH   4  34
HETATM   34  C8  UNL     1       2.807  -1.493  -7.975  1.00  0.00     0.128 C 
BRANCH  34  35
HETATM   35  C9  UNL     1       4.190  -1.846  -7.480  1.00  0.00     0.047 C 
BRANCH  35  36
HETATM   36  C10 UNL     1       4.415  -1.520  -6.044  1.00  0.00     0.234 C 
BRANCH  36  37
HETATM   37  N3  UNL     1       4.876  -0.163  -5.884  1.00  0.00    -0.075 N 
ATOM     38  H32 UNL     1       5.853  -0.127  -5.589  1.00  0.00     0.277 HD
ATOM     39  H31 UNL     1       4.970   0.314  -6.780  1.00  0.00     0.277 HD
BRANCH  37  40
HETATM   40  C11 UNL     1       4.018   0.558  -4.980  1.00  0.00     0.234 C 
BRANCH  40  41
HETATM   41  C12 UNL     1       4.040   2.021  -5.404  1.00  0.00     0.047 C 
BRANCH  41  42
HETATM   42  C13 UNL     1       2.697   2.626  -5.105  1.00  0.00     0.123 C 
BRANCH  42  43
HETATM   43  N4  UNL     1       2.402   3.622  -6.138  1.00  0.00    -0.367 N 
HETATM   44  C14 UNL     1       1.241   4.203  -6.183  1.00  0.00     0.196 C 
HETATM   45  N5  UNL     1       0.220   3.900  -5.242  1.00  0.00    -0.067 NA
HETATM   46  N6  UNL     1       0.976   5.164  -7.186  1.00  0.00    -0.067 NA
ATOM     47  H4  UNL     1       3.115   3.861  -6.827  1.00  0.00     0.161 HD
ENDBRANCH  42  43
ENDBRANCH  41  42
ENDBRANCH  40  41
ENDBRANCH  37  40
ENDBRANCH  36  37
ENDBRANCH  35  36
ENDBRANCH  34  35
ENDBRANCH   4  34
BRANCH   2  48
HETATM   48  C3  UNL     1       4.469   1.210 -11.439  1.00  0.00     0.032 C 
BRANCH  48  49
HETATM   49  C4  UNL     1       4.872   0.001 -12.194  1.00  0.00     0.004 C 
BRANCH  49  50
HETATM   50  C5  UNL     1       6.122   0.192 -12.975  1.00  0.00     0.027 C 
BRANCH  50  51
HETATM   51  C6  UNL     1       6.805   1.500 -12.933  1.00  0.00     0.229 C 
BRANCH  51  52
HETATM   52  N1  UNL     1       6.584   2.422 -13.986  1.00  0.00    -0.079 N 
ATOM     53  H13 UNL     1       7.442   2.950 -14.147  1.00  0.00     0.274 HD
ATOM     54  H12 UNL     1       6.501   1.906 -14.863  1.00  0.00     0.274 HD
ATOM     55  H11 UNL     1       5.804   3.076 -13.913  1.00  0.00     0.274 HD
ENDBRANCH  51  52
ENDBRANCH  50  51
ENDBRANCH  49  50
ENDBRANCH  48  49
ENDBRANCH   2  48
TORSDOF 16
ENDMDL
MODEL 4
REMARK VINA RESULT: -8.918866936      3.697     10.983
REMARK  16 active torsions:
REMARK  status: ('A' for Active; 'I' for Inactive)
REMARK    1  A    between atoms: C2_2  and  C3_3 
REMARK    2  A    between atoms: C3_3  and  C4_4 
REMARK    3  A    between atoms: C4_4  and  C5_5 
REMARK    4  A    between atoms: C5_5  and  C6_6 
REMARK    5  A    between atoms: C6_6  and  N1_7 
REMARK    6  A    between atoms: N2_12  and  C8_13 
REMARK    7  A    between atoms: C8_13  and  C9_14 
REMARK    8  A    between atoms: C9_14  and  C10_15 
REMARK    9  A    between atoms: C10_15  and  N3_16 
REMARK   10  A    between atoms: N3_16  and  C11_19 
REMARK   11  A    between atoms: C11_19  and  C12_20 
REMARK   12  A    between atoms: C12_20  and  C13_21 
REMARK   13  A    between atoms: C13_21  and  N4_22 
REMARK   14  A    between atoms: C18_31  and  N7_32 
REMARK   15  A    between atoms: N8_35  and  C21_36 
REMARK   16  A    between atoms: C23_38  and  C24_39 
ROOT
HETATM    1  C1  UNL     1      -5.715   3.725  -4.721  1.00  0.00     0.040 C 
HETATM    2  C2  UNL     1      -5.709   5.040  -5.456  1.00  0.00     0.043 C 
HETATM    3  C7  UNL     1      -6.506   4.901  -6.717  1.00  0.00     0.156 C 
HETATM    4  N2  UNL     1      -6.178   3.740  -7.511  1.00  0.00    -0.345 N 
HETATM    5  C15 UNL     1      -4.886   3.473  -8.085  1.00  0.00     0.256 C 
HETATM    6  O1  UNL     1      -4.841   2.850  -9.155  1.00  0.00    -0.267 OA
HETATM    7  C16 UNL     1      -3.562   3.851  -7.546  1.00  0.00     0.060 A 
HETATM    8  C17 UNL     1      -2.506   3.254  -8.197  1.00  0.00     0.049 A 
HETATM    9  C18 UNL     1      -1.197   3.503  -7.824  1.00  0.00     0.040 A 
HETATM   10  C33 UNL     1      -1.016   4.384  -6.761  1.00  0.00     0.032 A 
HETATM   11  C34 UNL     1      -2.076   4.979  -6.110  1.00  0.00     0.032 A 
HETATM   12  C35 UNL     1      -3.377   4.727  -6.489  1.00  0.00     0.044 A 
HETATM   13  N10 UNL     1      -4.339   5.423  -5.700  1.00  0.00    -0.379 N 
ATOM     14  H10 UNL     1      -4.025   6.288  -5.260  1.00  0.00     0.160 HD
ENDROOT
BRANCH   9  15
HETATM   15  N7  UNL     1      -0.096   2.895  -8.478  1.00  0.00    -0.298 N 
HETATM   16  C19 UNL     1       1.033   3.597  -9.058  1.00  0.00     0.154 C 
HETATM   17  C20 UNL     1       1.397   2.672 -10.216  1.00  0.00     0.155 C 
HETATM   18  N8  UNL     1       1.337   1.391  -9.491  1.00  0.00    -0.283 N 
HETATM   19  C32 UNL     1       0.156   1.495  -8.715  1.00  0.00     0.331 C 
HETATM   20  O2  UNL     1      -0.523   0.520  -8.321  1.00  0.00    -0.246 OA
BRANCH  18  21
HETATM   21  C21 UNL     1       2.300   0.387  -9.616  1.00  0.00     0.112 A 
HETATM   22  C22 UNL     1       2.681  -0.332  -8.507  1.00  0.00     0.061 A 
HETATM   23  C23 UNL     1       3.602  -1.358  -8.520  1.00  0.00    -0.021 A 
HETATM   24  C30 UNL     1       4.162  -1.657  -9.752  1.00  0.00     0.029 A 
HETATM   25  C31 UNL     1       3.785  -0.935 -10.881  1.00  0.00     0.090 A 
HETATM   26  N9  UNL     1       2.880   0.058 -10.809  1.00  0.00    -0.352 N 
ATOM     27  H9  UNL     1       2.625   0.569 -11.654  1.00  0.00     0.166 HD
BRANCH  23  28
HETATM   28  C24 UNL     1       3.971  -2.065  -7.298  1.00  0.00    -0.026 A 
HETATM   29  C25 UNL     1       5.304  -2.000  -6.881  1.00  0.00     0.012 A 
HETATM   30  C26 UNL     1       5.717  -2.632  -5.750  1.00  0.00     0.001 A 
HETATM   31  C27 UNL     1       4.803  -3.351  -4.999  1.00  0.00     0.000 A 
HETATM   32  C28 UNL     1       3.463  -3.425  -5.405  1.00  0.00     0.001 A 
HETATM   33  C29 UNL     1       3.058  -2.777  -6.558  1.00  0.00     0.012 A 
ENDBRANCH  23  28
ENDBRANCH  18  21
ENDBRANCH   9  15
BRANCH   4  34
HETATM   34  C8  UNL     1      -7.196   2.765  -7.756  1.00  0.00     0.128 C 
BRANCH  34  35
HETATM   35  C9  UNL     1      -8.182   3.137  -8.839  1.00  0.00     0.047 C 
BRANCH  35  36
HETATM   36  C10 UNL     1      -9.592   3.213  -8.368  1.00  0.00     0.234 C 
BRANCH  36  37
HETATM   37  N3  UNL     1      -9.701   2.829  -6.983  1.00  0.00    -0.075 N 
ATOM     38  H32 UNL     1      -9.461   1.848  -6.840  1.00  0.00     0.277 HD
ATOM     39  H31 UNL     1      -8.967   3.250  -6.414  1.00  0.00     0.277 HD
BRANCH  37  40
HETATM   40  C11 UNL     1     -11.013   3.137  -6.475  1.00  0.00     0.234 C 
BRANCH  40  41
HETATM   41  C12 UNL     1     -10.949   4.532  -5.867  1.00  0.00     0.047 C 
BRANCH  41  42
HETATM   42  C13 UNL     1      -9.781   4.588  -4.922  1.00  0.00     0.123 C 
BRANCH  42  43
HETATM   43  N4  UNL     1     -10.281   4.959  -3.596  1.00  0.00    -0.367 N 
HETATM   44  C14 UNL     1     -10.420   4.060  -2.668  1.00  0.00     0.196 C 
HETATM   45  N5  UNL     1     -10.096   2.696  -2.898  1.00  0.00    -0.067 NA
HETATM   46  N6  UNL     1     -10.902   4.437  -1.393  1.00  0.00    -0.067 NA
ATOM     47  H4  UNL     1     -10.522   5.930  -3.400  1.00  0.00     0.161 HD
ENDBRANCH  42  43
ENDBRANCH  41  42
ENDBRANCH  40  41
ENDBRANCH  37  40
ENDBRANCH  36  37
ENDBRANCH  35  36
ENDBRANCH  34  35
ENDBRANCH   4  34
BRANCH   2  48
HETATM   48  C3  UNL     1      -6.362   6.052  -4.505  1.00  0.00     0.032 C 
BRANCH  48  49
HETATM   49  C4  UNL     1      -5.479   6.369  -3.359  1.00  0.00     0.004 C 
BRANCH  49  50
HETATM   50  C5  UNL     1      -5.384   7.827  -3.084  1.00  0.00     0.027 C 
BRANCH  50  51
HETATM   51  C6  UNL     1      -4.055   8.467  -3.043  1.00  0.00     0.229 C 
BRANCH  51  52
HETATM   52  N1  UNL     1      -3.361   8.682  -4.260  1.00  0.00    -0.079 N 
ATOM     53  H13 UNL     1      -3.430   9.668  -4.509  1.00  0.00     0.274 HD
ATOM     54  H12 UNL     1      -2.359   8.589  -4.088  1.00  0.00     0.274 HD
ATOM     55  H11 UNL     1      -3.608   8.119  -5.075  1.00  0.00     0.274 HD
ENDBRANCH  51  52
ENDBRANCH  50  51
ENDBRANCH  49  50
ENDBRANCH  48  49
ENDBRANCH   2  48
TORSDOF 16
ENDMDL
MODEL 5
REMARK VINA RESULT: -8.915634161      3.300      5.726
REMARK  16 active torsions:
REMARK  status: ('A' for Active; 'I' for Inactive)
REMARK    1  A    between atoms: C2_2  and  C3_3 
REMARK    2  A    between atoms: C3_3  and  C4_4 
REMARK    3  A    between atoms: C4_4  and  C5_5 
REMARK    4  A    between atoms: C5_5  and  C6_6 
REMARK    5  A    between atoms: C6_6  and  N1_7 
REMARK    6  A    between atoms: N2_12  and  C8_13 
REMARK    7  A    between atoms: C8_13  and  C9_14 
REMARK    8  A    between atoms: C9_14  and  C10_15 
REMARK    9  A    between atoms: C10_15  and  N3_16 
REMARK   10  A    between atoms: N3_16  and  C11_19 
REMARK   11  A    between atoms: C11_19  and  C12_20 
REMARK   12  A    between atoms: C12_20  and  C13_21 
REMARK   13  A    between atoms: C13_21  and  N4_22 
REMARK   14  A    between atoms: C18_31  and  N7_32 
REMARK   15  A    between atoms: N8_35  and  C21_36 
REMARK   16  A    between atoms: C23_38  and  C24_39 
ROOT
HETATM    1  C1  UNL     1       3.291  -1.292  -9.346  1.00  0.00     0.040 C 
HETATM    2  C2  UNL     1       4.584  -1.223  -8.575  1.00  0.00     0.043 C 
HETATM    3  C7  UNL     1       4.380  -1.823  -7.218  1.00  0.00     0.156 C 
HETATM    4  N2  UNL     1       3.211  -1.345  -6.519  1.00  0.00    -0.345 N 
HETATM    5  C15 UNL     1       2.975   0.024  -6.147  1.00  0.00     0.256 C 
HETATM    6  O1  UNL     1       2.325   0.245  -5.116  1.00  0.00    -0.267 OA
HETATM    7  C16 UNL     1       3.418   1.243  -6.858  1.00  0.00     0.060 A 
HETATM    8  C17 UNL     1       2.843   2.402  -6.386  1.00  0.00     0.049 A 
HETATM    9  C18 UNL     1       3.151   3.633  -6.935  1.00  0.00     0.040 A 
HETATM   10  C33 UNL     1       4.067   3.629  -7.984  1.00  0.00     0.032 A 
HETATM   11  C34 UNL     1       4.641   2.467  -8.454  1.00  0.00     0.032 A 
HETATM   12  C35 UNL     1       4.330   1.243  -7.901  1.00  0.00     0.044 A 
HETATM   13  N10 UNL     1       5.011   0.155  -8.519  1.00  0.00    -0.379 N 
ATOM     14  H10 UNL     1       5.899   0.373  -8.971  1.00  0.00     0.160 HD
ENDROOT
BRANCH   9  15
HETATM   15  N7  UNL     1       2.566   4.838  -6.468  1.00  0.00    -0.298 N 
HETATM   16  C19 UNL     1       3.262   6.096  -6.279  1.00  0.00     0.154 C 
HETATM   17  C20 UNL     1       2.487   6.693  -5.108  1.00  0.00     0.155 C 
HETATM   18  N8  UNL     1       1.125   6.418  -5.594  1.00  0.00    -0.283 N 
HETATM   19  C32 UNL     1       1.200   5.090  -6.083  1.00  0.00     0.331 C 
HETATM   20  O2  UNL     1       0.228   4.304  -6.154  1.00  0.00    -0.246 OA
BRANCH  18  21
HETATM   21  C21 UNL     1       0.084   7.348  -5.541  1.00  0.00     0.112 A 
HETATM   22  C22 UNL     1      -0.819   7.300  -4.504  1.00  0.00     0.061 A 
HETATM   23  C23 UNL     1      -1.867   8.180  -4.339  1.00  0.00    -0.021 A 
HETATM   24  C30 UNL     1      -1.989   9.167  -5.305  1.00  0.00     0.029 A 
HETATM   25  C31 UNL     1      -1.083   9.225  -6.359  1.00  0.00     0.090 A 
HETATM   26  N9  UNL     1      -0.077   8.338  -6.469  1.00  0.00    -0.352 N 
ATOM     27  H9  UNL     1       0.571   8.406  -7.254  1.00  0.00     0.166 HD
BRANCH  23  28
HETATM   28  C24 UNL     1      -2.798   8.056  -3.223  1.00  0.00    -0.026 A 
HETATM   29  C25 UNL     1      -4.030   8.710  -3.321  1.00  0.00     0.012 A 
HETATM   30  C26 UNL     1      -4.947   8.634  -2.319  1.00  0.00     0.001 A 
HETATM   31  C27 UNL     1      -4.656   7.896  -1.184  1.00  0.00     0.000 A 
HETATM   32  C28 UNL     1      -3.424   7.236  -1.072  1.00  0.00     0.001 A 
HETATM   33  C29 UNL     1      -2.502   7.323  -2.099  1.00  0.00     0.012 A 
ENDBRANCH  23  28
ENDBRANCH  18  21
ENDBRANCH   9  15
BRANCH   4  34
HETATM   34  C8  UNL     1       2.191  -2.285  -6.162  1.00  0.00     0.128 C 
BRANCH  34  35
HETATM   35  C9  UNL     1       1.165  -2.544  -7.240  1.00  0.00     0.047 C 
BRANCH  35  36
HETATM   36  C10 UNL     1      -0.016  -1.638  -7.176  1.00  0.00     0.234 C 
BRANCH  36  37
HETATM   37  N3  UNL     1      -0.130  -0.844  -8.374  1.00  0.00    -0.075 N 
ATOM     38  H32 UNL     1       0.548  -1.125  -9.082  1.00  0.00     0.277 HD
ATOM     39  H31 UNL     1      -0.985  -1.056  -8.889  1.00  0.00     0.277 HD
BRANCH  37  40
HETATM   40  C11 UNL     1      -0.028   0.558  -8.062  1.00  0.00     0.234 C 
BRANCH  40  41
HETATM   41  C12 UNL     1       0.718   1.225  -9.210  1.00  0.00     0.047 C 
BRANCH  41  42
HETATM   42  C13 UNL     1       0.320   2.674  -9.261  1.00  0.00     0.123 C 
BRANCH  42  43
HETATM   43  N4  UNL     1      -0.887   2.846  -8.448  1.00  0.00    -0.367 N 
HETATM   44  C14 UNL     1      -1.939   3.427  -8.943  1.00  0.00     0.196 C 
HETATM   45  N5  UNL     1      -1.961   3.913 -10.278  1.00  0.00    -0.067 NA
HETATM   46  N6  UNL     1      -3.095   3.582  -8.145  1.00  0.00    -0.067 NA
ATOM     47  H4  UNL     1      -0.901   2.508  -7.486  1.00  0.00     0.161 HD
ENDBRANCH  42  43
ENDBRANCH  41  42
ENDBRANCH  40  41
ENDBRANCH  37  40
ENDBRANCH  36  37
ENDBRANCH  35  36
ENDBRANCH  34  35
ENDBRANCH   4  34
BRANCH   2  48
HETATM   48  C3  UNL     1       5.598  -2.040  -9.388  1.00  0.00     0.032 C 
BRANCH  48  49
HETATM   49  C4  UNL     1       5.410  -1.846 -10.845  1.00  0.00     0.004 C 
BRANCH  49  50
HETATM   50  C5  UNL     1       6.605  -1.267 -11.513  1.00  0.00     0.027 C 
BRANCH  50  51
HETATM   51  C6  UNL     1       6.421  -0.237 -12.553  1.00  0.00     0.229 C 
BRANCH  51  52
HETATM   52  N1  UNL     1       7.282  -0.239 -13.679  1.00  0.00    -0.079 N 
ATOM     53  H13 UNL     1       7.782   0.649 -13.712  1.00  0.00     0.274 HD
ATOM     54  H12 UNL     1       8.047  -0.891 -13.507  1.00  0.00     0.274 HD
ATOM     55  H11 UNL     1       6.888  -0.429 -14.600  1.00  0.00     0.274 HD
ENDBRANCH  51  52
ENDBRANCH  50  51
ENDBRANCH  49  50
ENDBRANCH  48  49
ENDBRANCH   2  48
TORSDOF 16
ENDMDL
