MODEL 1
REMARK VINA RESULT: -8.616398083      0.000      0.000
REMARK  16 active torsions:
REMARK  status: ('A' for Active; 'I' for Inactive)
REMARK    1  A    between atoms: C2_2  and  C3_3 
REMARK    2  A    between atoms: C3_3  and  C4_4 
REMARK       I    between atoms: C4_4  and  N1_6 
REMARK    3  A    between atoms: N1_6  and  C5_8 
REMARK    4  A    between atoms: C5_8  and  C6_9 
REMARK    5  A    between atoms: N2_11  and  C8_12 
REMARK    6  A    between atoms: C11_15  and  N3_16 
REMARK    7  A    between atoms: C17_23  and  N4_24 
REMARK       I    between atoms: N4_24  and  C18_26 
REMARK    8  A    between atoms: C18_26  and  C19_28 
REMARK    9  A    between atoms: C19_28  and  C20_29 
REMARK   10  A    between atoms: C20_29  and  C21_30 
REMARK   11  A    between atoms: C24_35  and  C25_36 
REMARK   12  A    between atoms: C25_36  and  C26_37 
REMARK   13  A    between atoms: C26_37  and  C27_38 
REMARK   14  A    between atoms: C27_38  and  N5_39 
REMARK   15  A    between atoms: C30_45  and  C32_47 
REMARK       I    between atoms: C32_47  and  N6_49 
REMARK   16  A    between atoms: N6_49  and  C33_51 
ROOT
HETATM    1  N3  UNL     1      -2.588   5.609  -4.911  1.00  0.00    -0.305 N 
HETATM    2  C12 UNL     1      -3.640   4.909  -5.525  1.00  0.00     0.260 C 
HETATM    3  O2  UNL     1      -3.558   4.021  -6.424  1.00  0.00    -0.267 OA
HETATM    4  C13 UNL     1      -4.888   5.402  -4.921  1.00  0.00     0.049 A 
HETATM    5  C14 UNL     1      -4.560   6.352  -3.978  1.00  0.00    -0.018 A 
HETATM    6  C15 UNL     1      -5.584   7.042  -3.336  1.00  0.00     0.012 A 
HETATM    7  C16 UNL     1      -6.878   6.737  -3.672  1.00  0.00     0.031 A 
HETATM    8  C17 UNL     1      -7.255   5.799  -4.598  1.00  0.00     0.041 A 
HETATM    9  C22 UNL     1      -6.199   5.110  -5.241  1.00  0.00    -0.019 A 
HETATM   10  C23 UNL     1      -6.568   4.092  -6.251  1.00  0.00     0.052 C 
HETATM   11  C24 UNL     1      -3.090   6.362  -3.807  1.00  0.00     0.127 C 
ENDROOT
BRANCH   1  12
HETATM   12  C11 UNL     1      -1.240   5.519  -5.410  1.00  0.00     0.038 A 
HETATM   13  C10 UNL     1      -0.289   6.443  -5.043  1.00  0.00     0.032 A 
HETATM   14  C9  UNL     1       0.996   6.354  -5.529  1.00  0.00     0.031 A 
HETATM   15  C8  UNL     1       1.401   5.356  -6.391  1.00  0.00     0.031 A 
HETATM   16  C29 UNL     1       0.435   4.438  -6.749  1.00  0.00     0.031 A 
HETATM   17  C28 UNL     1      -0.857   4.516  -6.271  1.00  0.00     0.032 A 
BRANCH  15  18
HETATM   18  N2  UNL     1       2.765   5.277  -6.887  1.00  0.00    -0.362 N 
HETATM   19  C7  UNL     1       3.663   6.319  -7.260  1.00  0.00     0.133 A 
HETATM   20  C6  UNL     1       4.683   5.328  -7.678  1.00  0.00     0.059 A 
HETATM   21  C30 UNL     1       3.727   4.295  -7.193  1.00  0.00     0.117 A 
HETATM   22  C31 UNL     1       4.212   3.568  -5.948  1.00  0.00     0.049 C 
BRANCH  20  23
HETATM   23  C5  UNL     1       5.991   5.477  -6.928  1.00  0.00     0.132 C 
BRANCH  23  24
HETATM   24  N1  UNL     1       7.119   5.767  -7.750  1.00  0.00    -0.361 N 
HETATM   25  C4  UNL     1       7.450   7.038  -8.268  1.00  0.00     0.217 C 
HETATM   26  O1  UNL     1       6.703   8.009  -7.997  1.00  0.00    -0.274 OA
ATOM     27  H1  UNL     1       7.740   4.992  -7.982  1.00  0.00     0.162 HD
BRANCH  25  28
HETATM   28  C3  UNL     1       8.642   7.230  -9.109  1.00  0.00     0.102 C 
BRANCH  28  29
HETATM   29  C2  UNL     1       8.698   6.273 -10.268  1.00  0.00     0.005 C 
HETATM   30  C1  UNL     1       7.585   6.583 -11.243  1.00  0.00     0.005 C 
ENDBRANCH  28  29
ENDBRANCH  25  28
ENDBRANCH  23  24
ENDBRANCH  20  23
BRANCH  21  31
HETATM   31  C32 UNL     1       3.382   3.263  -8.215  1.00  0.00     0.246 C 
HETATM   32  O6  UNL     1       3.562   2.063  -7.859  1.00  0.00    -0.271 OA
HETATM   33  N6  UNL     1       2.891   3.530  -9.495  1.00  0.00    -0.359 N 
ATOM     34  H6  UNL     1       2.750   4.499  -9.778  1.00  0.00     0.162 HD
BRANCH  33  35
HETATM   35  C33 UNL     1       2.580   2.488 -10.418  1.00  0.00     0.118 C 
HETATM   36  C34 UNL     1       1.118   2.111 -10.426  1.00  0.00     0.026 C 
ENDBRANCH  33  35
ENDBRANCH  21  31
ENDBRANCH  15  18
ENDBRANCH   1  12
BRANCH  11  37
HETATM   37  C25 UNL     1      -2.680   5.731  -2.490  1.00  0.00     0.032 C 
BRANCH  37  38
HETATM   38  C26 UNL     1      -1.901   6.596  -1.577  1.00  0.00     0.029 C 
BRANCH  38  39
HETATM   39  C27 UNL     1      -2.697   7.755  -1.017  1.00  0.00     0.230 C 
BRANCH  39  40
HETATM   40  N5  UNL     1      -3.765   7.172  -0.199  1.00  0.00    -0.079 N 
ATOM     41  H53 UNL     1      -3.635   6.178  -0.014  1.00  0.00     0.274 HD
ATOM     42  H52 UNL     1      -3.748   7.486   0.772  1.00  0.00     0.274 HD
ATOM     43  H51 UNL     1      -4.644   7.381  -0.675  1.00  0.00     0.274 HD
ENDBRANCH  39  40
ENDBRANCH  38  39
ENDBRANCH  37  38
ENDBRANCH  11  37
BRANCH   8  44
HETATM   44  N4  UNL     1      -8.581   5.480  -4.927  1.00  0.00    -0.327 N 
HETATM   45  C18 UNL     1      -9.349   4.482  -4.347  1.00  0.00     0.222 C 
HETATM   46  O3  UNL     1      -9.016   3.705  -3.448  1.00  0.00    -0.273 OA
ATOM     47  H4  UNL     1      -9.021   6.033  -5.662  1.00  0.00     0.169 HD
BRANCH  45  48
HETATM   48  C19 UNL     1     -10.765   4.315  -4.867  1.00  0.00     0.113 C 
BRANCH  48  49
HETATM   49  C20 UNL     1     -10.796   4.471  -6.352  1.00  0.00     0.122 C 
BRANCH  49  50
HETATM   50  C21 UNL     1     -10.403   3.201  -6.999  1.00  0.00     0.172 C 
HETATM   51  O4  UNL     1     -10.709   2.112  -6.468  1.00  0.00    -0.648 OA
HETATM   52  O5  UNL     1      -9.698   3.249  -8.191  1.00  0.00    -0.648 OA
ENDBRANCH  49  50
ENDBRANCH  48  49
ENDBRANCH  45  48
ENDBRANCH   8  44
TORSDOF 16
ENDMDL
MODEL 2
REMARK VINA RESULT: -8.398038469      0.935      1.416
REMARK  16 active torsions:
REMARK  status: ('A' for Active; 'I' for Inactive)
REMARK    1  A    between atoms: C2_2  and  C3_3 
REMARK    2  A    between atoms: C3_3  and  C4_4 
REMARK       I    between atoms: C4_4  and  N1_6 
REMARK    3  A    between atoms: N1_6  and  C5_8 
REMARK    4  A    between atoms: C5_8  and  C6_9 
REMARK    5  A    between atoms: N2_11  and  C8_12 
REMARK    6  A    between atoms: C11_15  and  N3_16 
REMARK    7  A    between atoms: C17_23  and  N4_24 
REMARK       I    between atoms: N4_24  and  C18_26 
REMARK    8  A    between atoms: C18_26  and  C19_28 
REMARK    9  A    between atoms: C19_28  and  C20_29 
REMARK   10  A    between atoms: C20_29  and  C21_30 
REMARK   11  A    between atoms: C24_35  and  C25_36 
REMARK   12  A    between atoms: C25_36  and  C26_37 
REMARK   13  A    between atoms: C26_37  and  C27_38 
REMARK   14  A    between atoms: C27_38  and  N5_39 
REMARK   15  A    between atoms: C30_45  and  C32_47 
REMARK       I    between atoms: C32_47  and  N6_49 
REMARK   16  A    between atoms: N6_49  and  C33_51 
ROOT
HETATM    1  N3  UNL     1      -2.622   5.558  -4.989  1.00  0.00    -0.305 N 
HETATM    2  C12 UNL     1      -3.646   4.844  -5.631  1.00  0.00     0.260 C 
HETATM    3  O2  UNL     1      -3.529   3.969  -6.540  1.00  0.00    -0.267 OA
HETATM    4  C13 UNL     1      -4.916   5.303  -5.046  1.00  0.00     0.049 A 
HETATM    5  C14 UNL     1      -4.626   6.248  -4.085  1.00  0.00    -0.018 A 
HETATM    6  C15 UNL     1      -5.676   6.908  -3.455  1.00  0.00     0.012 A 
HETATM    7  C16 UNL     1      -6.957   6.581  -3.820  1.00  0.00     0.031 A 
HETATM    8  C17 UNL     1      -7.297   5.647  -4.764  1.00  0.00     0.041 A 
HETATM    9  C22 UNL     1      -6.214   4.989  -5.395  1.00  0.00    -0.019 A 
HETATM   10  C23 UNL     1      -6.542   3.976  -6.423  1.00  0.00     0.052 C 
HETATM   11  C24 UNL     1      -3.160   6.286  -3.885  1.00  0.00     0.127 C 
ENDROOT
BRANCH   1  12
HETATM   12  C11 UNL     1      -1.262   5.502  -5.463  1.00  0.00     0.038 A 
HETATM   13  C10 UNL     1      -0.855   4.506  -6.321  1.00  0.00     0.032 A 
HETATM   14  C9  UNL     1       0.448   4.456  -6.764  1.00  0.00     0.031 A 
HETATM   15  C8  UNL     1       1.401   5.378  -6.387  1.00  0.00     0.031 A 
HETATM   16  C29 UNL     1       0.976   6.369  -5.527  1.00  0.00     0.031 A 
HETATM   17  C28 UNL     1      -0.326   6.431  -5.073  1.00  0.00     0.032 A 
BRANCH  15  18
HETATM   18  N2  UNL     1       2.769   5.309  -6.872  1.00  0.00    -0.362 N 
HETATM   19  C7  UNL     1       3.653   6.356  -7.263  1.00  0.00     0.133 A 
HETATM   20  C6  UNL     1       4.692   5.373  -7.652  1.00  0.00     0.059 A 
HETATM   21  C30 UNL     1       3.749   4.335  -7.151  1.00  0.00     0.117 A 
HETATM   22  C31 UNL     1       4.236   3.644  -5.886  1.00  0.00     0.049 C 
BRANCH  20  23
HETATM   23  C5  UNL     1       5.992   5.558  -6.898  1.00  0.00     0.132 C 
BRANCH  23  24
HETATM   24  N1  UNL     1       7.129   5.803  -7.722  1.00  0.00    -0.361 N 
HETATM   25  C4  UNL     1       7.482   7.049  -8.284  1.00  0.00     0.217 C 
HETATM   26  O1  UNL     1       6.747   8.040  -8.053  1.00  0.00    -0.274 OA
ATOM     27  H1  UNL     1       7.740   5.010  -7.922  1.00  0.00     0.162 HD
BRANCH  25  28
HETATM   28  C3  UNL     1       8.682   7.193  -9.124  1.00  0.00     0.102 C 
BRANCH  28  29
HETATM   29  C2  UNL     1       8.705   6.229 -10.277  1.00  0.00     0.005 C 
HETATM   30  C1  UNL     1       7.604   6.573 -11.256  1.00  0.00     0.005 C 
ENDBRANCH  28  29
ENDBRANCH  25  28
ENDBRANCH  23  24
ENDBRANCH  20  23
BRANCH  21  31
HETATM   31  C32 UNL     1       3.426   3.276  -8.151  1.00  0.00     0.246 C 
HETATM   32  O6  UNL     1       3.587   2.086  -7.755  1.00  0.00    -0.271 OA
HETATM   33  N6  UNL     1       2.974   3.508  -9.452  1.00  0.00    -0.359 N 
ATOM     34  H6  UNL     1       2.849   4.469  -9.768  1.00  0.00     0.162 HD
BRANCH  33  35
HETATM   35  C33 UNL     1       2.684   2.441 -10.353  1.00  0.00     0.118 C 
HETATM   36  C34 UNL     1       1.223   2.056 -10.374  1.00  0.00     0.026 C 
ENDBRANCH  33  35
ENDBRANCH  21  31
ENDBRANCH  15  18
ENDBRANCH   1  12
BRANCH  11  37
HETATM   37  C25 UNL     1      -2.762   5.647  -2.568  1.00  0.00     0.032 C 
BRANCH  37  38
HETATM   38  C26 UNL     1      -1.986   6.505  -1.646  1.00  0.00     0.029 C 
BRANCH  38  39
HETATM   39  C27 UNL     1      -2.761   7.702  -1.138  1.00  0.00     0.230 C 
BRANCH  39  40
HETATM   40  N5  UNL     1      -3.810   7.178  -0.257  1.00  0.00    -0.079 N 
ATOM     41  H53 UNL     1      -4.740   7.527  -0.485  1.00  0.00     0.274 HD
ATOM     42  H52 UNL     1      -4.005   6.188  -0.407  1.00  0.00     0.274 HD
ATOM     43  H51 UNL     1      -3.522   7.392   0.698  1.00  0.00     0.274 HD
ENDBRANCH  39  40
ENDBRANCH  38  39
ENDBRANCH  37  38
ENDBRANCH  11  37
BRANCH   8  44
HETATM   44  N4  UNL     1      -8.609   5.305  -5.123  1.00  0.00    -0.327 N 
HETATM   45  C18 UNL     1      -9.422   4.392  -4.469  1.00  0.00     0.222 C 
HETATM   46  O3  UNL     1      -9.150   3.725  -3.467  1.00  0.00    -0.273 OA
ATOM     47  H4  UNL     1      -9.001   5.771  -5.941  1.00  0.00     0.169 HD
BRANCH  45  48
HETATM   48  C19 UNL     1     -10.812   4.179  -5.040  1.00  0.00     0.113 C 
BRANCH  48  49
HETATM   49  C20 UNL     1     -11.664   3.427  -4.070  1.00  0.00     0.122 C 
BRANCH  49  50
HETATM   50  C21 UNL     1     -13.075   3.459  -4.509  1.00  0.00     0.172 C 
HETATM   51  O4  UNL     1     -13.369   3.135  -5.680  1.00  0.00    -0.648 OA
HETATM   52  O5  UNL     1     -14.048   3.851  -3.603  1.00  0.00    -0.648 OA
ENDBRANCH  49  50
ENDBRANCH  48  49
ENDBRANCH  45  48
ENDBRANCH   8  44
TORSDOF 16
ENDMDL
MODEL 3
REMARK VINA RESULT: -8.344813496      1.515      1.946
REMARK  16 active torsions:
REMARK  status: ('A' for Active; 'I' for Inactive)
REMARK    1  A    between atoms: C2_2  and  C3_3 
REMARK    2  A    between atoms: C3_3  and  C4_4 
REMARK       I    between atoms: C4_4  and  N1_6 
REMARK    3  A    between atoms: N1_6  and  C5_8 
REMARK    4  A    between atoms: C5_8  and  C6_9 
REMARK    5  A    between atoms: N2_11  and  C8_12 
REMARK    6  A    between atoms: C11_15  and  N3_16 
REMARK    7  A    between atoms: C17_23  and  N4_24 
REMARK       I    between atoms: N4_24  and  C18_26 
REMARK    8  A    between atoms: C18_26  and  C19_28 
REMARK    9  A    between atoms: C19_28  and  C20_29 
REMARK   10  A    between atoms: C20_29  and  C21_30 
REMARK   11  A    between atoms: C24_35  and  C25_36 
REMARK   12  A    between atoms: C25_36  and  C26_37 
REMARK   13  A    between atoms: C26_37  and  C27_38 
REMARK   14  A    between atoms: C27_38  and  N5_39 
REMARK   15  A    between atoms: C30_45  and  C32_47 
REMARK       I    between atoms: C32_47  and  N6_49 
REMARK   16  A    between atoms: N6_49  and  C33_51 
ROOT
HETATM    1  N3  UNL     1      -3.548   5.412  -5.100  1.00  0.00    -0.305 N 
HETATM    2  C12 UNL     1      -4.478   4.680  -5.856  1.00  0.00     0.260 C 
HETATM    3  O2  UNL     1      -4.244   3.875  -6.805  1.00  0.00    -0.267 OA
HETATM    4  C13 UNL     1      -5.811   5.021  -5.335  1.00  0.00     0.049 A 
HETATM    5  C14 UNL     1      -5.649   5.917  -4.300  1.00  0.00    -0.018 A 
HETATM    6  C15 UNL     1      -6.780   6.469  -3.707  1.00  0.00     0.012 A 
HETATM    7  C16 UNL     1      -8.010   6.088  -4.181  1.00  0.00     0.031 A 
HETATM    8  C17 UNL     1      -8.223   5.200  -5.202  1.00  0.00     0.041 A 
HETATM    9  C22 UNL     1      -7.060   4.651  -5.794  1.00  0.00    -0.019 A 
HETATM   10  C23 UNL     1      -7.252   3.689  -6.903  1.00  0.00     0.052 C 
HETATM   11  C24 UNL     1      -4.205   6.032  -3.995  1.00  0.00     0.127 C 
ENDROOT
BRANCH   1  12
HETATM   12  C11 UNL     1      -2.159   5.470  -5.479  1.00  0.00     0.038 A 
HETATM   13  C10 UNL     1      -1.561   4.416  -6.130  1.00  0.00     0.032 A 
HETATM   14  C9  UNL     1      -0.231   4.476  -6.483  1.00  0.00     0.031 A 
HETATM   15  C8  UNL     1       0.563   5.571  -6.215  1.00  0.00     0.031 A 
HETATM   16  C29 UNL     1      -0.052   6.620  -5.563  1.00  0.00     0.031 A 
HETATM   17  C28 UNL     1      -1.383   6.572  -5.202  1.00  0.00     0.032 A 
BRANCH  15  18
HETATM   18  N2  UNL     1       1.963   5.617  -6.603  1.00  0.00    -0.362 N 
HETATM   19  C7  UNL     1       2.852   6.727  -6.686  1.00  0.00     0.133 A 
HETATM   20  C6  UNL     1       3.934   5.858  -7.208  1.00  0.00     0.059 A 
HETATM   21  C30 UNL     1       2.978   4.732  -7.018  1.00  0.00     0.117 A 
HETATM   22  C31 UNL     1       3.389   3.779  -5.907  1.00  0.00     0.049 C 
BRANCH  20  23
HETATM   23  C5  UNL     1       5.174   5.875  -6.339  1.00  0.00     0.132 C 
BRANCH  23  24
HETATM   24  N1  UNL     1       6.398   5.675  -7.042  1.00  0.00    -0.361 N 
HETATM   25  C4  UNL     1       7.067   6.649  -7.816  1.00  0.00     0.217 C 
HETATM   26  O1  UNL     1       6.562   7.793  -7.907  1.00  0.00    -0.274 OA
ATOM     27  H1  UNL     1       6.826   4.751  -6.982  1.00  0.00     0.162 HD
BRANCH  25  28
HETATM   28  C3  UNL     1       8.330   6.336  -8.504  1.00  0.00     0.102 C 
BRANCH  28  29
HETATM   29  C2  UNL     1       8.419   6.957  -9.870  1.00  0.00     0.005 C 
HETATM   30  C1  UNL     1       7.543   6.193 -10.839  1.00  0.00     0.005 C 
ENDBRANCH  28  29
ENDBRANCH  25  28
ENDBRANCH  23  24
ENDBRANCH  20  23
BRANCH  21  31
HETATM   31  C32 UNL     1       2.747   3.921  -8.249  1.00  0.00     0.246 C 
HETATM   32  O6  UNL     1       3.241   2.757  -8.236  1.00  0.00    -0.271 OA
HETATM   33  N6  UNL     1       2.045   4.351  -9.378  1.00  0.00    -0.359 N 
ATOM     34  H6  UNL     1       1.651   5.292  -9.385  1.00  0.00     0.162 HD
BRANCH  33  35
HETATM   35  C33 UNL     1       1.862   3.516 -10.519  1.00  0.00     0.118 C 
HETATM   36  C34 UNL     1       0.550   2.769 -10.511  1.00  0.00     0.026 C 
ENDBRANCH  33  35
ENDBRANCH  21  31
ENDBRANCH  15  18
ENDBRANCH   1  12
BRANCH  11  37
HETATM   37  C25 UNL     1      -3.855   5.334  -2.695  1.00  0.00     0.032 C 
BRANCH  37  38
HETATM   38  C26 UNL     1      -3.343   6.205  -1.615  1.00  0.00     0.029 C 
BRANCH  38  39
HETATM   39  C27 UNL     1      -1.833   6.320  -1.597  1.00  0.00     0.230 C 
BRANCH  39  40
HETATM   40  N5  UNL     1      -1.310   5.034  -2.069  1.00  0.00    -0.079 N 
ATOM     41  H53 UNL     1      -1.915   4.245  -1.841  1.00  0.00     0.274 HD
ATOM     42  H52 UNL     1      -1.344   4.933  -3.083  1.00  0.00     0.274 HD
ATOM     43  H51 UNL     1      -0.369   4.944  -1.686  1.00  0.00     0.274 HD
ENDBRANCH  39  40
ENDBRANCH  38  39
ENDBRANCH  37  38
ENDBRANCH  11  37
BRANCH   8  44
HETATM   44  N4  UNL     1      -9.483   4.801  -5.673  1.00  0.00    -0.327 N 
HETATM   45  C18 UNL     1     -10.397   4.012  -4.992  1.00  0.00     0.222 C 
HETATM   46  O3  UNL     1     -10.276   3.522  -3.866  1.00  0.00    -0.273 OA
ATOM     47  H4  UNL     1      -9.752   5.123  -6.603  1.00  0.00     0.169 HD
BRANCH  45  48
HETATM   48  C19 UNL     1     -11.703   3.706  -5.703  1.00  0.00     0.113 C 
BRANCH  48  49
HETATM   49  C20 UNL     1     -12.605   2.912  -4.815  1.00  0.00     0.122 C 
BRANCH  49  50
HETATM   50  C21 UNL     1     -13.943   3.538  -4.768  1.00  0.00     0.172 C 
HETATM   51  O4  UNL     1     -14.187   4.538  -5.478  1.00  0.00    -0.648 OA
HETATM   52  O5  UNL     1     -14.905   2.997  -3.930  1.00  0.00    -0.648 OA
ENDBRANCH  49  50
ENDBRANCH  48  49
ENDBRANCH  45  48
ENDBRANCH   8  44
TORSDOF 16
ENDMDL
MODEL 4
REMARK VINA RESULT: -7.946259043      0.975      1.036
REMARK  16 active torsions:
REMARK  status: ('A' for Active; 'I' for Inactive)
REMARK    1  A    between atoms: C2_2  and  C3_3 
REMARK    2  A    between atoms: C3_3  and  C4_4 
REMARK       I    between atoms: C4_4  and  N1_6 
REMARK    3  A    between atoms: N1_6  and  C5_8 
REMARK    4  A    between atoms: C5_8  and  C6_9 
REMARK    5  A    between atoms: N2_11  and  C8_12 
REMARK    6  A    between atoms: C11_15  and  N3_16 
REMARK    7  A    between atoms: C17_23  and  N4_24 
REMARK       I    between atoms: N4_24  and  C18_26 
REMARK    8  A    between atoms: C18_26  and  C19_28 
REMARK    9  A    between atoms: C19_28  and  C20_29 
REMARK   10  A    between atoms: C20_29  and  C21_30 
REMARK   11  A    between atoms: C24_35  and  C25_36 
REMARK   12  A    between atoms: C25_36  and  C26_37 
REMARK   13  A    between atoms: C26_37  and  C27_38 
REMARK   14  A    between atoms: C27_38  and  N5_39 
REMARK   15  A    between atoms: C30_45  and  C32_47 
REMARK       I    between atoms: C32_47  and  N6_49 
REMARK   16  A    between atoms: N6_49  and  C33_51 
ROOT
HETATM    1  N3  UNL     1      -2.483   5.605  -4.934  1.00  0.00    -0.305 N 
HETATM    2  C12 UNL     1      -3.556   4.910  -5.514  1.00  0.00     0.260 C 
HETATM    3  O2  UNL     1      -3.505   3.992  -6.385  1.00  0.00    -0.267 OA
HETATM    4  C13 UNL     1      -4.786   5.450  -4.913  1.00  0.00     0.049 A 
HETATM    5  C14 UNL     1      -4.427   6.422  -4.004  1.00  0.00    -0.018 A 
HETATM    6  C15 UNL     1      -5.427   7.154  -3.374  1.00  0.00     0.012 A 
HETATM    7  C16 UNL     1      -6.732   6.869  -3.687  1.00  0.00     0.031 A 
HETATM    8  C17 UNL     1      -7.141   5.911  -4.578  1.00  0.00     0.041 A 
HETATM    9  C22 UNL     1      -6.107   5.178  -5.210  1.00  0.00    -0.019 A 
HETATM   10  C23 UNL     1      -6.510   4.137  -6.182  1.00  0.00     0.052 C 
HETATM   11  C24 UNL     1      -2.955   6.403  -3.849  1.00  0.00     0.127 C 
ENDROOT
BRANCH   1  12
HETATM   12  C11 UNL     1      -1.142   5.468  -5.444  1.00  0.00     0.038 A 
HETATM   13  C10 UNL     1      -0.145   6.327  -5.045  1.00  0.00     0.032 A 
HETATM   14  C9  UNL     1       1.133   6.194  -5.541  1.00  0.00     0.031 A 
HETATM   15  C8  UNL     1       1.483   5.214  -6.446  1.00  0.00     0.031 A 
HETATM   16  C29 UNL     1       0.471   4.361  -6.836  1.00  0.00     0.031 A 
HETATM   17  C28 UNL     1      -0.813   4.483  -6.347  1.00  0.00     0.032 A 
BRANCH  15  18
HETATM   18  N2  UNL     1       2.840   5.087  -6.953  1.00  0.00    -0.362 N 
HETATM   19  C7  UNL     1       3.499   5.811  -7.988  1.00  0.00     0.133 A 
HETATM   20  C6  UNL     1       4.714   4.975  -7.837  1.00  0.00     0.059 A 
HETATM   21  C30 UNL     1       3.995   4.317  -6.712  1.00  0.00     0.117 A 
HETATM   22  C31 UNL     1       4.605   4.620  -5.352  1.00  0.00     0.049 C 
BRANCH  20  23
HETATM   23  C5  UNL     1       5.948   5.785  -7.498  1.00  0.00     0.132 C 
BRANCH  23  24
HETATM   24  N1  UNL     1       7.048   5.594  -8.384  1.00  0.00    -0.361 N 
HETATM   25  C4  UNL     1       7.722   6.616  -9.088  1.00  0.00     0.217 C 
HETATM   26  O1  UNL     1       7.337   7.801  -8.937  1.00  0.00    -0.274 OA
ATOM     27  H1  UNL     1       7.377   4.637  -8.522  1.00  0.00     0.162 HD
BRANCH  25  28
HETATM   28  C3  UNL     1       8.850   6.309  -9.981  1.00  0.00     0.102 C 
BRANCH  28  29
HETATM   29  C2  UNL     1       8.558   6.628 -11.421  1.00  0.00     0.005 C 
HETATM   30  C1  UNL     1       7.346   5.850 -11.883  1.00  0.00     0.005 C 
ENDBRANCH  28  29
ENDBRANCH  25  28
ENDBRANCH  23  24
ENDBRANCH  20  23
BRANCH  21  31
HETATM   31  C32 UNL     1       3.893   2.834  -6.843  1.00  0.00     0.246 C 
HETATM   32  O6  UNL     1       4.585   2.166  -6.023  1.00  0.00    -0.271 OA
HETATM   33  N6  UNL     1       3.110   2.160  -7.784  1.00  0.00    -0.359 N 
ATOM     34  H6  UNL     1       2.556   2.704  -8.445  1.00  0.00     0.162 HD
BRANCH  33  35
HETATM   35  C33 UNL     1       3.063   0.736  -7.847  1.00  0.00     0.118 C 
HETATM   36  C34 UNL     1       1.903   0.142  -7.085  1.00  0.00     0.026 C 
ENDBRANCH  33  35
ENDBRANCH  21  31
ENDBRANCH  15  18
ENDBRANCH   1  12
BRANCH  11  37
HETATM   37  C25 UNL     1      -2.545   5.805  -2.517  1.00  0.00     0.032 C 
BRANCH  37  38
HETATM   38  C26 UNL     1      -1.784   6.699  -1.617  1.00  0.00     0.029 C 
BRANCH  38  39
HETATM   39  C27 UNL     1      -2.638   7.764  -0.961  1.00  0.00     0.230 C 
BRANCH  39  40
HETATM   40  N5  UNL     1      -3.710   7.061  -0.250  1.00  0.00    -0.079 N 
ATOM     41  H53 UNL     1      -3.399   6.200   0.199  1.00  0.00     0.274 HD
ATOM     42  H52 UNL     1      -4.017   7.543   0.596  1.00  0.00     0.274 HD
ATOM     43  H51 UNL     1      -4.461   6.915  -0.926  1.00  0.00     0.274 HD
ENDBRANCH  39  40
ENDBRANCH  38  39
ENDBRANCH  37  38
ENDBRANCH  11  37
BRANCH   8  44
HETATM   44  N4  UNL     1      -8.477   5.612  -4.883  1.00  0.00    -0.327 N 
HETATM   45  C18 UNL     1      -9.238   4.604  -4.312  1.00  0.00     0.222 C 
HETATM   46  O3  UNL     1      -8.891   3.799  -3.444  1.00  0.00    -0.273 OA
ATOM     47  H4  UNL     1      -8.930   6.190  -5.591  1.00  0.00     0.169 HD
BRANCH  45  48
HETATM   48  C19 UNL     1     -10.669   4.464  -4.801  1.00  0.00     0.113 C 
BRANCH  48  49
HETATM   49  C20 UNL     1     -10.696   4.280  -6.283  1.00  0.00     0.122 C 
BRANCH  49  50
HETATM   50  C21 UNL     1     -10.409   2.870  -6.621  1.00  0.00     0.172 C 
HETATM   51  O4  UNL     1     -11.009   1.952  -6.020  1.00  0.00    -0.648 OA
HETATM   52  O5  UNL     1      -9.472   2.596  -7.605  1.00  0.00    -0.648 OA
ENDBRANCH  49  50
ENDBRANCH  48  49
ENDBRANCH  45  48
ENDBRANCH   8  44
TORSDOF 16
ENDMDL
MODEL 5
REMARK VINA RESULT: -7.913528162      4.029      6.221
REMARK  16 active torsions:
REMARK  status: ('A' for Active; 'I' for Inactive)
REMARK    1  A    between atoms: C2_2  and  C3_3 
REMARK    2  A    between atoms: C3_3  and  C4_4 
REMARK       I    between atoms: C4_4  and  N1_6 
REMARK    3  A    between atoms: N1_6  and  C5_8 
REMARK    4  A    between atoms: C5_8  and  C6_9 
REMARK    5  A    between atoms: N2_11  and  C8_12 
REMARK    6  A    between atoms: C11_15  and  N3_16 
REMARK    7  A    between atoms: C17_23  and  N4_24 
REMARK       I    between atoms: N4_24  and  C18_26 
REMARK    8  A    between atoms: C18_26  and  C19_28 
REMARK    9  A    between atoms: C19_28  and  C20_29 
REMARK   10  A    between atoms: C20_29  and  C21_30 
REMARK   11  A    between atoms: C24_35  and  C25_36 
REMARK   12  A    between atoms: C25_36  and  C26_37 
REMARK   13  A    between atoms: C26_37  and  C27_38 
REMARK   14  A    between atoms: C27_38  and  N5_39 
REMARK   15  A    between atoms: C30_45  and  C32_47 
REMARK       I    between atoms: C32_47  and  N6_49 
REMARK   16  A    between atoms: N6_49  and  C33_51 
ROOT
HETATM    1  N3  UNL     1       1.288   4.964  -6.960  1.00  0.00    -0.305 N 
HETATM    2  C12 UNL     1      -0.014   4.892  -6.438  1.00  0.00     0.260 C 
HETATM    3  O2  UNL     1      -0.772   3.879  -6.384  1.00  0.00    -0.267 OA
HETATM    4  C13 UNL     1      -0.351   6.238  -5.951  1.00  0.00     0.049 A 
HETATM    5  C14 UNL     1       0.733   7.059  -6.178  1.00  0.00    -0.018 A 
HETATM    6  C15 UNL     1       0.619   8.415  -5.891  1.00  0.00     0.012 A 
HETATM    7  C16 UNL     1      -0.572   8.873  -5.389  1.00  0.00     0.031 A 
HETATM    8  C17 UNL     1      -1.676   8.099  -5.142  1.00  0.00     0.041 A 
HETATM    9  C22 UNL     1      -1.541   6.721  -5.443  1.00  0.00    -0.019 A 
HETATM   10  C23 UNL     1      -2.714   5.854  -5.192  1.00  0.00     0.052 C 
HETATM   11  C24 UNL     1       1.868   6.228  -6.638  1.00  0.00     0.127 C 
ENDROOT
BRANCH   1  12
HETATM   12  C11 UNL     1       1.855   3.869  -7.706  1.00  0.00     0.038 A 
HETATM   13  C10 UNL     1       1.859   3.880  -9.082  1.00  0.00     0.032 A 
HETATM   14  C9  UNL     1       2.397   2.827  -9.788  1.00  0.00     0.031 A 
HETATM   15  C8  UNL     1       2.952   1.724  -9.174  1.00  0.00     0.031 A 
HETATM   16  C29 UNL     1       2.940   1.729  -7.795  1.00  0.00     0.031 A 
HETATM   17  C28 UNL     1       2.404   2.776  -7.075  1.00  0.00     0.032 A 
BRANCH  15  18
HETATM   18  N2  UNL     1       3.521   0.626  -9.939  1.00  0.00    -0.362 N 
HETATM   19  C7  UNL     1       4.321   0.653 -11.118  1.00  0.00     0.133 A 
HETATM   20  C6  UNL     1       4.330  -0.828 -11.179  1.00  0.00     0.059 A 
HETATM   21  C30 UNL     1       3.564  -0.782  -9.903  1.00  0.00     0.117 A 
HETATM   22  C31 UNL     1       4.356  -1.294  -8.710  1.00  0.00     0.049 C 
BRANCH  20  23
HETATM   23  C5  UNL     1       5.726  -1.412 -11.134  1.00  0.00     0.132 C 
BRANCH  23  24
HETATM   24  N1  UNL     1       6.574  -1.012 -12.208  1.00  0.00    -0.361 N 
HETATM   25  C4  UNL     1       7.756  -0.251 -12.080  1.00  0.00     0.217 C 
HETATM   26  O1  UNL     1       8.110   0.118 -10.934  1.00  0.00    -0.274 OA
ATOM     27  H1  UNL     1       6.304  -1.301 -13.149  1.00  0.00     0.162 HD
BRANCH  25  28
HETATM   28  C3  UNL     1       8.561   0.109 -13.258  1.00  0.00     0.102 C 
BRANCH  28  29
HETATM   29  C2  UNL     1       8.515   1.579 -13.570  1.00  0.00     0.005 C 
HETATM   30  C1  UNL     1       7.077   2.038 -13.672  1.00  0.00     0.005 C 
ENDBRANCH  28  29
ENDBRANCH  25  28
ENDBRANCH  23  24
ENDBRANCH  20  23
BRANCH  21  31
HETATM   31  C32 UNL     1       2.272  -1.528  -9.944  1.00  0.00     0.246 C 
HETATM   32  O6  UNL     1       1.828  -1.785 -11.100  1.00  0.00    -0.271 OA
HETATM   33  N6  UNL     1       1.546  -1.944  -8.826  1.00  0.00    -0.359 N 
ATOM     34  H6  UNL     1       1.906  -1.731  -7.896  1.00  0.00     0.162 HD
BRANCH  33  35
HETATM   35  C33 UNL     1       0.316  -2.656  -8.945  1.00  0.00     0.118 C 
HETATM   36  C34 UNL     1      -0.549  -2.566  -7.710  1.00  0.00     0.026 C 
ENDBRANCH  33  35
ENDBRANCH  21  31
ENDBRANCH  15  18
ENDBRANCH   1  12
BRANCH  11  37
HETATM   37  C25 UNL     1       2.922   6.080  -5.556  1.00  0.00     0.032 C 
BRANCH  37  38
HETATM   38  C26 UNL     1       2.437   5.584  -4.249  1.00  0.00     0.029 C 
BRANCH  38  39
HETATM   39  C27 UNL     1       2.790   6.492  -3.090  1.00  0.00     0.230 C 
BRANCH  39  40
HETATM   40  N5  UNL     1       2.012   6.023  -1.940  1.00  0.00    -0.079 N 
ATOM     41  H53 UNL     1       1.064   6.397  -1.914  1.00  0.00     0.274 HD
ATOM     42  H52 UNL     1       1.759   5.036  -1.999  1.00  0.00     0.274 HD
ATOM     43  H51 UNL     1       2.557   6.250  -1.107  1.00  0.00     0.274 HD
ENDBRANCH  39  40
ENDBRANCH  38  39
ENDBRANCH  37  38
ENDBRANCH  11  37
BRANCH   8  44
HETATM   44  N4  UNL     1      -2.888   8.568  -4.614  1.00  0.00    -0.327 N 
HETATM   45  C18 UNL     1      -3.194   8.703  -3.269  1.00  0.00     0.222 C 
HETATM   46  O3  UNL     1      -2.471   8.443  -2.303  1.00  0.00    -0.273 OA
ATOM     47  H4  UNL     1      -3.611   8.834  -5.282  1.00  0.00     0.169 HD
BRANCH  45  48
HETATM   48  C19 UNL     1      -4.575   9.233  -2.929  1.00  0.00     0.113 C 
BRANCH  48  49
HETATM   49  C20 UNL     1      -5.347   8.215  -2.154  1.00  0.00     0.122 C 
BRANCH  49  50
HETATM   50  C21 UNL     1      -5.548   7.003  -2.976  1.00  0.00     0.172 C 
HETATM   51  O4  UNL     1      -6.341   7.032  -3.942  1.00  0.00    -0.648 OA
HETATM   52  O5  UNL     1      -4.847   5.852  -2.652  1.00  0.00    -0.648 OA
ENDBRANCH  49  50
ENDBRANCH  48  49
ENDBRANCH  45  48
ENDBRANCH   8  44
TORSDOF 16
ENDMDL
