MODEL 1
REMARK VINA RESULT: -9.645677953      0.000      0.000
REMARK  18 active torsions:
REMARK  status: ('A' for Active; 'I' for Inactive)
REMARK    1  A    between atoms: S1_2  and  C2_3 
REMARK    2  A    between atoms: C2_3  and  C3_4 
REMARK    3  A    between atoms: C3_4  and  C4_5 
REMARK    4  A    between atoms: C4_5  and  N1_6 
REMARK    5  A    between atoms: C4_5  and  C6_15 
REMARK    6  A    between atoms: N1_6  and  C5_8 
REMARK    7  A    between atoms: C5_8  and  O1_9 
REMARK    8  A    between atoms: N2_11  and  O2_13 
REMARK       I    between atoms: C6_15  and  N3_17 
REMARK    9  A    between atoms: N3_17  and  C7_19 
REMARK   10  A    between atoms: C7_19  and  C8_20 
REMARK   11  A    between atoms: N4_23  and  C11_24 
REMARK   12  A    between atoms: C11_24  and  C12_25 
REMARK   13  A    between atoms: C12_25  and  C13_27 
REMARK   14  A    between atoms: C16_30  and  C17_31 
REMARK   15  A    between atoms: C20_34  and  C21_35 
REMARK   16  A    between atoms: C21_35  and  C22_36 
REMARK   17  A    between atoms: C22_36  and  N5_37 
REMARK   18  A    between atoms: C25_40  and  C26_41 
ROOT
HETATM    1  C11 UNL     1      -4.051   2.173  -8.580  1.00  0.00     0.211 C 
ENDROOT
BRANCH   1   2
HETATM    2  N4  UNL     1      -3.062   3.038  -8.031  1.00  0.00    -0.359 N 
HETATM    3  C10 UNL     1      -3.379   4.237  -7.468  1.00  0.00     0.091 A 
HETATM    4  C9  UNL     1      -2.462   5.100  -6.931  1.00  0.00     0.026 A 
HETATM    5  C8  UNL     1      -1.099   4.757  -6.943  1.00  0.00    -0.038 A 
HETATM    6  C34 UNL     1      -0.779   3.551  -7.508  1.00  0.00     0.026 A 
HETATM    7  C33 UNL     1      -1.764   2.701  -8.047  1.00  0.00     0.091 A 
BRANCH   5   8
HETATM    8  C7  UNL     1      -0.166   5.740  -6.363  1.00  0.00     0.161 C 
BRANCH   8   9
HETATM    9  N3  UNL     1      -0.731   7.026  -6.103  1.00  0.00    -0.355 N 
HETATM   10  C6  UNL     1      -1.156   7.449  -4.844  1.00  0.00     0.240 C 
HETATM   11  O3  UNL     1      -1.054   6.705  -3.834  1.00  0.00    -0.271 OA
ATOM     12  H3  UNL     1      -0.829   7.673  -6.885  1.00  0.00     0.162 HD
BRANCH  10  13
HETATM   13  C4  UNL     1      -1.751   8.818  -4.631  1.00  0.00     0.178 C 
BRANCH  13  14
HETATM   14  C3  UNL     1      -2.433   8.960  -3.327  1.00  0.00     0.045 C 
BRANCH  14  15
HETATM   15  C2  UNL     1      -3.923   8.973  -3.311  1.00  0.00     0.076 C 
BRANCH  15  16
HETATM   16  S1  UNL     1      -4.479   7.286  -2.813  1.00  0.00    -0.173 SA
HETATM   17  C1  UNL     1      -6.033   6.837  -3.586  1.00  0.00     0.089 C 
ENDBRANCH  15  16
ENDBRANCH  14  15
ENDBRANCH  13  14
BRANCH  13  18
HETATM   18  N1  UNL     1      -2.452   9.212  -5.810  1.00  0.00    -0.342 N 
ATOM     19  H1  UNL     1      -3.465   9.089  -5.801  1.00  0.00     0.164 HD
BRANCH  18  20
HETATM   20  C5  UNL     1      -1.892   9.751  -6.981  1.00  0.00     0.237 C 
HETATM   21  N2  UNL     1      -1.637  10.993  -7.086  1.00  0.00    -0.233 N 
ATOM     22  H2  UNL     1      -1.851  11.591  -6.287  1.00  0.00     0.198 HD
BRANCH  20  23
HETATM   23  O1  UNL     1      -1.608   8.918  -8.052  1.00  0.00    -0.331 OA
ATOM     24  H1  UNL     1      -2.277   8.744  -8.704  1.00  0.00     0.221 HD
ENDBRANCH  20  23
BRANCH  21  25
HETATM   25  O2  UNL     1      -1.086  11.592  -8.213  1.00  0.00    -0.287 OA
ATOM     26  H2  UNL     1      -0.566  12.387  -8.201  1.00  0.00     0.244 HD
ENDBRANCH  21  25
ENDBRANCH  18  20
ENDBRANCH  13  18
ENDBRANCH  10  13
ENDBRANCH   8   9
ENDBRANCH   5   8
ENDBRANCH   1   2
BRANCH   1  27
HETATM   27  C12 UNL     1      -5.156   2.798  -9.295  1.00  0.00     0.177 C 
HETATM   28  O4  UNL     1      -5.019   3.190 -10.465  1.00  0.00    -0.291 OA
BRANCH  27  29
HETATM   29  C13 UNL     1      -6.437   2.963  -8.633  1.00  0.00     0.011 A 
HETATM   30  C14 UNL     1      -6.526   3.719  -7.451  1.00  0.00     0.016 A 
HETATM   31  C15 UNL     1      -7.736   3.869  -6.781  1.00  0.00     0.013 A 
HETATM   32  C16 UNL     1      -8.861   3.274  -7.274  1.00  0.00    -0.026 A 
HETATM   33  C31 UNL     1      -8.812   2.528  -8.432  1.00  0.00     0.013 A 
HETATM   34  C32 UNL     1      -7.584   2.387  -9.097  1.00  0.00     0.016 A 
BRANCH  32  35
HETATM   35  C17 UNL     1     -10.090   3.433  -6.517  1.00  0.00    -0.026 A 
HETATM   36  C18 UNL     1     -11.227   2.737  -6.857  1.00  0.00     0.013 A 
HETATM   37  C19 UNL     1     -12.381   2.868  -6.122  1.00  0.00     0.008 A 
HETATM   38  C20 UNL     1     -12.448   3.695  -5.022  1.00  0.00    -0.057 A 
HETATM   39  C29 UNL     1     -11.297   4.398  -4.681  1.00  0.00     0.008 A 
HETATM   40  C30 UNL     1     -10.141   4.263  -5.421  1.00  0.00     0.013 A 
BRANCH  38  41
HETATM   41  C21 UNL     1     -13.712   3.791  -4.266  1.00  0.00     0.058 C 
BRANCH  41  42
HETATM   42  C22 UNL     1     -13.662   2.902  -3.024  1.00  0.00     0.132 C 
BRANCH  42  43
HETATM   43  N5  UNL     1     -13.289   3.752  -1.917  1.00  0.00    -0.366 N 
HETATM   44  C23 UNL     1     -12.160   3.554  -1.230  1.00  0.00     0.091 A 
HETATM   45  C24 UNL     1     -11.796   4.375  -0.156  1.00  0.00     0.035 A 
HETATM   46  C25 UNL     1     -12.625   5.426   0.212  1.00  0.00     0.043 A 
HETATM   47  C27 UNL     1     -13.782   5.614  -0.505  1.00  0.00     0.035 A 
HETATM   48  C28 UNL     1     -14.086   4.763  -1.563  1.00  0.00     0.091 A 
BRANCH  46  49
HETATM   49  C26 UNL     1     -12.241   6.273   1.329  1.00  0.00     0.209 C 
HETATM   50  O5  UNL     1     -11.336   5.932   2.136  1.00  0.00    -0.644 OA
HETATM   51  O6  UNL     1     -12.861   7.469   1.531  1.00  0.00    -0.644 OA
ENDBRANCH  46  49
ENDBRANCH  42  43
ENDBRANCH  41  42
ENDBRANCH  38  41
ENDBRANCH  32  35
ENDBRANCH  27  29
ENDBRANCH   1  27
TORSDOF 18
ENDMDL
MODEL 2
REMARK VINA RESULT: -9.387380910      4.940     12.523
REMARK  18 active torsions:
REMARK  status: ('A' for Active; 'I' for Inactive)
REMARK    1  A    between atoms: S1_2  and  C2_3 
REMARK    2  A    between atoms: C2_3  and  C3_4 
REMARK    3  A    between atoms: C3_4  and  C4_5 
REMARK    4  A    between atoms: C4_5  and  N1_6 
REMARK    5  A    between atoms: C4_5  and  C6_15 
REMARK    6  A    between atoms: N1_6  and  C5_8 
REMARK    7  A    between atoms: C5_8  and  O1_9 
REMARK    8  A    between atoms: N2_11  and  O2_13 
REMARK       I    between atoms: C6_15  and  N3_17 
REMARK    9  A    between atoms: N3_17  and  C7_19 
REMARK   10  A    between atoms: C7_19  and  C8_20 
REMARK   11  A    between atoms: N4_23  and  C11_24 
REMARK   12  A    between atoms: C11_24  and  C12_25 
REMARK   13  A    between atoms: C12_25  and  C13_27 
REMARK   14  A    between atoms: C16_30  and  C17_31 
REMARK   15  A    between atoms: C20_34  and  C21_35 
REMARK   16  A    between atoms: C21_35  and  C22_36 
REMARK   17  A    between atoms: C22_36  and  N5_37 
REMARK   18  A    between atoms: C25_40  and  C26_41 
ROOT
HETATM    1  C11 UNL     1      -4.209   7.722  -1.683  1.00  0.00     0.211 C 
ENDROOT
BRANCH   1   2
HETATM    2  N4  UNL     1      -4.903   6.885  -2.602  1.00  0.00    -0.359 N 
HETATM    3  C10 UNL     1      -4.592   5.570  -2.764  1.00  0.00     0.091 A 
HETATM    4  C9  UNL     1      -5.231   4.730  -3.636  1.00  0.00     0.026 A 
HETATM    5  C8  UNL     1      -6.281   5.224  -4.429  1.00  0.00    -0.038 A 
HETATM    6  C34 UNL     1      -6.597   6.547  -4.266  1.00  0.00     0.026 A 
HETATM    7  C33 UNL     1      -5.905   7.366  -3.353  1.00  0.00     0.091 A 
BRANCH   5   8
HETATM    8  C7  UNL     1      -6.913   4.269  -5.357  1.00  0.00     0.161 C 
BRANCH   8   9
HETATM    9  N3  UNL     1      -6.278   4.159  -6.632  1.00  0.00    -0.355 N 
HETATM   10  C6  UNL     1      -5.268   3.242  -6.922  1.00  0.00     0.240 C 
HETATM   11  O3  UNL     1      -4.853   2.429  -6.055  1.00  0.00    -0.271 OA
ATOM     12  H3  UNL     1      -6.582   4.788  -7.374  1.00  0.00     0.162 HD
BRANCH  10  13
HETATM   13  C4  UNL     1      -4.630   3.176  -8.286  1.00  0.00     0.178 C 
BRANCH  13  14
HETATM   14  C3  UNL     1      -5.417   2.390  -9.260  1.00  0.00     0.045 C 
BRANCH  14  15
HETATM   15  C2  UNL     1      -6.656   3.001  -9.820  1.00  0.00     0.076 C 
BRANCH  15  16
HETATM   16  S1  UNL     1      -8.089   2.119  -9.067  1.00  0.00    -0.173 SA
HETATM   17  C1  UNL     1      -9.278   3.256  -8.356  1.00  0.00     0.089 C 
ENDBRANCH  15  16
ENDBRANCH  14  15
ENDBRANCH  13  14
BRANCH  13  18
HETATM   18  N1  UNL     1      -3.242   2.878  -8.138  1.00  0.00    -0.342 N 
ATOM     19  H1  UNL     1      -3.000   2.149  -7.468  1.00  0.00     0.164 HD
BRANCH  18  20
HETATM   20  C5  UNL     1      -2.174   3.486  -8.822  1.00  0.00     0.237 C 
HETATM   21  N2  UNL     1      -0.978   3.400  -8.398  1.00  0.00    -0.233 N 
ATOM     22  H2  UNL     1      -0.814   2.872  -7.541  1.00  0.00     0.198 HD
BRANCH  20  23
HETATM   23  O1  UNL     1      -2.421   4.198  -9.986  1.00  0.00    -0.331 OA
ATOM     24  H1  UNL     1      -1.722   4.700 -10.388  1.00  0.00     0.221 HD
ENDBRANCH  20  23
BRANCH  21  25
HETATM   25  O2  UNL     1       0.123   3.977  -9.022  1.00  0.00    -0.287 OA
ATOM     26  H2  UNL     1       0.925   4.224  -8.578  1.00  0.00     0.244 HD
ENDBRANCH  21  25
ENDBRANCH  18  20
ENDBRANCH  13  18
ENDBRANCH  10  13
ENDBRANCH   8   9
ENDBRANCH   5   8
ENDBRANCH   1   2
BRANCH   1  27
HETATM   27  C12 UNL     1      -2.950   8.301  -2.134  1.00  0.00     0.177 C 
HETATM   28  O4  UNL     1      -2.727   9.516  -2.017  1.00  0.00    -0.291 OA
BRANCH  27  29
HETATM   29  C13 UNL     1      -1.939   7.445  -2.727  1.00  0.00     0.011 A 
HETATM   30  C14 UNL     1      -1.260   6.505  -1.933  1.00  0.00     0.016 A 
HETATM   31  C15 UNL     1      -0.266   5.692  -2.469  1.00  0.00     0.013 A 
HETATM   32  C16 UNL     1       0.060   5.804  -3.790  1.00  0.00    -0.026 A 
HETATM   33  C31 UNL     1      -0.587   6.713  -4.599  1.00  0.00     0.013 A 
HETATM   34  C32 UNL     1      -1.588   7.526  -4.043  1.00  0.00     0.016 A 
BRANCH  32  35
HETATM   35  C17 UNL     1       1.128   4.958  -4.291  1.00  0.00    -0.026 A 
HETATM   36  C18 UNL     1       2.439   5.189  -3.943  1.00  0.00     0.013 A 
HETATM   37  C19 UNL     1       3.444   4.369  -4.397  1.00  0.00     0.008 A 
HETATM   38  C20 UNL     1       3.185   3.289  -5.213  1.00  0.00    -0.057 A 
HETATM   39  C29 UNL     1       1.860   3.058  -5.563  1.00  0.00     0.008 A 
HETATM   40  C30 UNL     1       0.853   3.883  -5.106  1.00  0.00     0.013 A 
BRANCH  38  41
HETATM   41  C21 UNL     1       4.304   2.439  -5.664  1.00  0.00     0.058 C 
BRANCH  41  42
HETATM   42  C22 UNL     1       5.006   3.071  -6.864  1.00  0.00     0.132 C 
BRANCH  42  43
HETATM   43  N5  UNL     1       4.554   2.358  -8.036  1.00  0.00    -0.366 N 
HETATM   44  C23 UNL     1       4.903   1.087  -8.262  1.00  0.00     0.091 A 
HETATM   45  C24 UNL     1       4.467   0.393  -9.397  1.00  0.00     0.035 A 
HETATM   46  C25 UNL     1       3.649   1.034 -10.317  1.00  0.00     0.043 A 
HETATM   47  C27 UNL     1       3.299   2.339 -10.068  1.00  0.00     0.035 A 
HETATM   48  C28 UNL     1       3.766   2.973  -8.921  1.00  0.00     0.091 A 
BRANCH  46  49
HETATM   49  C26 UNL     1       3.201   0.307 -11.494  1.00  0.00     0.209 C 
HETATM   50  O5  UNL     1       2.110  -0.322 -11.505  1.00  0.00    -0.644 OA
HETATM   51  O6  UNL     1       3.961   0.290 -12.623  1.00  0.00    -0.644 OA
ENDBRANCH  46  49
ENDBRANCH  42  43
ENDBRANCH  41  42
ENDBRANCH  38  41
ENDBRANCH  32  35
ENDBRANCH  27  29
ENDBRANCH   1  27
TORSDOF 18
ENDMDL
MODEL 3
REMARK VINA RESULT: -9.340601496      3.248      6.113
REMARK  18 active torsions:
REMARK  status: ('A' for Active; 'I' for Inactive)
REMARK    1  A    between atoms: S1_2  and  C2_3 
REMARK    2  A    between atoms: C2_3  and  C3_4 
REMARK    3  A    between atoms: C3_4  and  C4_5 
REMARK    4  A    between atoms: C4_5  and  N1_6 
REMARK    5  A    between atoms: C4_5  and  C6_15 
REMARK    6  A    between atoms: N1_6  and  C5_8 
REMARK    7  A    between atoms: C5_8  and  O1_9 
REMARK    8  A    between atoms: N2_11  and  O2_13 
REMARK       I    between atoms: C6_15  and  N3_17 
REMARK    9  A    between atoms: N3_17  and  C7_19 
REMARK   10  A    between atoms: C7_19  and  C8_20 
REMARK   11  A    between atoms: N4_23  and  C11_24 
REMARK   12  A    between atoms: C11_24  and  C12_25 
REMARK   13  A    between atoms: C12_25  and  C13_27 
REMARK   14  A    between atoms: C16_30  and  C17_31 
REMARK   15  A    between atoms: C20_34  and  C21_35 
REMARK   16  A    between atoms: C21_35  and  C22_36 
REMARK   17  A    between atoms: C22_36  and  N5_37 
REMARK   18  A    between atoms: C25_40  and  C26_41 
ROOT
HETATM    1  C11 UNL     1       3.496   3.147  -9.974  1.00  0.00     0.211 C 
ENDROOT
BRANCH   1   2
HETATM    2  N4  UNL     1       3.522   3.760  -8.689  1.00  0.00    -0.359 N 
HETATM    3  C10 UNL     1       3.066   5.026  -8.479  1.00  0.00     0.091 A 
HETATM    4  C9  UNL     1       3.074   5.655  -7.263  1.00  0.00     0.026 A 
HETATM    5  C8  UNL     1       3.576   4.979  -6.138  1.00  0.00    -0.038 A 
HETATM    6  C34 UNL     1       4.035   3.705  -6.347  1.00  0.00     0.026 A 
HETATM    7  C33 UNL     1       4.003   3.107  -7.621  1.00  0.00     0.091 A 
BRANCH   5   8
HETATM    8  C7  UNL     1       3.570   5.721  -4.865  1.00  0.00     0.161 C 
BRANCH   8   9
HETATM    9  N3  UNL     1       2.353   6.411  -4.576  1.00  0.00    -0.355 N 
HETATM   10  C6  UNL     1       1.167   5.777  -4.206  1.00  0.00     0.240 C 
HETATM   11  O3  UNL     1       1.102   4.524  -4.091  1.00  0.00    -0.271 OA
ATOM     12  H3  UNL     1       2.351   7.428  -4.645  1.00  0.00     0.162 HD
BRANCH  10  13
HETATM   13  C4  UNL     1      -0.090   6.557  -3.919  1.00  0.00     0.178 C 
BRANCH  13  14
HETATM   14  C3  UNL     1      -0.752   6.154  -2.660  1.00  0.00     0.045 C 
BRANCH  14  15
HETATM   15  C2  UNL     1      -2.238   6.041  -2.652  1.00  0.00     0.076 C 
BRANCH  15  16
HETATM   16  S1  UNL     1      -2.899   7.585  -1.889  1.00  0.00    -0.173 SA
HETATM   17  C1  UNL     1      -2.839   8.971  -3.025  1.00  0.00     0.089 C 
ENDBRANCH  15  16
ENDBRANCH  14  15
ENDBRANCH  13  14
BRANCH  13  18
HETATM   18  N1  UNL     1      -0.878   6.628  -5.106  1.00  0.00    -0.342 N 
ATOM     19  H1  UNL     1      -1.624   5.939  -5.202  1.00  0.00     0.164 HD
BRANCH  18  20
HETATM   20  C5  UNL     1      -0.732   7.549  -6.159  1.00  0.00     0.237 C 
HETATM   21  N2  UNL     1      -1.732   7.950  -6.835  1.00  0.00    -0.233 N 
ATOM     22  H2  UNL     1      -2.651   7.583  -6.587  1.00  0.00     0.198 HD
BRANCH  20  23
HETATM   23  O1  UNL     1       0.527   8.036  -6.475  1.00  0.00    -0.331 OA
ATOM     24  H1  UNL     1       1.203   7.437  -6.768  1.00  0.00     0.221 HD
ENDBRANCH  20  23
BRANCH  21  25
HETATM   25  O2  UNL     1      -1.660   8.857  -7.887  1.00  0.00    -0.287 OA
ATOM     26  H2  UNL     1      -1.978   9.751  -7.850  1.00  0.00     0.244 HD
ENDBRANCH  21  25
ENDBRANCH  18  20
ENDBRANCH  13  18
ENDBRANCH  10  13
ENDBRANCH   8   9
ENDBRANCH   5   8
ENDBRANCH   1   2
BRANCH   1  27
HETATM   27  C12 UNL     1       2.382   2.251 -10.257  1.00  0.00     0.177 C 
HETATM   28  O4  UNL     1       2.549   1.213 -10.916  1.00  0.00    -0.291 OA
BRANCH  27  29
HETATM   29  C13 UNL     1       1.057   2.574  -9.760  1.00  0.00     0.011 A 
HETATM   30  C14 UNL     1       0.630   2.071  -8.519  1.00  0.00     0.016 A 
HETATM   31  C15 UNL     1      -0.645   2.341  -8.033  1.00  0.00     0.013 A 
HETATM   32  C16 UNL     1      -1.501   3.108  -8.768  1.00  0.00    -0.026 A 
HETATM   33  C31 UNL     1      -1.116   3.620  -9.988  1.00  0.00     0.013 A 
HETATM   34  C32 UNL     1       0.174   3.339 -10.465  1.00  0.00     0.016 A 
BRANCH  32  35
HETATM   35  C17 UNL     1      -2.832   3.330  -8.231  1.00  0.00    -0.026 A 
HETATM   36  C18 UNL     1      -3.042   4.214  -7.197  1.00  0.00     0.013 A 
HETATM   37  C19 UNL     1      -4.306   4.442  -6.710  1.00  0.00     0.008 A 
HETATM   38  C20 UNL     1      -5.410   3.803  -7.232  1.00  0.00    -0.057 A 
HETATM   39  C29 UNL     1      -5.195   2.910  -8.276  1.00  0.00     0.008 A 
HETATM   40  C30 UNL     1      -3.924   2.683  -8.763  1.00  0.00     0.013 A 
BRANCH  38  41
HETATM   41  C21 UNL     1      -6.745   4.094  -6.673  1.00  0.00     0.058 C 
BRANCH  41  42
HETATM   42  C22 UNL     1      -7.838   3.666  -7.650  1.00  0.00     0.132 C 
BRANCH  42  43
HETATM   43  N5  UNL     1      -9.074   3.629  -6.904  1.00  0.00    -0.366 N 
HETATM   44  C23 UNL     1     -10.141   2.953  -7.345  1.00  0.00     0.091 A 
HETATM   45  C24 UNL     1     -11.340   2.917  -6.624  1.00  0.00     0.035 A 
HETATM   46  C25 UNL     1     -11.434   3.597  -5.419  1.00  0.00     0.043 A 
HETATM   47  C27 UNL     1     -10.329   4.286  -4.981  1.00  0.00     0.035 A 
HETATM   48  C28 UNL     1      -9.166   4.284  -5.744  1.00  0.00     0.091 A 
BRANCH  46  49
HETATM   49  C26 UNL     1     -12.685   3.556  -4.677  1.00  0.00     0.209 C 
HETATM   50  O5  UNL     1     -13.791   3.771  -5.237  1.00  0.00    -0.644 OA
HETATM   51  O6  UNL     1     -12.685   3.279  -3.344  1.00  0.00    -0.644 OA
ENDBRANCH  46  49
ENDBRANCH  42  43
ENDBRANCH  41  42
ENDBRANCH  38  41
ENDBRANCH  32  35
ENDBRANCH  27  29
ENDBRANCH   1  27
TORSDOF 18
ENDMDL
MODEL 4
REMARK VINA RESULT: -9.290622275      3.596      6.323
REMARK  18 active torsions:
REMARK  status: ('A' for Active; 'I' for Inactive)
REMARK    1  A    between atoms: S1_2  and  C2_3 
REMARK    2  A    between atoms: C2_3  and  C3_4 
REMARK    3  A    between atoms: C3_4  and  C4_5 
REMARK    4  A    between atoms: C4_5  and  N1_6 
REMARK    5  A    between atoms: C4_5  and  C6_15 
REMARK    6  A    between atoms: N1_6  and  C5_8 
REMARK    7  A    between atoms: C5_8  and  O1_9 
REMARK    8  A    between atoms: N2_11  and  O2_13 
REMARK       I    between atoms: C6_15  and  N3_17 
REMARK    9  A    between atoms: N3_17  and  C7_19 
REMARK   10  A    between atoms: C7_19  and  C8_20 
REMARK   11  A    between atoms: N4_23  and  C11_24 
REMARK   12  A    between atoms: C11_24  and  C12_25 
REMARK   13  A    between atoms: C12_25  and  C13_27 
REMARK   14  A    between atoms: C16_30  and  C17_31 
REMARK   15  A    between atoms: C20_34  and  C21_35 
REMARK   16  A    between atoms: C21_35  and  C22_36 
REMARK   17  A    between atoms: C22_36  and  N5_37 
REMARK   18  A    between atoms: C25_40  and  C26_41 
ROOT
HETATM    1  C11 UNL     1      -1.390   6.382  -1.817  1.00  0.00     0.211 C 
ENDROOT
BRANCH   1   2
HETATM    2  N4  UNL     1      -0.625   6.155  -2.997  1.00  0.00    -0.359 N 
HETATM    3  C10 UNL     1       0.186   5.071  -3.138  1.00  0.00     0.091 A 
HETATM    4  C9  UNL     1       0.939   4.815  -4.252  1.00  0.00     0.026 A 
HETATM    5  C8  UNL     1       0.895   5.706  -5.338  1.00  0.00    -0.038 A 
HETATM    6  C34 UNL     1       0.078   6.797  -5.197  1.00  0.00     0.026 A 
HETATM    7  C33 UNL     1      -0.675   7.012  -4.027  1.00  0.00     0.091 A 
BRANCH   5   8
HETATM    8  C7  UNL     1       1.744   5.377  -6.497  1.00  0.00     0.161 C 
BRANCH   8   9
HETATM    9  N3  UNL     1       1.034   4.951  -7.661  1.00  0.00    -0.355 N 
HETATM   10  C6  UNL     1       0.618   3.638  -7.882  1.00  0.00     0.240 C 
HETATM   11  O3  UNL     1       0.841   2.729  -7.039  1.00  0.00    -0.271 OA
ATOM     12  H3  UNL     1       0.819   5.648  -8.373  1.00  0.00     0.162 HD
BRANCH  10  13
HETATM   13  C4  UNL     1      -0.123   3.244  -9.134  1.00  0.00     0.178 C 
BRANCH  13  14
HETATM   14  C3  UNL     1       0.730   3.248 -10.342  1.00  0.00     0.045 C 
BRANCH  14  15
HETATM   15  C2  UNL     1       1.940   2.377 -10.350  1.00  0.00     0.076 C 
BRANCH  15  16
HETATM   16  S1  UNL     1       3.412   3.487 -10.331  1.00  0.00    -0.173 SA
HETATM   17  C1  UNL     1       4.260   3.449  -8.752  1.00  0.00     0.089 C 
ENDBRANCH  15  16
ENDBRANCH  14  15
ENDBRANCH  13  14
BRANCH  13  18
HETATM   18  N1  UNL     1      -1.366   3.944  -9.181  1.00  0.00    -0.342 N 
ATOM     19  H1  UNL     1      -1.701   4.219 -10.104  1.00  0.00     0.164 HD
BRANCH  18  20
HETATM   20  C5  UNL     1      -2.176   4.293  -8.086  1.00  0.00     0.237 C 
HETATM   21  N2  UNL     1      -2.947   3.447  -7.531  1.00  0.00    -0.233 N 
ATOM     22  H2  UNL     1      -2.959   2.498  -7.907  1.00  0.00     0.198 HD
BRANCH  20  23
HETATM   23  O1  UNL     1      -2.140   5.589  -7.592  1.00  0.00    -0.331 OA
ATOM     24  H1  UNL     1      -2.174   5.735  -6.654  1.00  0.00     0.221 HD
ENDBRANCH  20  23
BRANCH  21  25
HETATM   25  O2  UNL     1      -3.774   3.725  -6.448  1.00  0.00    -0.287 OA
ATOM     26  H2  UNL     1      -3.855   3.174  -5.679  1.00  0.00     0.244 HD
ENDBRANCH  21  25
ENDBRANCH  18  20
ENDBRANCH  13  18
ENDBRANCH  10  13
ENDBRANCH   8   9
ENDBRANCH   5   8
ENDBRANCH   1   2
BRANCH   1  27
HETATM   27  C12 UNL     1      -2.572   7.224  -1.946  1.00  0.00     0.177 C 
HETATM   28  O4  UNL     1      -2.587   8.379  -1.491  1.00  0.00    -0.291 OA
BRANCH  27  29
HETATM   29  C13 UNL     1      -3.751   6.708  -2.619  1.00  0.00     0.011 A 
HETATM   30  C14 UNL     1      -4.799   7.577  -2.964  1.00  0.00     0.016 A 
HETATM   31  C15 UNL     1      -5.952   7.105  -3.584  1.00  0.00     0.013 A 
HETATM   32  C16 UNL     1      -6.073   5.775  -3.864  1.00  0.00    -0.026 A 
HETATM   33  C31 UNL     1      -5.064   4.894  -3.541  1.00  0.00     0.013 A 
HETATM   34  C32 UNL     1      -3.907   5.386  -2.917  1.00  0.00     0.016 A 
BRANCH  32  35
HETATM   35  C17 UNL     1      -7.311   5.328  -4.479  1.00  0.00    -0.026 A 
HETATM   36  C18 UNL     1      -8.532   5.715  -3.977  1.00  0.00     0.013 A 
HETATM   37  C19 UNL     1      -9.701   5.313  -4.578  1.00  0.00     0.008 A 
HETATM   38  C20 UNL     1      -9.701   4.513  -5.700  1.00  0.00    -0.057 A 
HETATM   39  C29 UNL     1      -8.465   4.123  -6.204  1.00  0.00     0.008 A 
HETATM   40  C30 UNL     1      -7.293   4.528  -5.599  1.00  0.00     0.013 A 
BRANCH  38  41
HETATM   41  C21 UNL     1     -10.987   4.119  -6.307  1.00  0.00     0.058 C 
BRANCH  41  42
HETATM   42  C22 UNL     1     -11.229   2.622  -6.121  1.00  0.00     0.132 C 
BRANCH  42  43
HETATM   43  N5  UNL     1     -12.210   2.485  -5.070  1.00  0.00    -0.366 N 
HETATM   44  C23 UNL     1     -11.973   1.746  -3.981  1.00  0.00     0.091 A 
HETATM   45  C24 UNL     1     -12.922   1.611  -2.961  1.00  0.00     0.035 A 
HETATM   46  C25 UNL     1     -14.144   2.258  -3.074  1.00  0.00     0.043 A 
HETATM   47  C27 UNL     1     -14.370   3.013  -4.199  1.00  0.00     0.035 A 
HETATM   48  C28 UNL     1     -13.386   3.108  -5.178  1.00  0.00     0.091 A 
BRANCH  46  49
HETATM   49  C26 UNL     1     -15.125   2.111  -2.010  1.00  0.00     0.209 C 
HETATM   50  O5  UNL     1     -14.786   1.799  -0.839  1.00  0.00    -0.644 OA
HETATM   51  O6  UNL     1     -16.448   2.311  -2.262  1.00  0.00    -0.644 OA
ENDBRANCH  46  49
ENDBRANCH  42  43
ENDBRANCH  41  42
ENDBRANCH  38  41
ENDBRANCH  32  35
ENDBRANCH  27  29
ENDBRANCH   1  27
TORSDOF 18
ENDMDL
MODEL 5
REMARK VINA RESULT: -9.289815780      4.904     11.593
REMARK  18 active torsions:
REMARK  status: ('A' for Active; 'I' for Inactive)
REMARK    1  A    between atoms: S1_2  and  C2_3 
REMARK    2  A    between atoms: C2_3  and  C3_4 
REMARK    3  A    between atoms: C3_4  and  C4_5 
REMARK    4  A    between atoms: C4_5  and  N1_6 
REMARK    5  A    between atoms: C4_5  and  C6_15 
REMARK    6  A    between atoms: N1_6  and  C5_8 
REMARK    7  A    between atoms: C5_8  and  O1_9 
REMARK    8  A    between atoms: N2_11  and  O2_13 
REMARK       I    between atoms: C6_15  and  N3_17 
REMARK    9  A    between atoms: N3_17  and  C7_19 
REMARK   10  A    between atoms: C7_19  and  C8_20 
REMARK   11  A    between atoms: N4_23  and  C11_24 
REMARK   12  A    between atoms: C11_24  and  C12_25 
REMARK   13  A    between atoms: C12_25  and  C13_27 
REMARK   14  A    between atoms: C16_30  and  C17_31 
REMARK   15  A    between atoms: C20_34  and  C21_35 
REMARK   16  A    between atoms: C21_35  and  C22_36 
REMARK   17  A    between atoms: C22_36  and  N5_37 
REMARK   18  A    between atoms: C25_40  and  C26_41 
ROOT
HETATM    1  C11 UNL     1      -4.165   7.697  -1.678  1.00  0.00     0.211 C 
ENDROOT
BRANCH   1   2
HETATM    2  N4  UNL     1      -4.877   6.868  -2.591  1.00  0.00    -0.359 N 
HETATM    3  C10 UNL     1      -4.527   5.571  -2.818  1.00  0.00     0.091 A 
HETATM    4  C9  UNL     1      -5.182   4.740  -3.687  1.00  0.00     0.026 A 
HETATM    5  C8  UNL     1      -6.290   5.222  -4.404  1.00  0.00    -0.038 A 
HETATM    6  C34 UNL     1      -6.643   6.525  -4.176  1.00  0.00     0.026 A 
HETATM    7  C33 UNL     1      -5.933   7.337  -3.271  1.00  0.00     0.091 A 
BRANCH   5   8
HETATM    8  C7  UNL     1      -6.936   4.278  -5.333  1.00  0.00     0.161 C 
BRANCH   8   9
HETATM    9  N3  UNL     1      -6.312   4.171  -6.614  1.00  0.00    -0.355 N 
HETATM   10  C6  UNL     1      -5.309   3.251  -6.918  1.00  0.00     0.240 C 
HETATM   11  O3  UNL     1      -4.891   2.431  -6.059  1.00  0.00    -0.271 OA
ATOM     12  H3  UNL     1      -6.619   4.806  -7.351  1.00  0.00     0.162 HD
BRANCH  10  13
HETATM   13  C4  UNL     1      -4.682   3.189  -8.287  1.00  0.00     0.178 C 
BRANCH  13  14
HETATM   14  C3  UNL     1      -5.454   2.367  -9.245  1.00  0.00     0.045 C 
BRANCH  14  15
HETATM   15  C2  UNL     1      -6.713   2.936  -9.803  1.00  0.00     0.076 C 
BRANCH  15  16
HETATM   16  S1  UNL     1      -8.117   2.090  -8.958  1.00  0.00    -0.173 SA
HETATM   17  C1  UNL     1      -9.313   3.259  -8.312  1.00  0.00     0.089 C 
ENDBRANCH  15  16
ENDBRANCH  14  15
ENDBRANCH  13  14
BRANCH  13  18
HETATM   18  N1  UNL     1      -3.285   2.936  -8.151  1.00  0.00    -0.342 N 
ATOM     19  H1  UNL     1      -3.009   2.265  -7.434  1.00  0.00     0.164 HD
BRANCH  18  20
HETATM   20  C5  UNL     1      -2.248   3.517  -8.902  1.00  0.00     0.237 C 
HETATM   21  N2  UNL     1      -1.030   3.414  -8.547  1.00  0.00    -0.233 N 
ATOM     22  H2  UNL     1      -0.827   2.891  -7.695  1.00  0.00     0.198 HD
BRANCH  20  23
HETATM   23  O1  UNL     1      -2.549   4.221 -10.058  1.00  0.00    -0.331 OA
ATOM     24  H1  UNL     1      -1.847   4.590 -10.581  1.00  0.00     0.221 HD
ENDBRANCH  20  23
BRANCH  21  25
HETATM   25  O2  UNL     1       0.043   3.963  -9.241  1.00  0.00    -0.287 OA
ATOM     26  H2  UNL     1      -0.015   4.723  -9.808  1.00  0.00     0.244 HD
ENDBRANCH  21  25
ENDBRANCH  18  20
ENDBRANCH  13  18
ENDBRANCH  10  13
ENDBRANCH   8   9
ENDBRANCH   5   8
ENDBRANCH   1   2
BRANCH   1  27
HETATM   27  C12 UNL     1      -2.961   8.350  -2.177  1.00  0.00     0.177 C 
HETATM   28  O4  UNL     1      -2.800   9.574  -2.052  1.00  0.00    -0.291 OA
BRANCH  27  29
HETATM   29  C13 UNL     1      -1.932   7.558  -2.826  1.00  0.00     0.011 A 
HETATM   30  C14 UNL     1      -1.236   6.578  -2.099  1.00  0.00     0.016 A 
HETATM   31  C15 UNL     1      -0.225   5.825  -2.689  1.00  0.00     0.013 A 
HETATM   32  C16 UNL     1       0.101   6.038  -3.997  1.00  0.00    -0.026 A 
HETATM   33  C31 UNL     1      -0.562   6.989  -4.742  1.00  0.00     0.013 A 
HETATM   34  C32 UNL     1      -1.580   7.740  -4.132  1.00  0.00     0.016 A 
BRANCH  32  35
HETATM   35  C17 UNL     1       1.186   5.250  -4.554  1.00  0.00    -0.026 A 
HETATM   36  C18 UNL     1       2.323   4.992  -3.824  1.00  0.00     0.013 A 
HETATM   37  C19 UNL     1       3.336   4.223  -4.344  1.00  0.00     0.008 A 
HETATM   38  C20 UNL     1       3.259   3.681  -5.609  1.00  0.00    -0.057 A 
HETATM   39  C29 UNL     1       2.108   3.944  -6.345  1.00  0.00     0.008 A 
HETATM   40  C30 UNL     1       1.093   4.717  -5.820  1.00  0.00     0.013 A 
BRANCH  38  41
HETATM   41  C21 UNL     1       4.375   2.857  -6.113  1.00  0.00     0.058 C 
BRANCH  41  42
HETATM   42  C22 UNL     1       3.853   1.535  -6.672  1.00  0.00     0.132 C 
BRANCH  42  43
HETATM   43  N5  UNL     1       3.430   0.742  -5.542  1.00  0.00    -0.366 N 
HETATM   44  C23 UNL     1       4.296   0.330  -4.610  1.00  0.00     0.091 A 
HETATM   45  C24 UNL     1       3.890  -0.440  -3.514  1.00  0.00     0.035 A 
HETATM   46  C25 UNL     1       2.553  -0.790  -3.383  1.00  0.00     0.043 A 
HETATM   47  C27 UNL     1       1.678  -0.359  -4.350  1.00  0.00     0.035 A 
HETATM   48  C28 UNL     1       2.145   0.404  -5.415  1.00  0.00     0.091 A 
BRANCH  46  49
HETATM   49  C26 UNL     1       2.139  -1.592  -2.242  1.00  0.00     0.209 C 
HETATM   50  O5  UNL     1       1.157  -1.261  -1.526  1.00  0.00    -0.644 OA
HETATM   51  O6  UNL     1       2.812  -2.730  -1.920  1.00  0.00    -0.644 OA
ENDBRANCH  46  49
ENDBRANCH  42  43
ENDBRANCH  41  42
ENDBRANCH  38  41
ENDBRANCH  32  35
ENDBRANCH  27  29
ENDBRANCH   1  27
TORSDOF 18
ENDMDL
