MODEL 1
REMARK VINA RESULT: -6.676297963      0.000      0.000
REMARK  3 active torsions:
REMARK  status: ('A' for Active; 'I' for Inactive)
REMARK    1  A    between atoms: C7_9  and  C8_10 
REMARK    2  A    between atoms: C11_15  and  C12_16 
REMARK    3  A    between atoms: C12_16  and  O4_17 
ROOT
HETATM    1  C1  UNL     1      -6.173   4.680  14.019  1.00  0.00     0.048 C 
HETATM    2  C2  UNL     1      -5.097   3.994  13.171  1.00  0.00     0.083 C 
HETATM    3  C3  UNL     1      -4.366   4.992  12.338  1.00  0.00     0.048 C 
HETATM    4  O1  UNL     1      -5.767   3.086  12.335  1.00  0.00    -0.308 OA
HETATM    5  C4  UNL     1      -5.310   1.877  11.911  1.00  0.00     0.273 C 
HETATM    6  O2  UNL     1      -5.993   1.254  11.032  1.00  0.00    -0.264 OA
HETATM    7  C5  UNL     1      -4.076   1.204  12.377  1.00  0.00     0.148 C 
HETATM    8  C6  UNL     1      -4.303   0.738  13.805  1.00  0.00     0.034 C 
HETATM    9  C7  UNL     1      -4.928   1.968  14.475  1.00  0.00     0.040 C 
HETATM   10  C11 UNL     1      -4.165   3.176  14.076  1.00  0.00     0.067 C 
HETATM   11  S1  UNL     1      -2.925   2.580  12.837  1.00  0.00    -0.138 SA
ENDROOT
BRANCH   9  12
HETATM   12  C8  UNL     1      -5.175   1.763  15.920  1.00  0.00     0.135 C 
HETATM   13  C9  UNL     1      -5.329   0.406  16.478  1.00  0.00     0.098 C 
HETATM   14  C10 UNL     1      -6.378   1.136  17.297  1.00  0.00     0.309 C 
HETATM   15  F1  UNL     1      -7.508   0.433  17.574  1.00  0.00    -0.220 F 
HETATM   16  O3  UNL     1      -6.546   1.985  16.196  1.00  0.00    -0.351 OA
ENDBRANCH   9  12
BRANCH  10  17
HETATM   17  C12 UNL     1      -3.505   3.983  15.108  1.00  0.00     0.188 C 
BRANCH  17  18
HETATM   18  O4  UNL     1      -2.171   3.507  15.208  1.00  0.00    -0.399 OA
ATOM     19  H4  UNL     1      -1.792   3.911  15.980  1.00  0.00     0.209 HD
ENDBRANCH  17  18
ENDBRANCH  10  17
TORSDOF 3
ENDMDL
MODEL 2
REMARK VINA RESULT: -6.483177560      3.004      4.828
REMARK  3 active torsions:
REMARK  status: ('A' for Active; 'I' for Inactive)
REMARK    1  A    between atoms: C7_9  and  C8_10 
REMARK    2  A    between atoms: C11_15  and  C12_16 
REMARK    3  A    between atoms: C12_16  and  O4_17 
ROOT
HETATM    1  C1  UNL     1      -2.202   4.828  13.997  1.00  0.00     0.048 C 
HETATM    2  C2  UNL     1      -3.531   4.269  14.515  1.00  0.00     0.083 C 
HETATM    3  C3  UNL     1      -4.297   5.321  15.243  1.00  0.00     0.048 C 
HETATM    4  O1  UNL     1      -3.208   3.227  15.399  1.00  0.00    -0.308 OA
HETATM    5  C4  UNL     1      -3.913   2.081  15.601  1.00  0.00     0.273 C 
HETATM    6  O2  UNL     1      -3.549   1.316  16.554  1.00  0.00    -0.264 OA
HETATM    7  C5  UNL     1      -5.080   1.630  14.810  1.00  0.00     0.148 C 
HETATM    8  C6  UNL     1      -4.586   1.211  13.435  1.00  0.00     0.034 C 
HETATM    9  C7  UNL     1      -3.659   2.365  13.035  1.00  0.00     0.040 C 
HETATM   10  C11 UNL     1      -4.324   3.652  13.354  1.00  0.00     0.067 C 
HETATM   11  S1  UNL     1      -5.892   3.187  14.222  1.00  0.00    -0.138 SA
ENDROOT
BRANCH   9  12
HETATM   12  C8  UNL     1      -3.106   2.202  11.672  1.00  0.00     0.135 C 
HETATM   13  C9  UNL     1      -3.059   0.875  11.027  1.00  0.00     0.098 C 
HETATM   14  C10 UNL     1      -1.731   1.436  10.550  1.00  0.00     0.309 C 
HETATM   15  F1  UNL     1      -0.707   0.545  10.468  1.00  0.00    -0.220 F 
HETATM   16  O3  UNL     1      -1.692   2.170  11.741  1.00  0.00    -0.351 OA
ENDBRANCH   9  12
BRANCH  10  17
HETATM   17  C12 UNL     1      -4.605   4.603  12.273  1.00  0.00     0.188 C 
BRANCH  17  18
HETATM   18  O4  UNL     1      -6.003   4.846  12.295  1.00  0.00    -0.399 OA
ATOM     19  H4  UNL     1      -6.305   4.794  11.395  1.00  0.00     0.209 HD
ENDBRANCH  17  18
ENDBRANCH  10  17
TORSDOF 3
ENDMDL
MODEL 3
REMARK VINA RESULT: -6.462720216      2.762      4.600
REMARK  3 active torsions:
REMARK  status: ('A' for Active; 'I' for Inactive)
REMARK    1  A    between atoms: C7_9  and  C8_10 
REMARK    2  A    between atoms: C11_15  and  C12_16 
REMARK    3  A    between atoms: C12_16  and  O4_17 
ROOT
HETATM    1  C1  UNL     1      -1.906   4.250  13.305  1.00  0.00     0.048 C 
HETATM    2  C2  UNL     1      -3.192   4.031  14.108  1.00  0.00     0.083 C 
HETATM    3  C3  UNL     1      -3.648   5.306  14.733  1.00  0.00     0.048 C 
HETATM    4  O1  UNL     1      -2.880   3.101  15.114  1.00  0.00    -0.308 OA
HETATM    5  C4  UNL     1      -3.704   2.149  15.627  1.00  0.00     0.273 C 
HETATM    6  O2  UNL     1      -3.298   1.491  16.642  1.00  0.00    -0.264 OA
HETATM    7  C5  UNL     1      -5.047   1.795  15.115  1.00  0.00     0.148 C 
HETATM    8  C6  UNL     1      -4.874   1.081  13.785  1.00  0.00     0.034 C 
HETATM    9  C7  UNL     1      -3.868   1.971  13.044  1.00  0.00     0.040 C 
HETATM   10  C11 UNL     1      -4.262   3.391  13.212  1.00  0.00     0.067 C 
HETATM   11  S1  UNL     1      -5.704   3.360  14.374  1.00  0.00    -0.138 SA
ENDROOT
BRANCH   9  12
HETATM   12  C8  UNL     1      -3.595   1.496  11.669  1.00  0.00     0.135 C 
HETATM   13  C9  UNL     1      -4.516   0.560  10.994  1.00  0.00     0.098 C 
HETATM   14  C10 UNL     1      -3.189   0.005  10.508  1.00  0.00     0.309 C 
HETATM   15  F1  UNL     1      -3.120  -1.348  10.390  1.00  0.00    -0.220 F 
HETATM   16  O3  UNL     1      -2.638   0.454  11.715  1.00  0.00    -0.351 OA
ENDBRANCH   9  12
BRANCH  10  17
HETATM   17  C12 UNL     1      -4.581   4.193  12.027  1.00  0.00     0.188 C 
BRANCH  17  18
HETATM   18  O4  UNL     1      -5.918   4.643  12.186  1.00  0.00    -0.399 OA
ATOM     19  H4  UNL     1      -6.265   4.788  11.312  1.00  0.00     0.209 HD
ENDBRANCH  17  18
ENDBRANCH  10  17
TORSDOF 3
ENDMDL
MODEL 4
REMARK VINA RESULT: -6.121565590      2.971      4.763
REMARK  3 active torsions:
REMARK  status: ('A' for Active; 'I' for Inactive)
REMARK    1  A    between atoms: C7_9  and  C8_10 
REMARK    2  A    between atoms: C11_15  and  C12_16 
REMARK    3  A    between atoms: C12_16  and  O4_17 
ROOT
HETATM    1  C1  UNL     1      -1.114   3.291  11.660  1.00  0.00     0.048 C 
HETATM    2  C2  UNL     1      -2.334   3.887  12.368  1.00  0.00     0.083 C 
HETATM    3  C3  UNL     1      -2.285   5.377  12.339  1.00  0.00     0.048 C 
HETATM    4  O1  UNL     1      -2.279   3.442  13.699  1.00  0.00    -0.308 OA
HETATM    5  C4  UNL     1      -3.334   3.145  14.504  1.00  0.00     0.273 C 
HETATM    6  O2  UNL     1      -3.099   2.900  15.733  1.00  0.00    -0.264 OA
HETATM    7  C5  UNL     1      -4.753   3.077  14.085  1.00  0.00     0.148 C 
HETATM    8  C6  UNL     1      -4.931   1.844  13.215  1.00  0.00     0.034 C 
HETATM    9  C7  UNL     1      -3.742   1.929  12.249  1.00  0.00     0.040 C 
HETATM   10  C11 UNL     1      -3.621   3.321  11.752  1.00  0.00     0.067 C 
HETATM   11  S1  UNL     1      -4.897   4.284  12.688  1.00  0.00    -0.138 SA
ENDROOT
BRANCH   9  12
HETATM   12  C8  UNL     1      -3.750   0.843  11.243  1.00  0.00     0.135 C 
HETATM   13  C9  UNL     1      -4.527  -0.391  11.466  1.00  0.00     0.098 C 
HETATM   14  C10 UNL     1      -3.293  -0.984  10.810  1.00  0.00     0.309 C 
HETATM   15  F1  UNL     1      -2.889  -2.190  11.290  1.00  0.00    -0.220 F 
HETATM   16  O3  UNL     1      -2.570   0.073  11.376  1.00  0.00    -0.351 OA
ENDBRANCH   9  12
BRANCH  10  17
HETATM   17  C12 UNL     1      -3.740   3.584  10.314  1.00  0.00     0.188 C 
BRANCH  17  18
HETATM   18  O4  UNL     1      -4.984   4.240  10.119  1.00  0.00    -0.399 OA
ATOM     19  H4  UNL     1      -5.657   3.654  10.445  1.00  0.00     0.209 HD
ENDBRANCH  17  18
ENDBRANCH  10  17
TORSDOF 3
ENDMDL
MODEL 5
REMARK VINA RESULT: -6.096992451      2.609      3.441
REMARK  3 active torsions:
REMARK  status: ('A' for Active; 'I' for Inactive)
REMARK    1  A    between atoms: C7_9  and  C8_10 
REMARK    2  A    between atoms: C11_15  and  C12_16 
REMARK    3  A    between atoms: C12_16  and  O4_17 
ROOT
HETATM    1  C1  UNL     1      -6.404   3.143  14.066  1.00  0.00     0.048 C 
HETATM    2  C2  UNL     1      -5.334   4.118  13.564  1.00  0.00     0.083 C 
HETATM    3  C3  UNL     1      -5.357   5.380  14.357  1.00  0.00     0.048 C 
HETATM    4  O1  UNL     1      -5.648   4.399  12.224  1.00  0.00    -0.308 OA
HETATM    5  C4  UNL     1      -4.770   4.639  11.214  1.00  0.00     0.273 C 
HETATM    6  O2  UNL     1      -5.238   5.026  10.093  1.00  0.00    -0.264 OA
HETATM    7  C5  UNL     1      -3.298   4.493  11.291  1.00  0.00     0.148 C 
HETATM    8  C6  UNL     1      -2.973   3.010  11.366  1.00  0.00     0.034 C 
HETATM    9  C7  UNL     1      -3.954   2.495  12.426  1.00  0.00     0.040 C 
HETATM   10  C11 UNL     1      -3.960   3.432  13.576  1.00  0.00     0.067 C 
HETATM   11  S1  UNL     1      -2.874   4.840  13.060  1.00  0.00    -0.138 SA
ENDROOT
BRANCH   9  12
HETATM   12  C8  UNL     1      -3.768   1.056  12.719  1.00  0.00     0.135 C 
HETATM   13  C9  UNL     1      -3.153   0.153  11.727  1.00  0.00     0.098 C 
HETATM   14  C10 UNL     1      -4.223  -0.771  12.280  1.00  0.00     0.309 C 
HETATM   15  F1  UNL     1      -4.810  -1.603  11.379  1.00  0.00    -0.220 F 
HETATM   16  O3  UNL     1      -4.993   0.375  12.515  1.00  0.00    -0.351 OA
ENDBRANCH   9  12
BRANCH  10  17
HETATM   17  C12 UNL     1      -3.566   2.945  14.902  1.00  0.00     0.188 C 
BRANCH  17  18
HETATM   18  O4  UNL     1      -2.278   3.479  15.167  1.00  0.00    -0.399 OA
ATOM     19  H4  UNL     1      -1.664   2.995  14.627  1.00  0.00     0.209 HD
ENDBRANCH  17  18
ENDBRANCH  10  17
TORSDOF 3
ENDMDL
