MODEL 1
REMARK VINA RESULT: -6.699185537      0.000      0.000
REMARK  4 active torsions:
REMARK  status: ('A' for Active; 'I' for Inactive)
REMARK    1  A    between atoms: C2_2  and  C3_3 
REMARK    2  A    between atoms: C3_3  and  C4_4 
REMARK    3  A    between atoms: C7_10  and  C8_11 
REMARK    4  A    between atoms: C11_15  and  O4_16 
ROOT
HETATM    1  C4  UNL     1      -4.411   0.940  15.694  1.00  0.00     0.126 C 
HETATM    2  C5  UNL     1      -4.429  -0.526  15.483  1.00  0.00     0.052 C 
HETATM    3  O1  UNL     1      -3.106   1.458  15.874  1.00  0.00    -0.224 OA
HETATM    4  O2  UNL     1      -3.373   2.748  15.849  1.00  0.00    -0.204 OA
HETATM    5  C6  UNL     1      -4.048   2.996  14.654  1.00  0.00     0.329 C 
HETATM    6  O3  UNL     1      -3.095   3.285  13.709  1.00  0.00    -0.341 OA
HETATM    7  C7  UNL     1      -3.388   2.935  12.437  1.00  0.00     0.209 C 
HETATM    8  C11 UNL     1      -3.937   1.552  12.265  1.00  0.00     0.290 C 
HETATM    9  O5  UNL     1      -4.455   0.973  13.374  1.00  0.00    -0.345 OA
HETATM   10  C12 UNL     1      -4.796   1.726  14.427  1.00  0.00     0.220 C 
ENDROOT
BRANCH   1  11
HETATM   11  C3  UNL     1      -5.204   1.412  16.883  1.00  0.00     0.070 C 
BRANCH  11  12
HETATM   12  C2  UNL     1      -6.285   0.399  17.108  1.00  0.00    -0.034 C 
HETATM   13  C1  UNL     1      -7.554   0.702  17.193  1.00  0.00     0.007 C 
ENDBRANCH  11  12
ENDBRANCH   1  11
BRANCH   8  14
HETATM   14  O4  UNL     1      -2.867   0.743  11.832  1.00  0.00    -0.368 OA
ATOM     15  H4  UNL     1      -3.161   0.300  11.045  1.00  0.00     0.212 HD
ENDBRANCH   8  14
BRANCH   7  16
HETATM   16  C8  UNL     1      -2.240   3.222  11.557  1.00  0.00    -0.040 C 
HETATM   17  C9  UNL     1      -0.848   2.907  12.074  1.00  0.00     0.047 C 
HETATM   18  C10 UNL     1      -2.280   3.734  10.349  1.00  0.00     0.089 C 
HETATM   19 CL1  UNL     1      -3.811   4.152   9.624  1.00  0.00    -0.097 Cl
ENDBRANCH   7  16
TORSDOF 4
ENDMDL
MODEL 2
REMARK VINA RESULT: -6.237715263      2.694      4.500
REMARK  4 active torsions:
REMARK  status: ('A' for Active; 'I' for Inactive)
REMARK    1  A    between atoms: C2_2  and  C3_3 
REMARK    2  A    between atoms: C3_3  and  C4_4 
REMARK    3  A    between atoms: C7_10  and  C8_11 
REMARK    4  A    between atoms: C11_15  and  O4_16 
ROOT
HETATM    1  C4  UNL     1      -4.573   0.852  12.197  1.00  0.00     0.126 C 
HETATM    2  C5  UNL     1      -4.410   0.349  13.580  1.00  0.00     0.052 C 
HETATM    3  O1  UNL     1      -5.778   1.567  12.006  1.00  0.00    -0.224 OA
HETATM    4  O2  UNL     1      -5.570   2.036  10.791  1.00  0.00    -0.204 OA
HETATM    5  C6  UNL     1      -4.362   2.730  10.831  1.00  0.00     0.329 C 
HETATM    6  O3  UNL     1      -4.657   4.029  11.163  1.00  0.00    -0.341 OA
HETATM    7  C7  UNL     1      -3.715   4.697  11.864  1.00  0.00     0.209 C 
HETATM    8  C11 UNL     1      -3.129   3.949  13.022  1.00  0.00     0.290 C 
HETATM    9  O5  UNL     1      -3.280   2.603  13.002  1.00  0.00    -0.345 OA
HETATM   10  C12 UNL     1      -3.581   1.979  11.855  1.00  0.00     0.220 C 
ENDROOT
BRANCH   1  11
HETATM   11  C3  UNL     1      -4.560  -0.216  11.136  1.00  0.00     0.070 C 
BRANCH  11  12
HETATM   12  C2  UNL     1      -3.215  -0.872  11.203  1.00  0.00    -0.034 C 
HETATM   13  C1  UNL     1      -3.045  -2.153  11.402  1.00  0.00     0.007 C 
ENDBRANCH  11  12
ENDBRANCH   1  11
BRANCH   8  14
HETATM   14  O4  UNL     1      -3.775   4.425  14.180  1.00  0.00    -0.368 OA
ATOM     15  H4  UNL     1      -3.310   4.058  14.922  1.00  0.00     0.212 HD
ENDBRANCH   8  14
BRANCH   7  16
HETATM   16  C8  UNL     1      -4.210   6.039  12.225  1.00  0.00    -0.040 C 
HETATM   17  C9  UNL     1      -5.706   6.225  12.397  1.00  0.00     0.047 C 
HETATM   18  C10 UNL     1      -3.491   7.120  12.418  1.00  0.00     0.089 C 
HETATM   19 CL1  UNL     1      -1.754   7.060  12.250  1.00  0.00    -0.097 Cl
ENDBRANCH   7  16
TORSDOF 4
ENDMDL
MODEL 3
REMARK VINA RESULT: -6.135435807      3.131      4.434
REMARK  4 active torsions:
REMARK  status: ('A' for Active; 'I' for Inactive)
REMARK    1  A    between atoms: C2_2  and  C3_3 
REMARK    2  A    between atoms: C3_3  and  C4_4 
REMARK    3  A    between atoms: C7_10  and  C8_11 
REMARK    4  A    between atoms: C11_15  and  O4_16 
ROOT
HETATM    1  C4  UNL     1      -5.032   4.382  14.020  1.00  0.00     0.126 C 
HETATM    2  C5  UNL     1      -6.433   4.744  13.709  1.00  0.00     0.052 C 
HETATM    3  O1  UNL     1      -4.923   3.215  14.812  1.00  0.00    -0.224 OA
HETATM    4  O2  UNL     1      -3.618   3.037  14.771  1.00  0.00    -0.204 OA
HETATM    5  C6  UNL     1      -3.263   2.983  13.424  1.00  0.00     0.329 C 
HETATM    6  O3  UNL     1      -3.345   1.668  13.040  1.00  0.00    -0.341 OA
HETATM    7  C7  UNL     1      -3.679   1.441  11.751  1.00  0.00     0.209 C 
HETATM    8  C11 UNL     1      -4.839   2.239  11.240  1.00  0.00     0.290 C 
HETATM    9  O5  UNL     1      -5.153   3.354  11.943  1.00  0.00    -0.345 OA
HETATM   10  C12 UNL     1      -4.258   3.891  12.783  1.00  0.00     0.220 C 
ENDROOT
BRANCH   1  11
HETATM   11  C3  UNL     1      -4.257   5.445  14.752  1.00  0.00     0.070 C 
BRANCH  11  12
HETATM   12  C2  UNL     1      -3.801   6.432  13.720  1.00  0.00    -0.034 C 
HETATM   13  C1  UNL     1      -2.743   7.187  13.860  1.00  0.00     0.007 C 
ENDBRANCH  11  12
ENDBRANCH   1  11
BRANCH   8  14
HETATM   14  O4  UNL     1      -5.963   1.391  11.278  1.00  0.00    -0.368 OA
ATOM     15  H4  UNL     1      -5.999   1.025  12.153  1.00  0.00     0.212 HD
ENDBRANCH   8  14
BRANCH   7  16
HETATM   16  C8  UNL     1      -3.819  -0.009  11.513  1.00  0.00    -0.040 C 
HETATM   17  C9  UNL     1      -3.535  -0.534  10.117  1.00  0.00     0.047 C 
HETATM   18  C10 UNL     1      -4.171  -0.922  12.388  1.00  0.00     0.089 C 
HETATM   19 CL1  UNL     1      -4.533  -0.467  14.033  1.00  0.00    -0.097 Cl
ENDBRANCH   7  16
TORSDOF 4
ENDMDL
MODEL 4
REMARK VINA RESULT: -6.015797277      2.412      5.354
REMARK  4 active torsions:
REMARK  status: ('A' for Active; 'I' for Inactive)
REMARK    1  A    between atoms: C2_2  and  C3_3 
REMARK    2  A    between atoms: C3_3  and  C4_4 
REMARK    3  A    between atoms: C7_10  and  C8_11 
REMARK    4  A    between atoms: C11_15  and  O4_16 
ROOT
HETATM    1  C4  UNL     1      -4.265   0.172  11.890  1.00  0.00     0.126 C 
HETATM    2  C5  UNL     1      -4.206  -1.290  12.116  1.00  0.00     0.052 C 
HETATM    3  O1  UNL     1      -5.587   0.659  11.755  1.00  0.00    -0.224 OA
HETATM    4  O2  UNL     1      -5.350   1.956  11.756  1.00  0.00    -0.204 OA
HETATM    5  C6  UNL     1      -4.635   2.232  12.921  1.00  0.00     0.329 C 
HETATM    6  O3  UNL     1      -5.557   2.511  13.899  1.00  0.00    -0.341 OA
HETATM    7  C7  UNL     1      -5.207   2.182  15.162  1.00  0.00     0.209 C 
HETATM    8  C11 UNL     1      -4.621   0.813  15.328  1.00  0.00     0.290 C 
HETATM    9  O5  UNL     1      -4.133   0.233  14.206  1.00  0.00    -0.345 OA
HETATM   10  C12 UNL     1      -3.850   0.982  13.132  1.00  0.00     0.220 C 
ENDROOT
BRANCH   1  11
HETATM   11  C3  UNL     1      -3.529   0.649  10.666  1.00  0.00     0.070 C 
BRANCH  11  12
HETATM   12  C2  UNL     1      -2.070   0.443  10.936  1.00  0.00    -0.034 C 
HETATM   13  C1  UNL     1      -1.136   1.257  10.518  1.00  0.00     0.007 C 
ENDBRANCH  11  12
ENDBRANCH   1  11
BRANCH   8  14
HETATM   14  O4  UNL     1      -5.655  -0.014  15.810  1.00  0.00    -0.368 OA
ATOM     15  H4  UNL     1      -5.324  -0.434  16.595  1.00  0.00     0.212 HD
ENDBRANCH   8  14
BRANCH   7  16
HETATM   16  C8  UNL     1      -6.327   2.453  16.083  1.00  0.00    -0.040 C 
HETATM   17  C9  UNL     1      -6.927   1.283  16.842  1.00  0.00     0.047 C 
HETATM   18  C10 UNL     1      -6.882   3.617  16.329  1.00  0.00     0.089 C 
HETATM   19 CL1  UNL     1      -6.301   5.054  15.527  1.00  0.00    -0.097 Cl
ENDBRANCH   7  16
TORSDOF 4
ENDMDL
MODEL 5
REMARK VINA RESULT: -6.006079413      2.301      3.250
REMARK  4 active torsions:
REMARK  status: ('A' for Active; 'I' for Inactive)
REMARK    1  A    between atoms: C2_2  and  C3_3 
REMARK    2  A    between atoms: C3_3  and  C4_4 
REMARK    3  A    between atoms: C7_10  and  C8_11 
REMARK    4  A    between atoms: C11_15  and  O4_16 
ROOT
HETATM    1  C4  UNL     1      -5.799   1.352  16.185  1.00  0.00     0.126 C 
HETATM    2  C5  UNL     1      -6.729   2.462  15.879  1.00  0.00     0.052 C 
HETATM    3  O1  UNL     1      -6.298   0.087  15.791  1.00  0.00    -0.224 OA
HETATM    4  O2  UNL     1      -5.227  -0.652  16.003  1.00  0.00    -0.204 OA
HETATM    5  C6  UNL     1      -4.188  -0.070  15.277  1.00  0.00     0.329 C 
HETATM    6  O3  UNL     1      -4.202  -0.643  14.029  1.00  0.00    -0.341 OA
HETATM    7  C7  UNL     1      -3.783   0.136  13.008  1.00  0.00     0.209 C 
HETATM    8  C11 UNL     1      -4.349   1.523  12.987  1.00  0.00     0.290 C 
HETATM    9  O5  UNL     1      -4.863   1.976  14.155  1.00  0.00    -0.345 OA
HETATM   10  C12 UNL     1      -4.533   1.380  15.309  1.00  0.00     0.220 C 
ENDROOT
BRANCH   1  11
HETATM   11  C3  UNL     1      -5.443   1.214  17.641  1.00  0.00     0.070 C 
BRANCH  11  12
HETATM   12  C2  UNL     1      -6.658   1.618  18.420  1.00  0.00    -0.034 C 
HETATM   13  C1  UNL     1      -6.619   2.010  19.666  1.00  0.00     0.007 C 
ENDBRANCH  11  12
ENDBRANCH   1  11
BRANCH   8  14
HETATM   14  O4  UNL     1      -5.396   1.518  12.044  1.00  0.00    -0.368 OA
ATOM     15  H4  UNL     1      -6.060   2.114  12.370  1.00  0.00     0.212 HD
ENDBRANCH   8  14
BRANCH   7  16
HETATM   16  C8  UNL     1      -3.943  -0.580  11.728  1.00  0.00    -0.040 C 
HETATM   17  C9  UNL     1      -4.974  -1.691  11.655  1.00  0.00     0.047 C 
HETATM   18  C10 UNL     1      -3.279  -0.367  10.616  1.00  0.00     0.089 C 
HETATM   19 CL1  UNL     1      -2.056   0.877  10.549  1.00  0.00    -0.097 Cl
ENDBRANCH   7  16
TORSDOF 4
ENDMDL
