MODEL 1
REMARK VINA RESULT: -7.408042080      0.000      0.000
REMARK  6 active torsions:
REMARK  status: ('A' for Active; 'I' for Inactive)
REMARK    1  A    between atoms: N1_1  and  N2_4 
REMARK    2  A    between atoms: N2_4  and  N3_5 
REMARK    3  A    between atoms: N3_5  and  C1_7 
REMARK    4  A    between atoms: C1_7  and  O1_8 
REMARK    5  A    between atoms: C7_16  and  C8_17 
REMARK    6  A    between atoms: N4_18  and  O2_20 
ROOT
HETATM    1  C1  UNL     1      -4.354   2.020  14.567  1.00  0.00     0.260 C 
HETATM    2  C2  UNL     1      -3.721   3.333  14.242  1.00  0.00     0.164 C 
HETATM    3 CL1  UNL     1      -4.615   4.697  14.974  1.00  0.00    -0.118 Cl
HETATM    4  C3  UNL     1      -3.787   3.445  12.737  1.00  0.00     0.052 C 
HETATM    5  C4  UNL     1      -3.679   1.987  12.276  1.00  0.00     0.093 C 
HETATM    6  C5  UNL     1      -4.568   1.807  11.106  1.00  0.00     0.027 C 
HETATM    7  C6  UNL     1      -4.863   0.428  10.692  1.00  0.00     0.021 C 
HETATM    8  C7  UNL     1      -4.576  -0.641  11.689  1.00  0.00     0.118 C 
HETATM    9  C9  UNL     1      -4.553  -0.138  13.091  1.00  0.00     0.233 C 
HETATM   10  O3  UNL     1      -4.810  -0.890  14.066  1.00  0.00    -0.272 OA
HETATM   11  N5  UNL     1      -4.239   1.218  13.388  1.00  0.00    -0.294 N 
ENDROOT
BRANCH   1  12
HETATM   12  N3  UNL     1      -3.642   1.336  15.636  1.00  0.00    -0.196 N 
ATOM     13  H3  UNL     1      -2.623   1.377  15.654  1.00  0.00     0.202 HD
BRANCH  12  14
HETATM   14  N2  UNL     1      -4.221   0.714  16.512  1.00  0.00    -0.244 NA
BRANCH  14  15
HETATM   15  N1  UNL     1      -5.041   0.042  17.157  1.00  0.00    -0.261 N 
ATOM     16  H12 UNL     1      -5.802   0.215  16.500  1.00  0.00     0.193 HD
ATOM     17  H11 UNL     1      -5.496  -0.547  17.855  1.00  0.00     0.193 HD
ENDBRANCH  14  15
ENDBRANCH  12  14
ENDBRANCH   1  12
BRANCH   1  18
HETATM   18  O1  UNL     1      -5.665   2.183  14.995  1.00  0.00    -0.351 OA
ATOM     19  H1  UNL     1      -5.984   2.989  14.608  1.00  0.00     0.214 HD
ENDBRANCH   1  18
BRANCH   8  20
HETATM   20  C8  UNL     1      -3.350  -1.416  11.367  1.00  0.00     0.100 C 
HETATM   21  N4  UNL     1      -3.175  -2.635  11.657  1.00  0.00    -0.283 N 
ATOM     22  H4  UNL     1      -3.941  -3.099  12.145  1.00  0.00     0.192 HD
BRANCH  21  23
HETATM   23  O2  UNL     1      -2.090  -3.389  11.392  1.00  0.00    -0.291 OA
ATOM     24  H2  UNL     1      -1.517  -3.812  12.021  1.00  0.00     0.244 HD
ENDBRANCH  21  23
ENDBRANCH   8  20
TORSDOF 6
ENDMDL
MODEL 2
REMARK VINA RESULT: -6.888674683      1.171      1.580
REMARK  6 active torsions:
REMARK  status: ('A' for Active; 'I' for Inactive)
REMARK    1  A    between atoms: N1_1  and  N2_4 
REMARK    2  A    between atoms: N2_4  and  N3_5 
REMARK    3  A    between atoms: N3_5  and  C1_7 
REMARK    4  A    between atoms: C1_7  and  O1_8 
REMARK    5  A    between atoms: C7_16  and  C8_17 
REMARK    6  A    between atoms: N4_18  and  O2_20 
ROOT
HETATM    1  C1  UNL     1      -4.567   2.685  14.041  1.00  0.00     0.260 C 
HETATM    2  C2  UNL     1      -4.151   3.951  13.366  1.00  0.00     0.164 C 
HETATM    3 CL1  UNL     1      -5.207   5.320  13.818  1.00  0.00    -0.118 Cl
HETATM    4  C3  UNL     1      -4.295   3.678  11.886  1.00  0.00     0.052 C 
HETATM    5  C4  UNL     1      -3.989   2.179  11.779  1.00  0.00     0.093 C 
HETATM    6  C5  UNL     1      -4.889   1.599  10.757  1.00  0.00     0.027 C 
HETATM    7  C6  UNL     1      -4.992   0.133  10.707  1.00  0.00     0.021 C 
HETATM    8  C7  UNL     1      -4.508  -0.609  11.905  1.00  0.00     0.118 C 
HETATM    9  C9  UNL     1      -4.502   0.224  13.141  1.00  0.00     0.233 C 
HETATM   10  O3  UNL     1      -4.603  -0.292  14.284  1.00  0.00    -0.272 OA
HETATM   11  N5  UNL     1      -4.382   1.640  13.082  1.00  0.00    -0.294 N 
ENDROOT
BRANCH   1  12
HETATM   12  N3  UNL     1      -3.717   2.388  15.184  1.00  0.00    -0.196 N 
ATOM     13  H3  UNL     1      -3.960   1.602  15.787  1.00  0.00     0.202 HD
BRANCH  12  14
HETATM   14  N2  UNL     1      -2.725   3.047  15.448  1.00  0.00    -0.244 NA
BRANCH  14  15
HETATM   15  N1  UNL     1      -1.580   3.528  15.469  1.00  0.00    -0.261 N 
ATOM     16  H12 UNL     1      -1.136   2.634  15.680  1.00  0.00     0.193 HD
ATOM     17  H11 UNL     1      -0.779   4.157  15.429  1.00  0.00     0.193 HD
ENDBRANCH  14  15
ENDBRANCH  12  14
ENDBRANCH   1  12
BRANCH   1  18
HETATM   18  O1  UNL     1      -5.869   2.771  14.517  1.00  0.00    -0.351 OA
ATOM     19  H1  UNL     1      -6.420   2.988  13.775  1.00  0.00     0.214 HD
ENDBRANCH   1  18
BRANCH   8  20
HETATM   20  C8  UNL     1      -3.194  -1.266  11.684  1.00  0.00     0.100 C 
HETATM   21  N4  UNL     1      -3.034  -2.511  11.522  1.00  0.00    -0.283 N 
ATOM     22  H4  UNL     1      -3.877  -3.084  11.550  1.00  0.00     0.192 HD
BRANCH  21  23
HETATM   23  O2  UNL     1      -1.873  -3.164  11.319  1.00  0.00    -0.291 OA
ATOM     24  H2  UNL     1      -1.001  -2.789  11.282  1.00  0.00     0.244 HD
ENDBRANCH  21  23
ENDBRANCH   8  20
TORSDOF 6
ENDMDL
MODEL 3
REMARK VINA RESULT: -6.690923982      3.097      4.268
REMARK  6 active torsions:
REMARK  status: ('A' for Active; 'I' for Inactive)
REMARK    1  A    between atoms: N1_1  and  N2_4 
REMARK    2  A    between atoms: N2_4  and  N3_5 
REMARK    3  A    between atoms: N3_5  and  C1_7 
REMARK    4  A    between atoms: C1_7  and  O1_8 
REMARK    5  A    between atoms: C7_16  and  C8_17 
REMARK    6  A    between atoms: N4_18  and  O2_20 
ROOT
HETATM    1  C1  UNL     1      -2.519   3.002  11.062  1.00  0.00     0.260 C 
HETATM    2  C2  UNL     1      -1.145   2.689  10.569  1.00  0.00     0.164 C 
HETATM    3 CL1  UNL     1      -0.796   3.509   9.020  1.00  0.00    -0.118 Cl
HETATM    4  C3  UNL     1      -1.131   1.193  10.355  1.00  0.00     0.052 C 
HETATM    5  C4  UNL     1      -2.097   0.680  11.429  1.00  0.00     0.093 C 
HETATM    6  C5  UNL     1      -2.865  -0.448  10.857  1.00  0.00     0.027 C 
HETATM    7  C6  UNL     1      -4.058  -0.892  11.592  1.00  0.00     0.021 C 
HETATM    8  C7  UNL     1      -4.604   0.054  12.606  1.00  0.00     0.118 C 
HETATM    9  C9  UNL     1      -4.211   1.469  12.351  1.00  0.00     0.233 C 
HETATM   10  O3  UNL     1      -4.915   2.431  12.755  1.00  0.00    -0.272 OA
HETATM   11  N5  UNL     1      -3.024   1.794  11.638  1.00  0.00    -0.294 N 
ENDROOT
BRANCH   1  12
HETATM   12  N3  UNL     1      -2.491   4.011  12.110  1.00  0.00    -0.196 N 
ATOM     13  H3  UNL     1      -3.034   4.866  11.986  1.00  0.00     0.202 HD
BRANCH  12  14
HETATM   14  N2  UNL     1      -1.841   3.871  13.133  1.00  0.00    -0.244 NA
BRANCH  14  15
HETATM   15  N1  UNL     1      -1.481   3.784  14.318  1.00  0.00    -0.261 N 
ATOM     16  H12 UNL     1      -1.156   4.750  14.360  1.00  0.00     0.193 HD
ATOM     17  H11 UNL     1      -1.280   3.453  15.262  1.00  0.00     0.193 HD
ENDBRANCH  14  15
ENDBRANCH  12  14
ENDBRANCH   1  12
BRANCH   1  18
HETATM   18  O1  UNL     1      -3.321   3.501  10.043  1.00  0.00    -0.351 OA
ATOM     19  H1  UNL     1      -4.173   3.093  10.137  1.00  0.00     0.214 HD
ENDBRANCH   1  18
BRANCH   8  20
HETATM   20  C8  UNL     1      -4.296  -0.354  14.000  1.00  0.00     0.100 C 
HETATM   21  N4  UNL     1      -4.047   0.450  14.945  1.00  0.00    -0.283 N 
ATOM     22  H4  UNL     1      -4.063   1.443  14.711  1.00  0.00     0.192 HD
BRANCH  21  23
HETATM   23  O2  UNL     1      -3.762   0.142  16.225  1.00  0.00    -0.291 OA
ATOM     24  H2  UNL     1      -3.821   0.714  16.981  1.00  0.00     0.244 HD
ENDBRANCH  21  23
ENDBRANCH   8  20
TORSDOF 6
ENDMDL
MODEL 4
REMARK VINA RESULT: -6.391142429      3.324      4.625
REMARK  6 active torsions:
REMARK  status: ('A' for Active; 'I' for Inactive)
REMARK    1  A    between atoms: N1_1  and  N2_4 
REMARK    2  A    between atoms: N2_4  and  N3_5 
REMARK    3  A    between atoms: N3_5  and  C1_7 
REMARK    4  A    between atoms: C1_7  and  O1_8 
REMARK    5  A    between atoms: C7_16  and  C8_17 
REMARK    6  A    between atoms: N4_18  and  O2_20 
ROOT
HETATM    1  C1  UNL     1      -3.557   3.350  10.611  1.00  0.00     0.260 C 
HETATM    2  C2  UNL     1      -2.109   3.629  10.373  1.00  0.00     0.164 C 
HETATM    3 CL1  UNL     1      -1.842   4.444   8.805  1.00  0.00    -0.118 Cl
HETATM    4  C3  UNL     1      -1.442   2.273  10.350  1.00  0.00     0.052 C 
HETATM    5  C4  UNL     1      -2.297   1.450  11.321  1.00  0.00     0.093 C 
HETATM    6  C5  UNL     1      -2.410   0.076  10.783  1.00  0.00     0.027 C 
HETATM    7  C6  UNL     1      -3.431  -0.797  11.380  1.00  0.00     0.021 C 
HETATM    8  C7  UNL     1      -4.498  -0.126  12.175  1.00  0.00     0.118 C 
HETATM    9  C9  UNL     1      -4.680   1.307  11.810  1.00  0.00     0.233 C 
HETATM   10  O3  UNL     1      -5.779   1.896  11.981  1.00  0.00    -0.272 OA
HETATM   11  N5  UNL     1      -3.620   2.071  11.249  1.00  0.00    -0.294 N 
ENDROOT
BRANCH   1  12
HETATM   12  N3  UNL     1      -4.144   4.324  11.519  1.00  0.00    -0.196 N 
ATOM     13  H3  UNL     1      -3.838   4.337  12.492  1.00  0.00     0.202 HD
BRANCH  12  14
HETATM   14  N2  UNL     1      -4.989   5.127  11.158  1.00  0.00    -0.244 NA
BRANCH  14  15
HETATM   15  N1  UNL     1      -5.601   6.040  10.581  1.00  0.00    -0.261 N 
ATOM     16  H12 UNL     1      -6.520   5.666  10.819  1.00  0.00     0.193 HD
ATOM     17  H11 UNL     1      -5.845   6.877  10.051  1.00  0.00     0.193 HD
ENDBRANCH  14  15
ENDBRANCH  12  14
ENDBRANCH   1  12
BRANCH   1  18
HETATM   18  O1  UNL     1      -4.285   3.411   9.430  1.00  0.00    -0.351 OA
ATOM     19  H1  UNL     1      -4.331   2.526   9.088  1.00  0.00     0.214 HD
ENDBRANCH   1  18
BRANCH   8  20
HETATM   20  C8  UNL     1      -4.318  -0.297  13.640  1.00  0.00     0.100 C 
HETATM   21  N4  UNL     1      -4.018   0.637  14.439  1.00  0.00    -0.283 N 
ATOM     22  H4  UNL     1      -3.895   1.563  14.029  1.00  0.00     0.192 HD
BRANCH  21  23
HETATM   23  O2  UNL     1      -3.843   0.545  15.772  1.00  0.00    -0.291 OA
ATOM     24  H2  UNL     1      -3.593   1.241  16.368  1.00  0.00     0.244 HD
ENDBRANCH  21  23
ENDBRANCH   8  20
TORSDOF 6
ENDMDL
MODEL 5
REMARK VINA RESULT: -6.386060792      2.404      4.896
REMARK  6 active torsions:
REMARK  status: ('A' for Active; 'I' for Inactive)
REMARK    1  A    between atoms: N1_1  and  N2_4 
REMARK    2  A    between atoms: N2_4  and  N3_5 
REMARK    3  A    between atoms: N3_5  and  C1_7 
REMARK    4  A    between atoms: C1_7  and  O1_8 
REMARK    5  A    between atoms: C7_16  and  C8_17 
REMARK    6  A    between atoms: N4_18  and  O2_20 
ROOT
HETATM    1  C1  UNL     1      -4.239   1.392  12.285  1.00  0.00     0.260 C 
HETATM    2  C2  UNL     1      -4.453   2.830  11.946  1.00  0.00     0.164 C 
HETATM    3 CL1  UNL     1      -3.287   3.401  10.717  1.00  0.00    -0.118 Cl
HETATM    4  C3  UNL     1      -4.224   3.582  13.237  1.00  0.00     0.052 C 
HETATM    5  C4  UNL     1      -4.688   2.585  14.305  1.00  0.00     0.093 C 
HETATM    6  C5  UNL     1      -3.782   2.703  15.469  1.00  0.00     0.027 C 
HETATM    7  C6  UNL     1      -3.843   1.637  16.479  1.00  0.00     0.021 C 
HETATM    8  C7  UNL     1      -4.502   0.366  16.066  1.00  0.00     0.118 C 
HETATM    9  C9  UNL     1      -4.511   0.170  14.589  1.00  0.00     0.233 C 
HETATM   10  O3  UNL     1      -4.561  -0.978  14.076  1.00  0.00    -0.272 OA
HETATM   11  N5  UNL     1      -4.465   1.274  13.693  1.00  0.00    -0.294 N 
ENDROOT
BRANCH   1  12
HETATM   12  N3  UNL     1      -5.205   0.537  11.612  1.00  0.00    -0.196 N 
ATOM     13  H3  UNL     1      -6.107   0.367  12.057  1.00  0.00     0.202 HD
BRANCH  12  14
HETATM   14  N2  UNL     1      -4.975   0.016  10.532  1.00  0.00    -0.244 NA
BRANCH  14  15
HETATM   15  N1  UNL     1      -4.585  -0.218   9.378  1.00  0.00    -0.261 N 
ATOM     16  H12 UNL     1      -4.251   0.734   9.226  1.00  0.00     0.193 HD
ATOM     17  H11 UNL     1      -4.361  -0.665   8.488  1.00  0.00     0.193 HD
ENDBRANCH  14  15
ENDBRANCH  12  14
ENDBRANCH   1  12
BRANCH   1  18
HETATM   18  O1  UNL     1      -2.978   0.962  11.892  1.00  0.00    -0.351 OA
ATOM     19  H1  UNL     1      -2.532   0.663  12.676  1.00  0.00     0.214 HD
ENDBRANCH   1  18
BRANCH   8  20
HETATM   20  C8  UNL     1      -5.860   0.205  16.646  1.00  0.00     0.100 C 
HETATM   21  N4  UNL     1      -6.715   1.133  16.738  1.00  0.00    -0.283 N 
ATOM     22  H4  UNL     1      -6.432   2.047  16.384  1.00  0.00     0.192 HD
BRANCH  21  23
HETATM   23  O2  UNL     1      -7.958   1.050  17.252  1.00  0.00    -0.291 OA
ATOM     24  H2  UNL     1      -8.711   1.582  17.024  1.00  0.00     0.244 HD
ENDBRANCH  21  23
ENDBRANCH   8  20
TORSDOF 6
ENDMDL
