MODEL 1
REMARK VINA RESULT: -6.598106339      0.000      0.000
REMARK  2 active torsions:
REMARK  status: ('A' for Active; 'I' for Inactive)
REMARK    1  A    between atoms: C2_2  and  O1_3 
REMARK    2  A    between atoms: O1_3  and  C3_4 
ROOT
HETATM    1  C3  UNL     1      -5.569   2.706  15.417  1.00  0.00     0.181 C 
HETATM    2  C4  UNL     1      -6.305   3.203  14.204  1.00  0.00     0.040 C 
HETATM    3  C5  UNL     1      -5.303   3.703  13.199  1.00  0.00     0.045 C 
HETATM    4  C6  UNL     1      -4.366   2.587  12.872  1.00  0.00     0.106 C 
HETATM    5  C7  UNL     1      -5.058   1.503  12.023  1.00  0.00     0.160 C 
HETATM    6  N1  UNL     1      -3.891   0.870  11.427  1.00  0.00    -0.383 N 
ATOM      7  H1  UNL     1      -3.844  -0.109  11.142  1.00  0.00     0.160 HD
HETATM    8  C8  UNL     1      -2.936   1.705  11.308  1.00  0.00     0.069 C 
HETATM    9  S1  UNL     1      -1.255   1.537  10.654  1.00  0.00    -0.110 SA
HETATM   10  C9  UNL     1      -0.319   2.838  11.499  1.00  0.00     0.124 C 
HETATM   11  C10 UNL     1      -1.144   4.054  11.722  1.00  0.00     0.067 C 
HETATM   12  N2  UNL     1      -2.426   3.941  12.189  1.00  0.00    -0.388 N 
ATOM     13  H2  UNL     1      -2.722   4.619  12.890  1.00  0.00     0.159 HD
HETATM   14  C11 UNL     1      -3.353   2.999  11.803  1.00  0.00     0.174 C 
HETATM   15  O2  UNL     1      -3.803   1.957  13.927  1.00  0.00    -0.339 OA
HETATM   16  C12 UNL     1      -4.145   2.343  15.172  1.00  0.00     0.336 C 
HETATM   17  F1  UNL     1      -3.309   3.406  15.544  1.00  0.00    -0.217 F 
ENDROOT
BRANCH   1  18
HETATM   18  O1  UNL     1      -6.313   1.670  15.966  1.00  0.00    -0.381 OA
BRANCH  18  19
HETATM   19  C2  UNL     1      -5.696   1.090  17.064  1.00  0.00     0.164 C 
HETATM   20  C1  UNL     1      -6.360   1.393  18.363  1.00  0.00     0.033 C 
ENDBRANCH  18  19
ENDBRANCH   1  18
TORSDOF 2
ENDMDL
MODEL 2
REMARK VINA RESULT: -6.558630768      2.716      3.439
REMARK  2 active torsions:
REMARK  status: ('A' for Active; 'I' for Inactive)
REMARK    1  A    between atoms: C2_2  and  O1_3 
REMARK    2  A    between atoms: O1_3  and  C3_4 
ROOT
HETATM    1  C3  UNL     1      -4.493   0.566  15.218  1.00  0.00     0.181 C 
HETATM    2  C4  UNL     1      -4.079   1.619  16.209  1.00  0.00     0.040 C 
HETATM    3  C5  UNL     1      -3.624   2.840  15.458  1.00  0.00     0.045 C 
HETATM    4  C6  UNL     1      -4.745   3.299  14.583  1.00  0.00     0.106 C 
HETATM    5  C7  UNL     1      -5.887   3.920  15.412  1.00  0.00     0.160 C 
HETATM    6  N1  UNL     1      -6.536   4.717  14.382  1.00  0.00    -0.383 N 
ATOM      7  H1  UNL     1      -7.529   4.952  14.371  1.00  0.00     0.160 HD
HETATM    8  C8  UNL     1      -5.696   5.083  13.497  1.00  0.00     0.069 C 
HETATM    9  S1  UNL     1      -5.878   6.073  11.990  1.00  0.00    -0.110 SA
HETATM   10  C9  UNL     1      -4.516   5.520  10.930  1.00  0.00     0.124 C 
HETATM   11  C10 UNL     1      -3.302   5.191  11.721  1.00  0.00     0.067 C 
HETATM   12  N2  UNL     1      -3.405   4.455  12.870  1.00  0.00    -0.388 N 
ATOM     13  H2  UNL     1      -2.691   3.744  13.028  1.00  0.00     0.159 HD
HETATM   14  C11 UNL     1      -4.381   4.582  13.833  1.00  0.00     0.174 C 
HETATM   15  O2  UNL     1      -5.303   2.357  13.792  1.00  0.00    -0.339 OA
HETATM   16  C12 UNL     1      -4.850   1.091  13.871  1.00  0.00     0.336 C 
HETATM   17  F1  UNL     1      -3.755   0.965  13.003  1.00  0.00    -0.217 F 
ENDROOT
BRANCH   1  18
HETATM   18  O1  UNL     1      -5.506  -0.185  15.800  1.00  0.00    -0.381 OA
BRANCH  18  19
HETATM   19  C2  UNL     1      -5.940   0.343  17.007  1.00  0.00     0.164 C 
HETATM   20  C1  UNL     1      -7.388   0.690  17.032  1.00  0.00     0.033 C 
ENDBRANCH  18  19
ENDBRANCH   1  18
TORSDOF 2
ENDMDL
MODEL 3
REMARK VINA RESULT: -6.285597199      2.772      4.055
REMARK  2 active torsions:
REMARK  status: ('A' for Active; 'I' for Inactive)
REMARK    1  A    between atoms: C2_2  and  O1_3 
REMARK    2  A    between atoms: O1_3  and  C3_4 
ROOT
HETATM    1  C3  UNL     1      -6.245   4.743  14.265  1.00  0.00     0.181 C 
HETATM    2  C4  UNL     1      -4.789   5.071  14.082  1.00  0.00     0.040 C 
HETATM    3  C5  UNL     1      -4.023   3.791  13.887  1.00  0.00     0.045 C 
HETATM    4  C6  UNL     1      -4.594   3.077  12.705  1.00  0.00     0.106 C 
HETATM    5  C7  UNL     1      -4.233   3.793  11.388  1.00  0.00     0.160 C 
HETATM    6  N1  UNL     1      -4.412   2.695  10.450  1.00  0.00    -0.383 N 
ATOM      7  H1  UNL     1      -4.681   2.805   9.473  1.00  0.00     0.160 HD
HETATM    8  C8  UNL     1      -4.188   1.575  11.017  1.00  0.00     0.069 C 
HETATM    9  S1  UNL     1      -4.244  -0.127  10.401  1.00  0.00    -0.110 SA
HETATM   10  C9  UNL     1      -4.566  -1.124  11.879  1.00  0.00     0.124 C 
HETATM   11  C10 UNL     1      -3.896  -0.560  13.079  1.00  0.00     0.067 C 
HETATM   12  N2  UNL     1      -3.947   0.784  13.331  1.00  0.00    -0.388 N 
ATOM     13  H2  UNL     1      -4.092   1.067  14.300  1.00  0.00     0.159 HD
HETATM   14  C11 UNL     1      -3.822   1.791  12.400  1.00  0.00     0.174 C 
HETATM   15  O2  UNL     1      -5.934   2.909  12.704  1.00  0.00    -0.339 OA
HETATM   16  C12 UNL     1      -6.653   3.417  13.724  1.00  0.00     0.336 C 
HETATM   17  F1  UNL     1      -6.679   2.466  14.755  1.00  0.00    -0.217 F 
ENDROOT
BRANCH   1  18
HETATM   18  O1  UNL     1      -6.983   5.799  13.746  1.00  0.00    -0.381 OA
BRANCH  18  19
HETATM   19  C2  UNL     1      -6.496   6.246  12.528  1.00  0.00     0.164 C 
HETATM   20  C1  UNL     1      -7.357   7.266  11.867  1.00  0.00     0.033 C 
ENDBRANCH  18  19
ENDBRANCH   1  18
TORSDOF 2
ENDMDL
MODEL 4
REMARK VINA RESULT: -6.096918396      3.094      4.812
REMARK  2 active torsions:
REMARK  status: ('A' for Active; 'I' for Inactive)
REMARK    1  A    between atoms: C2_2  and  O1_3 
REMARK    2  A    between atoms: O1_3  and  C3_4 
ROOT
HETATM    1  C3  UNL     1      -6.164   5.914  12.854  1.00  0.00     0.181 C 
HETATM    2  C4  UNL     1      -4.731   5.870  12.399  1.00  0.00     0.040 C 
HETATM    3  C5  UNL     1      -3.983   4.877  13.246  1.00  0.00     0.045 C 
HETATM    4  C6  UNL     1      -4.657   3.549  13.120  1.00  0.00     0.106 C 
HETATM    5  C7  UNL     1      -4.419   2.928  11.729  1.00  0.00     0.160 C 
HETATM    6  N1  UNL     1      -4.680   1.529  12.033  1.00  0.00    -0.383 N 
ATOM      7  H1  UNL     1      -5.036   0.847  11.363  1.00  0.00     0.160 HD
HETATM    8  C8  UNL     1      -4.402   1.272  13.250  1.00  0.00     0.069 C 
HETATM    9  S1  UNL     1      -4.509  -0.255  14.220  1.00  0.00    -0.110 SA
HETATM   10  C9  UNL     1      -4.693   0.318  15.929  1.00  0.00     0.124 C 
HETATM   11  C10 UNL     1      -3.919   1.561  16.179  1.00  0.00     0.067 C 
HETATM   12  N2  UNL     1      -3.950   2.588  15.275  1.00  0.00    -0.388 N 
ATOM     13  H2  UNL     1      -4.008   3.533  15.652  1.00  0.00     0.159 HD
HETATM   14  C11 UNL     1      -3.913   2.466  13.904  1.00  0.00     0.174 C 
HETATM   15  O2  UNL     1      -5.992   3.539  13.330  1.00  0.00    -0.339 OA
HETATM   16  C12 UNL     1      -6.616   4.703  13.594  1.00  0.00     0.336 C 
HETATM   17  F1  UNL     1      -6.546   4.931  14.976  1.00  0.00    -0.217 F 
ENDROOT
BRANCH   1  18
HETATM   18  O1  UNL     1      -6.949   6.206  11.747  1.00  0.00    -0.381 OA
BRANCH  18  19
HETATM   19  C2  UNL     1      -7.529   7.463  11.816  1.00  0.00     0.164 C 
HETATM   20  C1  UNL     1      -6.740   8.534  11.146  1.00  0.00     0.033 C 
ENDBRANCH  18  19
ENDBRANCH   1  18
TORSDOF 2
ENDMDL
MODEL 5
REMARK VINA RESULT: -5.941454518      2.971      4.474
REMARK  2 active torsions:
REMARK  status: ('A' for Active; 'I' for Inactive)
REMARK    1  A    between atoms: C2_2  and  O1_3 
REMARK    2  A    between atoms: O1_3  and  C3_4 
ROOT
HETATM    1  C3  UNL     1      -3.071   5.665  13.694  1.00  0.00     0.181 C 
HETATM    2  C4  UNL     1      -4.419   5.512  14.341  1.00  0.00     0.040 C 
HETATM    3  C5  UNL     1      -5.156   4.386  13.668  1.00  0.00     0.045 C 
HETATM    4  C6  UNL     1      -4.330   3.147  13.785  1.00  0.00     0.106 C 
HETATM    5  C7  UNL     1      -4.318   2.614  15.231  1.00  0.00     0.160 C 
HETATM    6  N1  UNL     1      -3.946   1.229  14.984  1.00  0.00    -0.383 N 
ATOM      7  H1  UNL     1      -3.433   0.640  15.640  1.00  0.00     0.160 HD
HETATM    8  C8  UNL     1      -4.348   0.852  13.834  1.00  0.00     0.069 C 
HETATM    9  S1  UNL     1      -4.199  -0.726  12.957  1.00  0.00    -0.110 SA
HETATM   10  C9  UNL     1      -4.299  -0.270  11.206  1.00  0.00     0.124 C 
HETATM   11  C10 UNL     1      -5.232   0.865  10.986  1.00  0.00     0.067 C 
HETATM   12  N2  UNL     1      -5.197   1.957  11.811  1.00  0.00    -0.388 N 
ATOM     13  H2  UNL     1      -5.293   2.871  11.370  1.00  0.00     0.159 HD
HETATM   14  C11 UNL     1      -5.045   1.937  13.179  1.00  0.00     0.174 C 
HETATM   15  O2  UNL     1      -3.040   3.255  13.397  1.00  0.00    -0.339 OA
HETATM   16  C12 UNL     1      -2.586   4.452  12.978  1.00  0.00     0.336 C 
HETATM   17  F1  UNL     1      -2.858   4.566  11.606  1.00  0.00    -0.217 F 
ENDROOT
BRANCH   1  18
HETATM   18  O1  UNL     1      -2.187   6.119  14.665  1.00  0.00    -0.381 OA
BRANCH  18  19
HETATM   19  C2  UNL     1      -1.753   7.415  14.432  1.00  0.00     0.164 C 
HETATM   20  C1  UNL     1      -1.872   8.316  15.611  1.00  0.00     0.033 C 
ENDBRANCH  18  19
ENDBRANCH   1  18
TORSDOF 2
ENDMDL
