MODEL 1
REMARK VINA RESULT: -8.335982145      0.000      0.000
REMARK  10 active torsions:
REMARK  status: ('A' for Active; 'I' for Inactive)
REMARK    1  A    between atoms: C4_4  and  C5_5 
REMARK    2  A    between atoms: C6_6  and  C7_7 
REMARK    3  A    between atoms: C7_7  and  C8_8 
REMARK    4  A    between atoms: C8_8  and  C9_9 
REMARK    5  A    between atoms: C9_9  and  C10_10 
REMARK    6  A    between atoms: C10_10  and  C11_11 
REMARK    7  A    between atoms: C11_11  and  C12_12 
REMARK    8  A    between atoms: N2_21  and  O1_22 
REMARK    9  A    between atoms: C21_27  and  C22_28 
REMARK   10  A    between atoms: C22_28  and  C23_29 
ROOT
HETATM    1  C1  UNL     1      17.088 -16.044  27.979  1.00  0.00     0.027 C 
HETATM    2  C2  UNL     1      17.609 -15.521  27.025  1.00  0.00    -0.025 C 
HETATM    3  C3  UNL     1      18.249 -14.905  25.903  1.00  0.00    -0.002 C 
HETATM    4  C4  UNL     1      18.808 -14.395  24.965  1.00  0.00    -0.001 C 
ENDROOT
BRANCH   4   5
HETATM    5  C5  UNL     1      19.491 -13.801  23.868  1.00  0.00    -0.014 C 
HETATM    6  C6  UNL     1      20.059 -13.298  22.916  1.00  0.00    -0.092 C 
BRANCH   6   7
HETATM    7  C7  UNL     1      20.721 -12.706  21.754  1.00  0.00     0.095 C 
BRANCH   7   8
HETATM    8  C8  UNL     1      19.918 -13.018  20.486  1.00  0.00     0.012 C 
BRANCH   8   9
HETATM    9  C9  UNL     1      18.679 -12.189  20.529  1.00  0.00     0.001 C 
BRANCH   9  10
HETATM   10  C10 UNL     1      17.478 -13.082  20.718  1.00  0.00     0.006 C 
BRANCH  10  11
HETATM   11  C11 UNL     1      16.358 -12.699  19.773  1.00  0.00     0.062 C 
BRANCH  11  12
HETATM   12  C12 UNL     1      15.163 -12.386  20.595  1.00  0.00     0.073 A 
HETATM   13  C13 UNL     1      14.378 -13.458  20.968  1.00  0.00     0.104 A 
HETATM   14  C14 UNL     1      13.267 -13.178  21.733  1.00  0.00     0.144 A 
HETATM   15  N4  UNL     1      14.383 -14.865  20.773  1.00  0.00    -0.338 N 
HETATM   16  N1  UNL     1      13.007 -11.882  22.075  1.00  0.00    -0.290 N 
HETATM   17  N3  UNL     1      12.563 -14.371  22.031  1.00  0.00    -0.326 N 
HETATM   18  C15 UNL     1      11.915 -11.623  22.827  1.00  0.00     0.100 A 
HETATM   19  C19 UNL     1      13.810 -10.874  21.683  1.00  0.00     0.141 A 
HETATM   20  C16 UNL     1      11.599 -10.335  23.207  1.00  0.00     0.018 A 
HETATM   21  C17 UNL     1      12.394  -9.264  22.828  1.00  0.00     0.005 A 
HETATM   22  C18 UNL     1      13.501  -9.577  22.060  1.00  0.00     0.051 A 
HETATM   23  N2  UNL     1      14.909 -11.131  20.928  1.00  0.00    -0.209 N 
HETATM   24  C20 UNL     1      13.272 -15.475  21.418  1.00  0.00     0.103 A 
ATOM     25  H3  UNL     1      11.707 -14.440  22.582  1.00  0.00     0.169 HD
HETATM   26  C21 UNL     1      12.920 -16.746  21.469  1.00  0.00     0.022 C 
ATOM     27  H4  UNL     1      15.091 -15.371  20.241  1.00  0.00     0.167 HD
BRANCH  23  28
HETATM   28  O1  UNL     1      15.700 -10.079  20.549  1.00  0.00    -0.281 OA
ATOM     29  H1  UNL     1      15.367  -9.202  20.405  1.00  0.00     0.245 HD
ENDBRANCH  23  28
BRANCH  26  30
HETATM   30  C22 UNL     1      13.723 -17.783  20.804  1.00  0.00     0.030 C 
BRANCH  30  31
HETATM   31  C23 UNL     1      12.888 -18.921  20.261  1.00  0.00    -0.001 C 
HETATM   32  C24 UNL     1      11.498 -18.794  20.838  1.00  0.00     0.005 C 
ENDBRANCH  30  31
ENDBRANCH  26  30
ENDBRANCH  11  12
ENDBRANCH  10  11
ENDBRANCH   9  10
ENDBRANCH   8   9
ENDBRANCH   7   8
ENDBRANCH   6   7
ENDBRANCH   4   5
TORSDOF 10
ENDMDL
MODEL 2
REMARK VINA RESULT: -8.220326770      1.199      1.592
REMARK  10 active torsions:
REMARK  status: ('A' for Active; 'I' for Inactive)
REMARK    1  A    between atoms: C4_4  and  C5_5 
REMARK    2  A    between atoms: C6_6  and  C7_7 
REMARK    3  A    between atoms: C7_7  and  C8_8 
REMARK    4  A    between atoms: C8_8  and  C9_9 
REMARK    5  A    between atoms: C9_9  and  C10_10 
REMARK    6  A    between atoms: C10_10  and  C11_11 
REMARK    7  A    between atoms: C11_11  and  C12_12 
REMARK    8  A    between atoms: N2_21  and  O1_22 
REMARK    9  A    between atoms: C21_27  and  C22_28 
REMARK   10  A    between atoms: C22_28  and  C23_29 
ROOT
HETATM    1  C1  UNL     1      17.363 -15.841  27.649  1.00  0.00     0.027 C 
HETATM    2  C2  UNL     1      17.746 -15.398  26.595  1.00  0.00    -0.025 C 
HETATM    3  C3  UNL     1      18.223 -14.872  25.352  1.00  0.00    -0.002 C 
HETATM    4  C4  UNL     1      18.646 -14.436  24.311  1.00  0.00    -0.001 C 
ENDROOT
BRANCH   4   5
HETATM    5  C5  UNL     1      19.171 -13.928  23.091  1.00  0.00    -0.014 C 
HETATM    6  C6  UNL     1      19.602 -13.501  22.035  1.00  0.00    -0.092 C 
BRANCH   6   7
HETATM    7  C7  UNL     1      20.099 -13.002  20.754  1.00  0.00     0.095 C 
BRANCH   7   8
HETATM    8  C8  UNL     1      19.344 -11.726  20.367  1.00  0.00     0.012 C 
BRANCH   8   9
HETATM    9  C9  UNL     1      17.992 -12.137  19.891  1.00  0.00     0.001 C 
BRANCH   9  10
HETATM   10  C10 UNL     1      16.933 -11.414  20.686  1.00  0.00     0.006 C 
BRANCH  10  11
HETATM   11  C11 UNL     1      15.630 -11.335  19.916  1.00  0.00     0.062 C 
BRANCH  11  12
HETATM   12  C12 UNL     1      14.522 -11.370  20.903  1.00  0.00     0.073 A 
HETATM   13  C13 UNL     1      14.040 -12.619  21.238  1.00  0.00     0.104 A 
HETATM   14  C14 UNL     1      13.012 -12.663  22.155  1.00  0.00     0.144 A 
HETATM   15  N4  UNL     1      14.315 -13.966  20.884  1.00  0.00    -0.338 N 
HETATM   16  N1  UNL     1      12.536 -11.492  22.672  1.00  0.00    -0.290 N 
HETATM   17  N3  UNL     1      12.625 -14.004  22.394  1.00  0.00    -0.326 N 
HETATM   18  C15 UNL     1      11.529 -11.552  23.571  1.00  0.00     0.100 A 
HETATM   19  C19 UNL     1      13.046 -10.300  22.308  1.00  0.00     0.141 A 
HETATM   20  C16 UNL     1      11.004 -10.405  24.132  1.00  0.00     0.018 A 
HETATM   21  C17 UNL     1      11.495  -9.155  23.789  1.00  0.00     0.005 A 
HETATM   22  C18 UNL     1      12.526  -9.143  22.865  1.00  0.00     0.051 A 
HETATM   23  N2  UNL     1      14.058 -10.238  21.406  1.00  0.00    -0.209 N 
HETATM   24  C20 UNL     1      13.458 -14.864  21.579  1.00  0.00     0.103 A 
ATOM     25  H3  UNL     1      11.887 -14.311  23.029  1.00  0.00     0.169 HD
HETATM   26  C21 UNL     1      13.392 -16.181  21.524  1.00  0.00     0.022 C 
ATOM     27  H4  UNL     1      15.033 -14.253  20.218  1.00  0.00     0.167 HD
BRANCH  23  28
HETATM   28  O1  UNL     1      14.549  -9.007  21.061  1.00  0.00    -0.281 OA
ATOM     29  H1  UNL     1      15.054  -8.463  21.654  1.00  0.00     0.245 HD
ENDBRANCH  23  28
BRANCH  26  30
HETATM   30  C22 UNL     1      14.295 -16.950  20.655  1.00  0.00     0.030 C 
BRANCH  30  31
HETATM   31  C23 UNL     1      15.567 -17.378  21.353  1.00  0.00    -0.001 C 
HETATM   32  C24 UNL     1      16.719 -16.641  20.710  1.00  0.00     0.005 C 
ENDBRANCH  30  31
ENDBRANCH  26  30
ENDBRANCH  11  12
ENDBRANCH  10  11
ENDBRANCH   9  10
ENDBRANCH   8   9
ENDBRANCH   7   8
ENDBRANCH   6   7
ENDBRANCH   4   5
TORSDOF 10
ENDMDL
MODEL 3
REMARK VINA RESULT: -8.168182103      2.065      5.075
REMARK  10 active torsions:
REMARK  status: ('A' for Active; 'I' for Inactive)
REMARK    1  A    between atoms: C4_4  and  C5_5 
REMARK    2  A    between atoms: C6_6  and  C7_7 
REMARK    3  A    between atoms: C7_7  and  C8_8 
REMARK    4  A    between atoms: C8_8  and  C9_9 
REMARK    5  A    between atoms: C9_9  and  C10_10 
REMARK    6  A    between atoms: C10_10  and  C11_11 
REMARK    7  A    between atoms: C11_11  and  C12_12 
REMARK    8  A    between atoms: N2_21  and  O1_22 
REMARK    9  A    between atoms: C21_27  and  C22_28 
REMARK   10  A    between atoms: C22_28  and  C23_29 
ROOT
HETATM    1  C1  UNL     1      20.870 -12.227  26.478  1.00  0.00     0.027 C 
HETATM    2  C2  UNL     1      20.124 -13.133  26.199  1.00  0.00    -0.025 C 
HETATM    3  C3  UNL     1      19.259 -14.224  25.866  1.00  0.00    -0.002 C 
HETATM    4  C4  UNL     1      18.547 -15.157  25.589  1.00  0.00    -0.001 C 
ENDROOT
BRANCH   4   5
HETATM    5  C5  UNL     1      17.730 -16.273  25.264  1.00  0.00    -0.014 C 
HETATM    6  C6  UNL     1      17.034 -17.227  24.963  1.00  0.00    -0.092 C 
BRANCH   6   7
HETATM    7  C7  UNL     1      16.202 -18.364  24.574  1.00  0.00     0.095 C 
BRANCH   7   8
HETATM    8  C8  UNL     1      14.923 -17.861  23.894  1.00  0.00     0.012 C 
BRANCH   8   9
HETATM    9  C9  UNL     1      15.293 -17.429  22.515  1.00  0.00     0.001 C 
BRANCH   9  10
HETATM   10  C10 UNL     1      15.358 -15.923  22.457  1.00  0.00     0.006 C 
BRANCH  10  11
HETATM   11  C11 UNL     1      14.815 -15.404  21.141  1.00  0.00     0.062 C 
BRANCH  11  12
HETATM   12  C12 UNL     1      14.567 -13.949  21.300  1.00  0.00     0.073 A 
HETATM   13  C13 UNL     1      15.652 -13.118  21.110  1.00  0.00     0.104 A 
HETATM   14  C14 UNL     1      15.431 -11.765  21.254  1.00  0.00     0.144 A 
HETATM   15  N4  UNL     1      17.027 -13.265  20.790  1.00  0.00    -0.338 N 
HETATM   16  N1  UNL     1      14.176 -11.329  21.569  1.00  0.00    -0.290 N 
HETATM   17  N3  UNL     1      16.631 -11.046  21.034  1.00  0.00    -0.326 N 
HETATM   18  C15 UNL     1      13.975 -10.000  21.705  1.00  0.00     0.100 A 
HETATM   19  C19 UNL     1      13.152 -12.187  21.742  1.00  0.00     0.141 A 
HETATM   20  C16 UNL     1      12.730  -9.495  22.021  1.00  0.00     0.018 A 
HETATM   21  C17 UNL     1      11.646 -10.338  22.209  1.00  0.00     0.005 A 
HETATM   22  C18 UNL     1      11.899 -11.691  22.060  1.00  0.00     0.051 A 
HETATM   23  N2  UNL     1      13.352 -13.523  21.606  1.00  0.00    -0.209 N 
HETATM   24  C20 UNL     1      17.678 -12.001  20.732  1.00  0.00     0.103 A 
ATOM     25  H3  UNL     1      16.739 -10.033  21.080  1.00  0.00     0.169 HD
HETATM   26  C21 UNL     1      18.939 -11.713  20.474  1.00  0.00     0.022 C 
ATOM     27  H4  UNL     1      17.489 -14.159  20.624  1.00  0.00     0.167 HD
BRANCH  23  28
HETATM   28  O1  UNL     1      12.286 -14.364  21.790  1.00  0.00    -0.281 OA
ATOM     29  H1  UNL     1      12.180 -14.909  22.560  1.00  0.00     0.245 HD
ENDBRANCH  23  28
BRANCH  26  30
HETATM   30  C22 UNL     1      19.915 -12.772  20.180  1.00  0.00     0.030 C 
BRANCH  30  31
HETATM   31  C23 UNL     1      20.013 -13.810  21.276  1.00  0.00    -0.001 C 
HETATM   32  C24 UNL     1      20.698 -13.170  22.461  1.00  0.00     0.005 C 
ENDBRANCH  30  31
ENDBRANCH  26  30
ENDBRANCH  11  12
ENDBRANCH  10  11
ENDBRANCH   9  10
ENDBRANCH   8   9
ENDBRANCH   7   8
ENDBRANCH   6   7
ENDBRANCH   4   5
TORSDOF 10
ENDMDL
MODEL 4
REMARK VINA RESULT: -7.967614737      2.484      6.703
REMARK  10 active torsions:
REMARK  status: ('A' for Active; 'I' for Inactive)
REMARK    1  A    between atoms: C4_4  and  C5_5 
REMARK    2  A    between atoms: C6_6  and  C7_7 
REMARK    3  A    between atoms: C7_7  and  C8_8 
REMARK    4  A    between atoms: C8_8  and  C9_9 
REMARK    5  A    between atoms: C9_9  and  C10_10 
REMARK    6  A    between atoms: C10_10  and  C11_11 
REMARK    7  A    between atoms: C11_11  and  C12_12 
REMARK    8  A    between atoms: N2_21  and  O1_22 
REMARK    9  A    between atoms: C21_27  and  C22_28 
REMARK   10  A    between atoms: C22_28  and  C23_29 
ROOT
HETATM    1  C1  UNL     1      17.029 -10.182  15.728  1.00  0.00     0.027 C 
HETATM    2  C2  UNL     1      16.380 -10.999  16.331  1.00  0.00    -0.025 C 
HETATM    3  C3  UNL     1      15.597 -11.975  17.027  1.00  0.00    -0.002 C 
HETATM    4  C4  UNL     1      14.931 -12.805  17.593  1.00  0.00    -0.001 C 
ENDROOT
BRANCH   4   5
HETATM    5  C5  UNL     1      14.135 -13.792  18.236  1.00  0.00    -0.014 C 
HETATM    6  C6  UNL     1      13.436 -14.622  18.790  1.00  0.00    -0.092 C 
BRANCH   6   7
HETATM    7  C7  UNL     1      12.578 -15.597  19.461  1.00  0.00     0.095 C 
BRANCH   7   8
HETATM    8  C8  UNL     1      13.301 -16.946  19.552  1.00  0.00     0.012 C 
BRANCH   8   9
HETATM    9  C9  UNL     1      13.944 -17.016  20.895  1.00  0.00     0.001 C 
BRANCH   9  10
HETATM   10  C10 UNL     1      15.183 -16.155  20.909  1.00  0.00     0.006 C 
BRANCH  10  11
HETATM   11  C11 UNL     1      15.319 -15.415  22.224  1.00  0.00     0.062 C 
BRANCH  11  12
HETATM   12  C12 UNL     1      14.895 -14.011  21.997  1.00  0.00     0.073 A 
HETATM   13  C13 UNL     1      15.853 -13.156  21.490  1.00  0.00     0.104 A 
HETATM   14  C14 UNL     1      15.469 -11.851  21.274  1.00  0.00     0.144 A 
HETATM   15  N4  UNL     1      17.217 -13.239  21.104  1.00  0.00    -0.338 N 
HETATM   16  N1  UNL     1      14.188 -11.481  21.566  1.00  0.00    -0.290 N 
HETATM   17  N3  UNL     1      16.554 -11.099  20.759  1.00  0.00    -0.326 N 
HETATM   18  C15 UNL     1      13.826 -10.197  21.346  1.00  0.00     0.100 A 
HETATM   19  C19 UNL     1      13.293 -12.359  22.058  1.00  0.00     0.141 A 
HETATM   20  C16 UNL     1      12.545  -9.761  21.619  1.00  0.00     0.018 A 
HETATM   21  C17 UNL     1      11.590 -10.627  22.127  1.00  0.00     0.005 A 
HETATM   22  C18 UNL     1      12.006 -11.930  22.335  1.00  0.00     0.051 A 
HETATM   23  N2  UNL     1      13.655 -13.649  22.279  1.00  0.00    -0.209 N 
HETATM   24  C20 UNL     1      17.696 -11.982  20.642  1.00  0.00     0.103 A 
ATOM     25  H3  UNL     1      16.534 -10.109  20.514  1.00  0.00     0.169 HD
HETATM   26  C21 UNL     1      18.894 -11.645  20.204  1.00  0.00     0.022 C 
ATOM     27  H4  UNL     1      17.780 -14.088  21.151  1.00  0.00     0.167 HD
BRANCH  23  28
HETATM   28  O1  UNL     1      12.716 -14.512  22.781  1.00  0.00    -0.281 OA
ATOM     29  H1  UNL     1      11.946 -14.783  22.296  1.00  0.00     0.245 HD
ENDBRANCH  23  28
BRANCH  26  30
HETATM   30  C22 UNL     1      19.980 -12.633  20.129  1.00  0.00     0.030 C 
BRANCH  30  31
HETATM   31  C23 UNL     1      20.585 -12.954  21.478  1.00  0.00    -0.001 C 
HETATM   32  C24 UNL     1      20.218 -14.378  21.823  1.00  0.00     0.005 C 
ENDBRANCH  30  31
ENDBRANCH  26  30
ENDBRANCH  11  12
ENDBRANCH  10  11
ENDBRANCH   9  10
ENDBRANCH   8   9
ENDBRANCH   7   8
ENDBRANCH   6   7
ENDBRANCH   4   5
TORSDOF 10
ENDMDL
MODEL 5
REMARK VINA RESULT: -7.881851716      1.864      2.005
REMARK  10 active torsions:
REMARK  status: ('A' for Active; 'I' for Inactive)
REMARK    1  A    between atoms: C4_4  and  C5_5 
REMARK    2  A    between atoms: C6_6  and  C7_7 
REMARK    3  A    between atoms: C7_7  and  C8_8 
REMARK    4  A    between atoms: C8_8  and  C9_9 
REMARK    5  A    between atoms: C9_9  and  C10_10 
REMARK    6  A    between atoms: C10_10  and  C11_11 
REMARK    7  A    between atoms: C11_11  and  C12_12 
REMARK    8  A    between atoms: N2_21  and  O1_22 
REMARK    9  A    between atoms: C21_27  and  C22_28 
REMARK   10  A    between atoms: C22_28  and  C23_29 
ROOT
HETATM    1  C1  UNL     1      15.004 -18.124  24.226  1.00  0.00     0.027 C 
HETATM    2  C2  UNL     1      15.736 -17.331  23.689  1.00  0.00    -0.025 C 
HETATM    3  C3  UNL     1      16.623 -16.406  23.051  1.00  0.00    -0.002 C 
HETATM    4  C4  UNL     1      17.383 -15.645  22.507  1.00  0.00    -0.001 C 
ENDROOT
BRANCH   4   5
HETATM    5  C5  UNL     1      18.297 -14.768  21.860  1.00  0.00    -0.014 C 
HETATM    6  C6  UNL     1      19.067 -14.019  21.288  1.00  0.00    -0.092 C 
BRANCH   6   7
HETATM    7  C7  UNL     1      19.979 -13.126  20.575  1.00  0.00     0.095 C 
BRANCH   7   8
HETATM    8  C8  UNL     1      19.321 -11.753  20.390  1.00  0.00     0.012 C 
BRANCH   8   9
HETATM    9  C9  UNL     1      18.015 -11.976  19.705  1.00  0.00     0.001 C 
BRANCH   9  10
HETATM   10  C10 UNL     1      16.902 -11.376  20.527  1.00  0.00     0.006 C 
BRANCH  10  11
HETATM   11  C11 UNL     1      15.590 -11.396  19.770  1.00  0.00     0.062 C 
BRANCH  11  12
HETATM   12  C12 UNL     1      14.494 -11.453  20.769  1.00  0.00     0.073 A 
HETATM   13  C13 UNL     1      13.995 -12.706  21.060  1.00  0.00     0.104 A 
HETATM   14  C14 UNL     1      12.979 -12.769  21.989  1.00  0.00     0.144 A 
HETATM   15  N4  UNL     1      14.242 -14.042  20.648  1.00  0.00    -0.338 N 
HETATM   16  N1  UNL     1      12.530 -11.613  22.559  1.00  0.00    -0.290 N 
HETATM   17  N3  UNL     1      12.571 -14.113  22.178  1.00  0.00    -0.326 N 
HETATM   18  C15 UNL     1      11.534 -11.692  23.469  1.00  0.00     0.100 A 
HETATM   19  C19 UNL     1      13.056 -10.416  22.237  1.00  0.00     0.141 A 
HETATM   20  C16 UNL     1      11.036 -10.560  24.082  1.00  0.00     0.018 A 
HETATM   21  C17 UNL     1      11.545  -9.305  23.784  1.00  0.00     0.005 A 
HETATM   22  C18 UNL     1      12.564  -9.274  22.847  1.00  0.00     0.051 A 
HETATM   23  N2  UNL     1      14.057 -10.334  21.324  1.00  0.00    -0.209 N 
HETATM   24  C20 UNL     1      13.378 -14.953  21.317  1.00  0.00     0.103 A 
ATOM     25  H3  UNL     1      11.836 -14.432  22.810  1.00  0.00     0.169 HD
HETATM   26  C21 UNL     1      13.288 -16.264  21.210  1.00  0.00     0.022 C 
ATOM     27  H4  UNL     1      14.945 -14.314  19.961  1.00  0.00     0.167 HD
BRANCH  23  28
HETATM   28  O1  UNL     1      14.566  -9.098  21.023  1.00  0.00    -0.281 OA
ATOM     29  H1  UNL     1      14.086  -8.444  20.529  1.00  0.00     0.245 HD
ENDBRANCH  23  28
BRANCH  26  30
HETATM   30  C22 UNL     1      14.166 -17.013  20.298  1.00  0.00     0.030 C 
BRANCH  30  31
HETATM   31  C23 UNL     1      13.972 -18.510  20.384  1.00  0.00    -0.001 C 
HETATM   32  C24 UNL     1      15.337 -19.149  20.489  1.00  0.00     0.005 C 
ENDBRANCH  30  31
ENDBRANCH  26  30
ENDBRANCH  11  12
ENDBRANCH  10  11
ENDBRANCH   9  10
ENDBRANCH   8   9
ENDBRANCH   7   8
ENDBRANCH   6   7
ENDBRANCH   4   5
TORSDOF 10
ENDMDL
