MODEL 1
REMARK VINA RESULT: -7.357869991      0.000      0.000
REMARK  11 active torsions:
REMARK  status: ('A' for Active; 'I' for Inactive)
REMARK    1  A    between atoms: C3_3  and  C4_4 
REMARK    2  A    between atoms: C4_4  and  C5_5 
REMARK    3  A    between atoms: C5_5  and  C6_6 
REMARK    4  A    between atoms: C6_6  and  N1_7 
REMARK    5  A    between atoms: C9_12  and  N3_13 
REMARK    6  A    between atoms: N3_13  and  C10_15 
REMARK    7  A    between atoms: C10_15  and  C11_16 
REMARK    8  A    between atoms: C11_16  and  C12_17 
REMARK    9  A    between atoms: C12_17  and  C13_18 
REMARK   10  A    between atoms: C13_18  and  N4_19 
REMARK   11  A    between atoms: C19_29  and  C20_30 
ROOT
HETATM    1  C1  UNL     1      11.743  -7.502  24.721  1.00  0.00     0.113 C 
HETATM    2  C2  UNL     1      11.877  -8.664  23.839  1.00  0.00    -0.097 C 
HETATM    3  C3  UNL     1      12.001  -9.613  23.096  1.00  0.00    -0.015 C 
ENDROOT
BRANCH   3   4
HETATM    4  C4  UNL     1      12.155 -10.710  22.210  1.00  0.00    -0.013 C 
BRANCH   4   5
HETATM    5  C5  UNL     1      12.277 -11.632  21.442  1.00  0.00    -0.072 C 
BRANCH   5   6
HETATM    6  C6  UNL     1      12.423 -12.783  20.519  1.00  0.00     0.222 C 
BRANCH   6   7
HETATM    7  N1  UNL     1      13.790 -13.227  20.566  1.00  0.00    -0.351 N 
HETATM    8  C7  UNL     1      14.110 -14.464  20.969  1.00  0.00     0.108 A 
HETATM    9  C8  UNL     1      15.429 -14.903  21.019  1.00  0.00     0.107 A 
HETATM   10  N2  UNL     1      16.398 -14.071  20.655  1.00  0.00    -0.350 N 
HETATM   11  C9  UNL     1      16.104 -12.818  20.243  1.00  0.00     0.116 A 
ATOM     12  H2  UNL     1      17.369 -14.379  20.687  1.00  0.00     0.166 HD
HETATM   13  C22 UNL     1      14.784 -12.406  20.204  1.00  0.00     0.139 A 
BRANCH  11  14
HETATM   14  N3  UNL     1      17.084 -12.069  19.907  1.00  0.00    -0.375 N 
ATOM     15  H3  UNL     1      17.112 -11.756  18.938  1.00  0.00     0.161 HD
BRANCH  14  16
HETATM   16  C10 UNL     1      18.146 -11.627  20.760  1.00  0.00     0.121 C 
BRANCH  16  17
HETATM   17  C11 UNL     1      19.503 -12.111  20.288  1.00  0.00     0.021 C 
BRANCH  17  18
HETATM   18  C12 UNL     1      19.856 -13.434  20.964  1.00  0.00     0.022 C 
BRANCH  18  19
HETATM   19  C13 UNL     1      20.394 -13.219  22.341  1.00  0.00     0.128 C 
BRANCH  19  20
HETATM   20  N4  UNL     1      19.666 -13.890  23.376  1.00  0.00    -0.358 N 
HETATM   21  C14 UNL     1      18.839 -14.927  23.032  1.00  0.00     0.122 A 
HETATM   22  C15 UNL     1      18.090 -15.638  23.918  1.00  0.00     0.075 A 
HETATM   23  N5  UNL     1      17.218 -16.679  23.829  1.00  0.00    -0.349 N 
HETATM   24  C17 UNL     1      18.148 -15.319  25.238  1.00  0.00     0.063 A 
HETATM   25  C16 UNL     1      16.759 -16.985  25.052  1.00  0.00     0.181 A 
ATOM     26  H5  UNL     1      16.954 -17.153  22.965  1.00  0.00     0.166 HD
HETATM   27  N6  UNL     1      17.326 -16.156  25.914  1.00  0.00    -0.350 N 
ATOM     28  H6  UNL     1      17.169 -16.148  26.922  1.00  0.00     0.166 HD
HETATM   29  C18 UNL     1      18.975 -14.277  25.605  1.00  0.00     0.057 A 
HETATM   30  C19 UNL     1      19.733 -13.564  24.677  1.00  0.00     0.013 A 
BRANCH  30  31
HETATM   31  C20 UNL     1      20.573 -12.488  25.205  1.00  0.00     0.053 C 
HETATM   32  C21 UNL     1      20.679 -12.497  26.699  1.00  0.00     0.011 C 
ENDBRANCH  30  31
ENDBRANCH  19  20
ENDBRANCH  18  19
ENDBRANCH  17  18
ENDBRANCH  16  17
ENDBRANCH  14  16
ENDBRANCH  11  14
ENDBRANCH   6   7
ENDBRANCH   5   6
ENDBRANCH   4   5
ENDBRANCH   3   4
TORSDOF 11
ENDMDL
MODEL 2
REMARK VINA RESULT: -7.227216132      1.956      4.189
REMARK  11 active torsions:
REMARK  status: ('A' for Active; 'I' for Inactive)
REMARK    1  A    between atoms: C3_3  and  C4_4 
REMARK    2  A    between atoms: C4_4  and  C5_5 
REMARK    3  A    between atoms: C5_5  and  C6_6 
REMARK    4  A    between atoms: C6_6  and  N1_7 
REMARK    5  A    between atoms: C9_12  and  N3_13 
REMARK    6  A    between atoms: N3_13  and  C10_15 
REMARK    7  A    between atoms: C10_15  and  C11_16 
REMARK    8  A    between atoms: C11_16  and  C12_17 
REMARK    9  A    between atoms: C12_17  and  C13_18 
REMARK   10  A    between atoms: C13_18  and  N4_19 
REMARK   11  A    between atoms: C19_29  and  C20_30 
ROOT
HETATM    1  C1  UNL     1      15.718 -16.462  15.367  1.00  0.00     0.113 C 
HETATM    2  C2  UNL     1      15.002 -15.815  16.469  1.00  0.00    -0.097 C 
HETATM    3  C3  UNL     1      14.411 -15.262  17.369  1.00  0.00    -0.015 C 
ENDROOT
BRANCH   3   4
HETATM    4  C4  UNL     1      13.724 -14.592  18.415  1.00  0.00    -0.013 C 
BRANCH   4   5
HETATM    5  C5  UNL     1      13.141 -14.006  19.292  1.00  0.00    -0.072 C 
BRANCH   5   6
HETATM    6  C6  UNL     1      12.446 -13.267  20.374  1.00  0.00     0.222 C 
BRANCH   6   7
HETATM    7  N1  UNL     1      13.206 -12.082  20.670  1.00  0.00    -0.351 N 
HETATM    8  C7  UNL     1      12.606 -10.923  20.972  1.00  0.00     0.108 A 
HETATM    9  C8  UNL     1      13.331  -9.771  21.259  1.00  0.00     0.107 A 
HETATM   10  N2  UNL     1      14.658  -9.825  21.233  1.00  0.00    -0.350 N 
HETATM   11  C9  UNL     1      15.290 -10.981  20.933  1.00  0.00     0.116 A 
ATOM     12  H2  UNL     1      15.202  -8.988  21.441  1.00  0.00     0.166 HD
HETATM   13  C22 UNL     1      14.544 -12.111  20.650  1.00  0.00     0.139 A 
BRANCH  11  14
HETATM   14  N3  UNL     1      16.568 -10.962  20.926  1.00  0.00    -0.375 N 
ATOM     15  H3  UNL     1      17.021 -10.282  21.536  1.00  0.00     0.161 HD
BRANCH  14  16
HETATM   16  C10 UNL     1      17.426 -11.801  20.145  1.00  0.00     0.121 C 
BRANCH  16  17
HETATM   17  C11 UNL     1      18.850 -11.812  20.665  1.00  0.00     0.021 C 
BRANCH  17  18
HETATM   18  C12 UNL     1      19.257 -13.230  21.061  1.00  0.00     0.022 C 
BRANCH  18  19
HETATM   19  C13 UNL     1      20.059 -13.239  22.321  1.00  0.00     0.128 C 
BRANCH  19  20
HETATM   20  N4  UNL     1      19.422 -13.889  23.427  1.00  0.00    -0.358 N 
HETATM   21  C14 UNL     1      18.544 -14.910  23.174  1.00  0.00     0.122 A 
HETATM   22  C15 UNL     1      17.871 -15.600  24.135  1.00  0.00     0.075 A 
HETATM   23  N5  UNL     1      16.973 -16.622  24.139  1.00  0.00    -0.349 N 
HETATM   24  C17 UNL     1      18.065 -15.274  25.440  1.00  0.00     0.063 A 
HETATM   25  C16 UNL     1      16.631 -16.911  25.404  1.00  0.00     0.181 A 
ATOM     26  H5  UNL     1      16.615 -17.095  23.309  1.00  0.00     0.166 HD
HETATM   27  N6  UNL     1      17.296 -16.090  26.200  1.00  0.00    -0.350 N 
ATOM     28  H6  UNL     1      17.239 -16.073  27.218  1.00  0.00     0.166 HD
HETATM   29  C18 UNL     1      18.945 -14.249  25.716  1.00  0.00     0.057 A 
HETATM   30  C19 UNL     1      19.623 -13.557  24.713  1.00  0.00     0.013 A 
BRANCH  30  31
HETATM   31  C20 UNL     1      20.534 -12.496  25.148  1.00  0.00     0.053 C 
HETATM   32  C21 UNL     1      20.784 -12.499  26.624  1.00  0.00     0.011 C 
ENDBRANCH  30  31
ENDBRANCH  19  20
ENDBRANCH  18  19
ENDBRANCH  17  18
ENDBRANCH  16  17
ENDBRANCH  14  16
ENDBRANCH  11  14
ENDBRANCH   6   7
ENDBRANCH   5   6
ENDBRANCH   4   5
ENDBRANCH   3   4
TORSDOF 11
ENDMDL
MODEL 3
REMARK VINA RESULT: -7.190180805      1.856      7.699
REMARK  11 active torsions:
REMARK  status: ('A' for Active; 'I' for Inactive)
REMARK    1  A    between atoms: C3_3  and  C4_4 
REMARK    2  A    between atoms: C4_4  and  C5_5 
REMARK    3  A    between atoms: C5_5  and  C6_6 
REMARK    4  A    between atoms: C6_6  and  N1_7 
REMARK    5  A    between atoms: C9_12  and  N3_13 
REMARK    6  A    between atoms: N3_13  and  C10_15 
REMARK    7  A    between atoms: C10_15  and  C11_16 
REMARK    8  A    between atoms: C11_16  and  C12_17 
REMARK    9  A    between atoms: C12_17  and  C13_18 
REMARK   10  A    between atoms: C13_18  and  N4_19 
REMARK   11  A    between atoms: C19_29  and  C20_30 
ROOT
HETATM    1  C1  UNL     1      20.397 -11.785  18.890  1.00  0.00     0.113 C 
HETATM    2  C2  UNL     1      20.221 -12.381  20.216  1.00  0.00    -0.097 C 
HETATM    3  C3  UNL     1      20.068 -12.856  21.320  1.00  0.00    -0.015 C 
ENDROOT
BRANCH   3   4
HETATM    4  C4  UNL     1      19.884 -13.389  22.622  1.00  0.00    -0.013 C 
BRANCH   4   5
HETATM    5  C5  UNL     1      19.735 -13.861  23.721  1.00  0.00    -0.072 C 
BRANCH   5   6
HETATM    6  C6  UNL     1      19.524 -14.433  25.073  1.00  0.00     0.222 C 
BRANCH   6   7
HETATM    7  N1  UNL     1      18.420 -15.352  25.006  1.00  0.00    -0.351 N 
HETATM    8  C7  UNL     1      18.008 -16.031  26.085  1.00  0.00     0.108 A 
HETATM    9  C8  UNL     1      16.942 -16.923  26.031  1.00  0.00     0.107 A 
HETATM   10  N2  UNL     1      16.315 -17.105  24.874  1.00  0.00    -0.350 N 
HETATM   11  C9  UNL     1      16.709 -16.433  23.770  1.00  0.00     0.116 A 
ATOM     12  H2  UNL     1      15.532 -17.756  24.820  1.00  0.00     0.166 HD
HETATM   13  C22 UNL     1      17.773 -15.553  23.852  1.00  0.00     0.139 A 
BRANCH  11  14
HETATM   14  N3  UNL     1      16.062 -16.656  22.690  1.00  0.00    -0.375 N 
ATOM     15  H3  UNL     1      16.584 -17.072  21.919  1.00  0.00     0.161 HD
BRANCH  14  16
HETATM   16  C10 UNL     1      14.677 -16.379  22.457  1.00  0.00     0.121 C 
BRANCH  16  17
HETATM   17  C11 UNL     1      14.466 -15.072  21.719  1.00  0.00     0.021 C 
BRANCH  17  18
HETATM   18  C12 UNL     1      12.974 -14.776  21.585  1.00  0.00     0.022 C 
BRANCH  18  19
HETATM   19  C13 UNL     1      12.724 -13.618  20.674  1.00  0.00     0.128 C 
BRANCH  19  20
HETATM   20  N4  UNL     1      12.789 -12.336  21.309  1.00  0.00    -0.358 N 
HETATM   21  C14 UNL     1      11.848 -12.021  22.253  1.00  0.00     0.122 A 
HETATM   22  C15 UNL     1      11.797 -10.837  22.921  1.00  0.00     0.075 A 
HETATM   23  N5  UNL     1      10.987 -10.299  23.873  1.00  0.00    -0.349 N 
HETATM   24  C17 UNL     1      12.731  -9.887  22.653  1.00  0.00     0.063 A 
HETATM   25  C16 UNL     1      11.412  -9.063  24.176  1.00  0.00     0.181 A 
ATOM     26  H5  UNL     1      10.181 -10.764  24.291  1.00  0.00     0.166 HD
HETATM   27  N6  UNL     1      12.477  -8.809  23.432  1.00  0.00    -0.350 N 
ATOM     28  H6  UNL     1      13.017  -7.943  23.443  1.00  0.00     0.166 HD
HETATM   29  C18 UNL     1      13.688 -10.184  21.705  1.00  0.00     0.057 A 
HETATM   30  C19 UNL     1      13.719 -11.407  21.034  1.00  0.00     0.013 A 
BRANCH  30  31
HETATM   31  C20 UNL     1      14.795 -11.593  20.059  1.00  0.00     0.053 C 
HETATM   32  C21 UNL     1      16.158 -11.335  20.624  1.00  0.00     0.011 C 
ENDBRANCH  30  31
ENDBRANCH  19  20
ENDBRANCH  18  19
ENDBRANCH  17  18
ENDBRANCH  16  17
ENDBRANCH  14  16
ENDBRANCH  11  14
ENDBRANCH   6   7
ENDBRANCH   5   6
ENDBRANCH   4   5
ENDBRANCH   3   4
TORSDOF 11
ENDMDL
MODEL 4
REMARK VINA RESULT: -7.145188564      2.213      6.851
REMARK  11 active torsions:
REMARK  status: ('A' for Active; 'I' for Inactive)
REMARK    1  A    between atoms: C3_3  and  C4_4 
REMARK    2  A    between atoms: C4_4  and  C5_5 
REMARK    3  A    between atoms: C5_5  and  C6_6 
REMARK    4  A    between atoms: C6_6  and  N1_7 
REMARK    5  A    between atoms: C9_12  and  N3_13 
REMARK    6  A    between atoms: N3_13  and  C10_15 
REMARK    7  A    between atoms: C10_15  and  C11_16 
REMARK    8  A    between atoms: C11_16  and  C12_17 
REMARK    9  A    between atoms: C12_17  and  C13_18 
REMARK   10  A    between atoms: C13_18  and  N4_19 
REMARK   11  A    between atoms: C19_29  and  C20_30 
ROOT
HETATM    1  C1  UNL     1      23.865 -13.131  24.025  1.00  0.00     0.113 C 
HETATM    2  C2  UNL     1      22.422 -13.239  23.797  1.00  0.00    -0.097 C 
HETATM    3  C3  UNL     1      21.229 -13.310  23.600  1.00  0.00    -0.015 C 
ENDROOT
BRANCH   3   4
HETATM    4  C4  UNL     1      19.831 -13.369  23.363  1.00  0.00    -0.013 C 
BRANCH   4   5
HETATM    5  C5  UNL     1      18.643 -13.439  23.169  1.00  0.00    -0.072 C 
BRANCH   5   6
HETATM    6  C6  UNL     1      17.187 -13.543  22.908  1.00  0.00     0.222 C 
BRANCH   6   7
HETATM    7  N1  UNL     1      16.873 -12.714  21.775  1.00  0.00    -0.351 N 
HETATM    8  C7  UNL     1      17.636 -12.716  20.674  1.00  0.00     0.108 A 
HETATM    9  C8  UNL     1      17.341 -11.918  19.573  1.00  0.00     0.107 A 
HETATM   10  N2  UNL     1      16.271 -11.132  19.617  1.00  0.00    -0.350 N 
HETATM   11  C9  UNL     1      15.483 -11.111  20.715  1.00  0.00     0.116 A 
ATOM     12  H2  UNL     1      16.044 -10.541  18.818  1.00  0.00     0.166 HD
HETATM   13  C22 UNL     1      15.800 -11.914  21.796  1.00  0.00     0.139 A 
BRANCH  11  14
HETATM   14  N3  UNL     1      14.470 -10.333  20.690  1.00  0.00    -0.375 N 
ATOM     15  H3  UNL     1      14.294  -9.834  19.819  1.00  0.00     0.161 HD
BRANCH  14  16
HETATM   16  C10 UNL     1      13.558 -10.091  21.767  1.00  0.00     0.121 C 
BRANCH  16  17
HETATM   17  C11 UNL     1      12.178 -10.654  21.491  1.00  0.00     0.021 C 
BRANCH  17  18
HETATM   18  C12 UNL     1      12.080 -12.089  22.004  1.00  0.00     0.022 C 
BRANCH  18  19
HETATM   19  C13 UNL     1      12.042 -13.072  20.879  1.00  0.00     0.128 C 
BRANCH  19  20
HETATM   20  N4  UNL     1      13.095 -14.043  20.902  1.00  0.00    -0.358 N 
HETATM   21  C14 UNL     1      13.302 -14.762  22.049  1.00  0.00     0.122 A 
HETATM   22  C15 UNL     1      14.271 -15.705  22.200  1.00  0.00     0.075 A 
HETATM   23  N5  UNL     1      14.667 -16.530  23.207  1.00  0.00    -0.349 N 
HETATM   24  C17 UNL     1      15.101 -15.971  21.158  1.00  0.00     0.063 A 
HETATM   25  C16 UNL     1      15.705 -17.274  22.794  1.00  0.00     0.181 A 
ATOM     26  H5  UNL     1      14.242 -16.575  24.133  1.00  0.00     0.166 HD
HETATM   27  N6  UNL     1      15.972 -16.934  21.543  1.00  0.00    -0.350 N 
ATOM     28  H6  UNL     1      16.711 -17.332  20.964  1.00  0.00     0.166 HD
HETATM   29  C18 UNL     1      14.909 -15.258  19.993  1.00  0.00     0.057 A 
HETATM   30  C19 UNL     1      13.908 -14.295  19.864  1.00  0.00     0.013 A 
BRANCH  30  31
HETATM   31  C20 UNL     1      13.811 -13.619  18.569  1.00  0.00     0.053 C 
HETATM   32  C21 UNL     1      14.926 -13.971  17.632  1.00  0.00     0.011 C 
ENDBRANCH  30  31
ENDBRANCH  19  20
ENDBRANCH  18  19
ENDBRANCH  17  18
ENDBRANCH  16  17
ENDBRANCH  14  16
ENDBRANCH  11  14
ENDBRANCH   6   7
ENDBRANCH   5   6
ENDBRANCH   4   5
ENDBRANCH   3   4
TORSDOF 11
ENDMDL
MODEL 5
REMARK VINA RESULT: -7.111375168      2.305      4.857
REMARK  11 active torsions:
REMARK  status: ('A' for Active; 'I' for Inactive)
REMARK    1  A    between atoms: C3_3  and  C4_4 
REMARK    2  A    between atoms: C4_4  and  C5_5 
REMARK    3  A    between atoms: C5_5  and  C6_6 
REMARK    4  A    between atoms: C6_6  and  N1_7 
REMARK    5  A    between atoms: C9_12  and  N3_13 
REMARK    6  A    between atoms: N3_13  and  C10_15 
REMARK    7  A    between atoms: C10_15  and  C11_16 
REMARK    8  A    between atoms: C11_16  and  C12_17 
REMARK    9  A    between atoms: C12_17  and  C13_18 
REMARK   10  A    between atoms: C13_18  and  N4_19 
REMARK   11  A    between atoms: C19_29  and  C20_30 
ROOT
HETATM    1  C1  UNL     1      20.576 -11.835  19.855  1.00  0.00     0.113 C 
HETATM    2  C2  UNL     1      19.151 -11.690  20.161  1.00  0.00    -0.097 C 
HETATM    3  C3  UNL     1      17.976 -11.576  20.435  1.00  0.00    -0.015 C 
ENDROOT
BRANCH   3   4
HETATM    4  C4  UNL     1      16.605 -11.451  20.776  1.00  0.00    -0.013 C 
BRANCH   4   5
HETATM    5  C5  UNL     1      15.436 -11.363  21.057  1.00  0.00    -0.072 C 
BRANCH   5   6
HETATM    6  C6  UNL     1      13.995 -11.282  21.395  1.00  0.00     0.222 C 
BRANCH   6   7
HETATM    7  N1  UNL     1      13.466 -12.619  21.436  1.00  0.00    -0.351 N 
HETATM    8  C7  UNL     1      12.328 -12.940  20.805  1.00  0.00     0.108 A 
HETATM    9  C8  UNL     1      11.808 -14.230  20.838  1.00  0.00     0.107 A 
HETATM   10  N2  UNL     1      12.459 -15.169  21.516  1.00  0.00    -0.350 N 
HETATM   11  C9  UNL     1      13.609 -14.873  22.161  1.00  0.00     0.116 A 
ATOM     12  H2  UNL     1      12.089 -16.118  21.549  1.00  0.00     0.166 HD
HETATM   13  C22 UNL     1      14.104 -13.581  22.112  1.00  0.00     0.139 A 
BRANCH  11  14
HETATM   14  N3  UNL     1      14.184 -15.822  22.793  1.00  0.00    -0.375 N 
ATOM     15  H3  UNL     1      13.824 -16.041  23.721  1.00  0.00     0.161 HD
BRANCH  14  16
HETATM   16  C10 UNL     1      15.285 -16.610  22.325  1.00  0.00     0.121 C 
BRANCH  16  17
HETATM   17  C11 UNL     1      16.551 -16.361  23.122  1.00  0.00     0.021 C 
BRANCH  17  18
HETATM   18  C12 UNL     1      17.429 -15.334  22.411  1.00  0.00     0.022 C 
BRANCH  18  19
HETATM   19  C13 UNL     1      17.591 -14.093  23.226  1.00  0.00     0.128 C 
BRANCH  19  20
HETATM   20  N4  UNL     1      18.846 -13.988  23.907  1.00  0.00    -0.358 N 
HETATM   21  C14 UNL     1      19.956 -13.629  23.190  1.00  0.00     0.122 A 
HETATM   22  C15 UNL     1      21.204 -13.502  23.717  1.00  0.00     0.075 A 
HETATM   23  N5  UNL     1      22.430 -13.169  23.229  1.00  0.00    -0.349 N 
HETATM   24  C17 UNL     1      21.388 -13.741  25.042  1.00  0.00     0.063 A 
HETATM   25  C16 UNL     1      23.332 -13.204  24.223  1.00  0.00     0.181 A 
ATOM     26  H5  UNL     1      22.632 -12.931  22.258  1.00  0.00     0.166 HD
HETATM   27  N6  UNL     1      22.698 -13.553  25.330  1.00  0.00    -0.350 N 
ATOM     28  H6  UNL     1      23.125 -13.663  26.250  1.00  0.00     0.166 HD
HETATM   29  C18 UNL     1      20.283 -14.104  25.784  1.00  0.00     0.057 A 
HETATM   30  C19 UNL     1      19.013 -14.227  25.218  1.00  0.00     0.013 A 
BRANCH  30  31
HETATM   31  C20 UNL     1      17.928 -14.611  26.122  1.00  0.00     0.053 C 
HETATM   32  C21 UNL     1      18.009 -16.037  26.573  1.00  0.00     0.011 C 
ENDBRANCH  30  31
ENDBRANCH  19  20
ENDBRANCH  18  19
ENDBRANCH  17  18
ENDBRANCH  16  17
ENDBRANCH  14  16
ENDBRANCH  11  14
ENDBRANCH   6   7
ENDBRANCH   5   6
ENDBRANCH   4   5
ENDBRANCH   3   4
TORSDOF 11
ENDMDL
