MODEL 1
REMARK VINA RESULT: -7.978564364      0.000      0.000
REMARK  8 active torsions:
REMARK  status: ('A' for Active; 'I' for Inactive)
REMARK    1  A    between atoms: N1_2  and  C2_3 
REMARK    2  A    between atoms: N1_2  and  C5_9 
REMARK    3  A    between atoms: C2_3  and  C3_4 
REMARK    4  A    between atoms: C3_4  and  N2_5 
REMARK    5  A    between atoms: N2_5  and  O1_7 
REMARK    6  A    between atoms: C5_9  and  C6_10 
REMARK    7  A    between atoms: C13_17  and  N3_18 
REMARK    8  A    between atoms: N3_18  and  C14_20 
ROOT
HETATM    1  C6  UNL     1      12.581 -13.332  20.705  1.00  0.00     0.028 A 
HETATM    2  C7  UNL     1      11.895 -14.224  19.709  1.00  0.00     0.020 A 
HETATM    3  C8  UNL     1      13.007 -15.221  19.760  1.00  0.00    -0.019 A 
HETATM    4  C9  UNL     1      12.678 -16.605  20.221  1.00  0.00     0.011 C 
HETATM    5  C10 UNL     1      12.770 -17.495  18.994  1.00  0.00     0.001 C 
HETATM    6  C11 UNL     1      13.009 -16.571  17.829  1.00  0.00     0.001 C 
HETATM    7  C12 UNL     1      13.762 -15.435  18.492  1.00  0.00     0.011 C 
HETATM    8  C13 UNL     1      13.674 -14.334  20.795  1.00  0.00     0.097 A 
ENDROOT
BRANCH   8   9
HETATM    9  N3  UNL     1      15.002 -13.966  20.432  1.00  0.00    -0.369 N 
ATOM     10  H3  UNL     1      15.205 -13.662  19.480  1.00  0.00     0.161 HD
BRANCH   9  11
HETATM   11  C14 UNL     1      15.940 -14.016  21.301  1.00  0.00     0.125 A 
HETATM   12  N4  UNL     1      16.064 -14.668  22.470  1.00  0.00    -0.285 N 
HETATM   13  N5  UNL     1      17.192 -14.414  23.048  1.00  0.00    -0.299 N 
ATOM     14  H4  UNL     1      15.352 -15.290  22.854  1.00  0.00     0.188 HD
HETATM   15  C15 UNL     1      17.920 -13.542  22.273  1.00  0.00     0.055 A 
ATOM     16  H5  UNL     1      17.496 -14.800  23.942  1.00  0.00     0.187 HD
HETATM   17  C16 UNL     1      17.083 -13.321  21.176  1.00  0.00     0.025 A 
HETATM   18  C21 UNL     1      19.229 -13.061  22.692  1.00  0.00     0.006 C 
HETATM   19  C17 UNL     1      17.504 -12.420  20.007  1.00  0.00     0.124 C 
HETATM   20  C18 UNL     1      18.912 -12.211  20.110  1.00  0.00    -0.178 C 
HETATM   21  C19 UNL     1      20.252 -12.185  20.516  1.00  0.00     0.084 C 
HETATM   22  C20 UNL     1      20.410 -13.043  21.810  1.00  0.00     0.040 C 
ENDBRANCH   9  11
ENDBRANCH   8   9
BRANCH   1  23
HETATM   23  C5  UNL     1      12.891 -11.954  20.214  1.00  0.00     0.128 C 
BRANCH  23  24
HETATM   24  N1  UNL     1      13.236 -11.150  21.334  1.00  0.00    -0.392 N 
HETATM   25  C1  UNL     1      14.489 -10.550  21.308  1.00  0.00     0.148 C 
BRANCH  24  26
HETATM   26  C2  UNL     1      12.180 -10.566  22.023  1.00  0.00     0.104 C 
BRANCH  26  27
HETATM   27  C3  UNL     1      12.457  -9.313  22.770  1.00  0.00     0.133 C 
BRANCH  27  28
HETATM   28  N2  UNL     1      11.591  -9.038  23.831  1.00  0.00    -0.275 N 
HETATM   29  C4  UNL     1      11.651  -7.823  24.601  1.00  0.00     0.184 C 
BRANCH  28  30
HETATM   30  O1  UNL     1      10.724  -9.805  24.154  1.00  0.00    -0.288 OA
ATOM     31  H1  UNL     1       9.974  -9.524  24.665  1.00  0.00     0.244 HD
ENDBRANCH  28  30
ENDBRANCH  27  28
ENDBRANCH  26  27
ENDBRANCH  24  26
ENDBRANCH  23  24
ENDBRANCH   1  23
TORSDOF 8
ENDMDL
MODEL 2
REMARK VINA RESULT: -7.690976852      2.400      3.240
REMARK  8 active torsions:
REMARK  status: ('A' for Active; 'I' for Inactive)
REMARK    1  A    between atoms: N1_2  and  C2_3 
REMARK    2  A    between atoms: N1_2  and  C5_9 
REMARK    3  A    between atoms: C2_3  and  C3_4 
REMARK    4  A    between atoms: C3_4  and  N2_5 
REMARK    5  A    between atoms: N2_5  and  O1_7 
REMARK    6  A    between atoms: C5_9  and  C6_10 
REMARK    7  A    between atoms: C13_17  and  N3_18 
REMARK    8  A    between atoms: N3_18  and  C14_20 
ROOT
HETATM    1  C6  UNL     1      14.313 -12.310  20.183  1.00  0.00     0.028 A 
HETATM    2  C7  UNL     1      13.776 -12.170  18.787  1.00  0.00     0.020 A 
HETATM    3  C8  UNL     1      15.136 -12.345  18.192  1.00  0.00    -0.019 A 
HETATM    4  C9  UNL     1      15.349 -13.508  17.276  1.00  0.00     0.011 C 
HETATM    5  C10 UNL     1      15.494 -12.929  15.880  1.00  0.00     0.001 C 
HETATM    6  C11 UNL     1      15.215 -11.455  16.012  1.00  0.00     0.001 C 
HETATM    7  C12 UNL     1      15.678 -11.183  17.429  1.00  0.00     0.011 C 
HETATM    8  C13 UNL     1      15.664 -12.525  19.603  1.00  0.00     0.097 A 
ENDROOT
BRANCH   8   9
HETATM    9  N3  UNL     1      16.720 -11.619  19.916  1.00  0.00    -0.369 N 
ATOM     10  H3  UNL     1      16.554 -10.614  19.892  1.00  0.00     0.161 HD
BRANCH   9  11
HETATM   11  C14 UNL     1      17.878 -12.069  20.227  1.00  0.00     0.125 A 
HETATM   12  N4  UNL     1      19.071 -12.015  19.611  1.00  0.00    -0.285 N 
HETATM   13  N5  UNL     1      19.989 -12.632  20.281  1.00  0.00    -0.299 N 
ATOM     14  H4  UNL     1      19.232 -11.544  18.721  1.00  0.00     0.188 HD
HETATM   15  C15 UNL     1      19.445 -13.157  21.430  1.00  0.00     0.055 A 
ATOM     16  H5  UNL     1      20.966 -12.717  20.000  1.00  0.00     0.187 HD
HETATM   17  C16 UNL     1      18.104 -12.772  21.350  1.00  0.00     0.025 A 
HETATM   18  C21 UNL     1      20.248 -13.927  22.370  1.00  0.00     0.006 C 
HETATM   19  C17 UNL     1      17.098 -13.113  22.457  1.00  0.00     0.124 C 
HETATM   20  C18 UNL     1      17.842 -13.514  23.606  1.00  0.00    -0.178 C 
HETATM   21  C19 UNL     1      18.848 -13.878  24.510  1.00  0.00     0.084 C 
HETATM   22  C20 UNL     1      20.239 -13.699  23.826  1.00  0.00     0.040 C 
ENDBRANCH   9  11
ENDBRANCH   8   9
BRANCH   1  23
HETATM   23  C5  UNL     1      14.079 -11.132  21.074  1.00  0.00     0.128 C 
BRANCH  23  24
HETATM   24  N1  UNL     1      12.725 -11.162  21.505  1.00  0.00    -0.392 N 
HETATM   25  C1  UNL     1      12.316 -12.292  22.201  1.00  0.00     0.148 C 
BRANCH  24  26
HETATM   26  C2  UNL     1      12.123  -9.930  21.728  1.00  0.00     0.104 C 
BRANCH  26  27
HETATM   27  C3  UNL     1      12.595  -9.136  22.890  1.00  0.00     0.133 C 
BRANCH  27  28
HETATM   28  N2  UNL     1      11.640  -8.884  23.879  1.00  0.00    -0.275 N 
HETATM   29  C4  UNL     1      11.613  -7.673  24.658  1.00  0.00     0.184 C 
BRANCH  28  30
HETATM   30  O1  UNL     1      10.764  -9.669  24.126  1.00  0.00    -0.288 OA
ATOM     31  H1  UNL     1      10.320 -10.154  23.441  1.00  0.00     0.244 HD
ENDBRANCH  28  30
ENDBRANCH  27  28
ENDBRANCH  26  27
ENDBRANCH  24  26
ENDBRANCH  23  24
ENDBRANCH   1  23
TORSDOF 8
ENDMDL
MODEL 3
REMARK VINA RESULT: -7.686527946      2.234      5.467
REMARK  8 active torsions:
REMARK  status: ('A' for Active; 'I' for Inactive)
REMARK    1  A    between atoms: N1_2  and  C2_3 
REMARK    2  A    between atoms: N1_2  and  C5_9 
REMARK    3  A    between atoms: C2_3  and  C3_4 
REMARK    4  A    between atoms: C3_4  and  N2_5 
REMARK    5  A    between atoms: N2_5  and  O1_7 
REMARK    6  A    between atoms: C5_9  and  C6_10 
REMARK    7  A    between atoms: C13_17  and  N3_18 
REMARK    8  A    between atoms: N3_18  and  C14_20 
ROOT
HETATM    1  C6  UNL     1      14.568 -14.999  20.277  1.00  0.00     0.028 A 
HETATM    2  C7  UNL     1      14.047 -16.369  19.944  1.00  0.00     0.020 A 
HETATM    3  C8  UNL     1      12.900 -15.800  19.172  1.00  0.00    -0.019 A 
HETATM    4  C9  UNL     1      12.803 -16.140  17.719  1.00  0.00     0.011 C 
HETATM    5  C10 UNL     1      11.621 -17.082  17.581  1.00  0.00     0.001 C 
HETATM    6  C11 UNL     1      11.157 -17.374  18.984  1.00  0.00     0.001 C 
HETATM    7  C12 UNL     1      11.537 -16.094  19.702  1.00  0.00     0.011 C 
HETATM    8  C13 UNL     1      13.455 -14.422  19.480  1.00  0.00     0.097 A 
ENDROOT
BRANCH   8   9
HETATM    9  N3  UNL     1      12.501 -13.571  20.112  1.00  0.00    -0.369 N 
ATOM     10  H3  UNL     1      11.602 -13.948  20.412  1.00  0.00     0.161 HD
BRANCH   9  11
HETATM   11  C14 UNL     1      12.773 -12.335  20.302  1.00  0.00     0.125 A 
HETATM   12  N4  UNL     1      13.306 -11.389  19.511  1.00  0.00    -0.285 N 
HETATM   13  N5  UNL     1      13.427 -10.257  20.125  1.00  0.00    -0.299 N 
ATOM     14  H4  UNL     1      13.584 -11.545  18.541  1.00  0.00     0.188 HD
HETATM   15  C15 UNL     1      12.963 -10.381  21.414  1.00  0.00     0.055 A 
ATOM     16  H5  UNL     1      13.807  -9.403  19.716  1.00  0.00     0.187 HD
HETATM   17  C16 UNL     1      12.559 -11.718  21.476  1.00  0.00     0.025 A 
HETATM   18  C21 UNL     1      12.998  -9.265  22.347  1.00  0.00     0.006 C 
HETATM   19  C17 UNL     1      11.928 -12.313  22.742  1.00  0.00     0.124 C 
HETATM   20  C18 UNL     1      11.546 -11.227  23.583  1.00  0.00    -0.178 C 
HETATM   21  C19 UNL     1      11.336  -9.968  24.160  1.00  0.00     0.084 C 
HETATM   22  C20 UNL     1      11.851  -8.866  23.183  1.00  0.00     0.040 C 
ENDBRANCH   9  11
ENDBRANCH   8   9
BRANCH   1  23
HETATM   23  C5  UNL     1      14.657 -14.693  21.738  1.00  0.00     0.128 C 
BRANCH  23  24
HETATM   24  N1  UNL     1      15.952 -14.172  22.005  1.00  0.00    -0.392 N 
HETATM   25  C1  UNL     1      17.031 -14.907  21.531  1.00  0.00     0.148 C 
BRANCH  24  26
HETATM   26  C2  UNL     1      16.041 -12.794  22.161  1.00  0.00     0.104 C 
BRANCH  26  27
HETATM   27  C3  UNL     1      17.112 -12.086  21.414  1.00  0.00     0.133 C 
BRANCH  27  28
HETATM   28  N2  UNL     1      16.696 -11.385  20.279  1.00  0.00    -0.275 N 
HETATM   29  C4  UNL     1      16.789 -11.920  18.945  1.00  0.00     0.184 C 
BRANCH  28  30
HETATM   30  O1  UNL     1      16.216 -10.286  20.356  1.00  0.00    -0.288 OA
ATOM     31  H1  UNL     1      16.537  -9.564  19.831  1.00  0.00     0.244 HD
ENDBRANCH  28  30
ENDBRANCH  27  28
ENDBRANCH  26  27
ENDBRANCH  24  26
ENDBRANCH  23  24
ENDBRANCH   1  23
TORSDOF 8
ENDMDL
MODEL 4
REMARK VINA RESULT: -7.673777655      2.094      2.893
REMARK  8 active torsions:
REMARK  status: ('A' for Active; 'I' for Inactive)
REMARK    1  A    between atoms: N1_2  and  C2_3 
REMARK    2  A    between atoms: N1_2  and  C5_9 
REMARK    3  A    between atoms: C2_3  and  C3_4 
REMARK    4  A    between atoms: C3_4  and  N2_5 
REMARK    5  A    between atoms: N2_5  and  O1_7 
REMARK    6  A    between atoms: C5_9  and  C6_10 
REMARK    7  A    between atoms: C13_17  and  N3_18 
REMARK    8  A    between atoms: N3_18  and  C14_20 
ROOT
HETATM    1  C6  UNL     1      13.950 -12.554  20.531  1.00  0.00     0.028 A 
HETATM    2  C7  UNL     1      13.847 -11.895  19.185  1.00  0.00     0.020 A 
HETATM    3  C8  UNL     1      15.053 -12.619  18.681  1.00  0.00    -0.019 A 
HETATM    4  C9  UNL     1      14.879 -13.527  17.506  1.00  0.00     0.011 C 
HETATM    5  C10 UNL     1      15.568 -12.847  16.337  1.00  0.00     0.001 C 
HETATM    6  C11 UNL     1      15.996 -11.493  16.839  1.00  0.00     0.001 C 
HETATM    7  C12 UNL     1      16.225 -11.773  18.311  1.00  0.00     0.011 C 
HETATM    8  C13 UNL     1      15.127 -13.310  20.030  1.00  0.00     0.097 A 
ENDROOT
BRANCH   8   9
HETATM    9  N3  UNL     1      16.393 -13.148  20.665  1.00  0.00    -0.369 N 
ATOM     10  H3  UNL     1      17.057 -12.460  20.311  1.00  0.00     0.161 HD
BRANCH   9  11
HETATM   11  C14 UNL     1      16.696 -13.866  21.680  1.00  0.00     0.125 A 
HETATM   12  N4  UNL     1      16.042 -14.843  22.331  1.00  0.00    -0.285 N 
HETATM   13  N5  UNL     1      16.720 -15.292  23.337  1.00  0.00    -0.299 N 
ATOM     14  H4  UNL     1      15.121 -15.189  22.064  1.00  0.00     0.188 HD
HETATM   15  C15 UNL     1      17.916 -14.616  23.424  1.00  0.00     0.055 A 
ATOM     16  H5  UNL     1      16.417 -16.032  23.969  1.00  0.00     0.187 HD
HETATM   17  C16 UNL     1      17.852 -13.723  22.350  1.00  0.00     0.025 A 
HETATM   18  C21 UNL     1      18.876 -14.899  24.481  1.00  0.00     0.006 C 
HETATM   19  C17 UNL     1      19.008 -12.768  22.025  1.00  0.00     0.124 C 
HETATM   20  C18 UNL     1      20.156 -13.223  22.738  1.00  0.00    -0.178 C 
HETATM   21  C19 UNL     1      21.050 -13.900  23.577  1.00  0.00     0.084 C 
HETATM   22  C20 UNL     1      20.315 -15.106  24.240  1.00  0.00     0.040 C 
ENDBRANCH   9  11
ENDBRANCH   8   9
BRANCH   1  23
HETATM   23  C5  UNL     1      14.118 -11.618  21.684  1.00  0.00     0.128 C 
BRANCH  23  24
HETATM   24  N1  UNL     1      12.850 -11.052  21.988  1.00  0.00    -0.392 N 
HETATM   25  C1  UNL     1      11.881 -11.919  22.476  1.00  0.00     0.148 C 
BRANCH  24  26
HETATM   26  C2  UNL     1      12.844  -9.706  22.334  1.00  0.00     0.104 C 
BRANCH  26  27
HETATM   27  C3  UNL     1      11.910  -9.278  23.406  1.00  0.00     0.133 C 
BRANCH  27  28
HETATM   28  N2  UNL     1      12.258  -8.103  24.078  1.00  0.00    -0.275 N 
HETATM   29  C4  UNL     1      11.327  -7.347  24.875  1.00  0.00     0.184 C 
BRANCH  28  30
HETATM   30  O1  UNL     1      13.375  -7.661  24.040  1.00  0.00    -0.288 OA
ATOM     31  H1  UNL     1      13.772  -7.245  24.795  1.00  0.00     0.244 HD
ENDBRANCH  28  30
ENDBRANCH  27  28
ENDBRANCH  26  27
ENDBRANCH  24  26
ENDBRANCH  23  24
ENDBRANCH   1  23
TORSDOF 8
ENDMDL
MODEL 5
REMARK VINA RESULT: -7.657222367      2.219      6.434
REMARK  8 active torsions:
REMARK  status: ('A' for Active; 'I' for Inactive)
REMARK    1  A    between atoms: N1_2  and  C2_3 
REMARK    2  A    between atoms: N1_2  and  C5_9 
REMARK    3  A    between atoms: C2_3  and  C3_4 
REMARK    4  A    between atoms: C3_4  and  N2_5 
REMARK    5  A    between atoms: N2_5  and  O1_7 
REMARK    6  A    between atoms: C5_9  and  C6_10 
REMARK    7  A    between atoms: C13_17  and  N3_18 
REMARK    8  A    between atoms: N3_18  and  C14_20 
ROOT
HETATM    1  C6  UNL     1      16.745 -16.066  21.474  1.00  0.00     0.028 A 
HETATM    2  C7  UNL     1      18.224 -15.837  21.342  1.00  0.00     0.020 A 
HETATM    3  C8  UNL     1      18.111 -14.453  21.893  1.00  0.00    -0.019 A 
HETATM    4  C9  UNL     1      18.852 -14.143  23.154  1.00  0.00     0.011 C 
HETATM    5  C10 UNL     1      19.995 -13.224  22.762  1.00  0.00     0.001 C 
HETATM    6  C11 UNL     1      19.965 -13.146  21.258  1.00  0.00     0.001 C 
HETATM    7  C12 UNL     1      18.489 -13.342  20.972  1.00  0.00     0.011 C 
HETATM    8  C13 UNL     1      16.624 -14.706  22.060  1.00  0.00     0.097 A 
ENDROOT
BRANCH   8   9
HETATM    9  N3  UNL     1      15.820 -13.725  21.408  1.00  0.00    -0.369 N 
ATOM     10  H3  UNL     1      16.198 -13.197  20.622  1.00  0.00     0.161 HD
BRANCH   9  11
HETATM   11  C14 UNL     1      14.625 -13.507  21.811  1.00  0.00     0.125 A 
HETATM   12  N4  UNL     1      13.677 -14.311  22.322  1.00  0.00    -0.285 N 
HETATM   13  N5  UNL     1      12.585 -13.667  22.578  1.00  0.00    -0.299 N 
ATOM     14  H4  UNL     1      13.804 -15.309  22.488  1.00  0.00     0.188 HD
HETATM   15  C15 UNL     1      12.741 -12.342  22.240  1.00  0.00     0.055 A 
ATOM     16  H5  UNL     1      11.737 -14.077  22.970  1.00  0.00     0.187 HD
HETATM   17  C16 UNL     1      14.053 -12.293  21.759  1.00  0.00     0.025 A 
HETATM   18  C21 UNL     1      11.659 -11.382  22.401  1.00  0.00     0.006 C 
HETATM   19  C17 UNL     1      14.691 -10.979  21.290  1.00  0.00     0.124 C 
HETATM   20  C18 UNL     1      13.877  -9.910  21.767  1.00  0.00    -0.178 C 
HETATM   21  C19 UNL     1      12.866  -9.127  22.341  1.00  0.00     0.084 C 
HETATM   22  C20 UNL     1      11.829 -10.062  23.036  1.00  0.00     0.040 C 
ENDBRANCH   9  11
ENDBRANCH   8   9
BRANCH   1  23
HETATM   23  C5  UNL     1      16.035 -16.378  20.196  1.00  0.00     0.128 C 
BRANCH  23  24
HETATM   24  N1  UNL     1      14.963 -17.265  20.486  1.00  0.00    -0.392 N 
HETATM   25  C1  UNL     1      14.940 -17.818  21.760  1.00  0.00     0.148 C 
BRANCH  24  26
HETATM   26  C2  UNL     1      13.788 -17.065  19.774  1.00  0.00     0.104 C 
BRANCH  26  27
HETATM   27  C3  UNL     1      13.604 -15.750  19.108  1.00  0.00     0.133 C 
BRANCH  27  28
HETATM   28  N2  UNL     1      12.300 -15.248  19.110  1.00  0.00    -0.275 N 
HETATM   29  C4  UNL     1      11.157 -16.025  18.706  1.00  0.00     0.184 C 
BRANCH  28  30
HETATM   30  O1  UNL     1      12.055 -14.128  19.470  1.00  0.00    -0.288 OA
ATOM     31  H1  UNL     1      11.476 -13.561  18.976  1.00  0.00     0.244 HD
ENDBRANCH  28  30
ENDBRANCH  27  28
ENDBRANCH  26  27
ENDBRANCH  24  26
ENDBRANCH  23  24
ENDBRANCH   1  23
TORSDOF 8
ENDMDL
