MODEL 1
REMARK VINA RESULT: -7.740595088      0.000      0.000
REMARK  10 active torsions:
REMARK  status: ('A' for Active; 'I' for Inactive)
REMARK    1  A    between atoms: C2_2  and  N1_3 
REMARK    2  A    between atoms: N1_3  and  C3_4 
REMARK    3  A    between atoms: C5_6  and  O1_7 
REMARK    4  A    between atoms: C5_6  and  N2_9 
REMARK    5  A    between atoms: N2_9  and  C6_11 
REMARK    6  A    between atoms: C13_18  and  O2_19 
REMARK    7  A    between atoms: C13_18  and  C14_21 
REMARK    8  A    between atoms: C15_22  and  C16_23 
REMARK    9  A    between atoms: C16_23  and  N3_24 
REMARK   10  A    between atoms: N3_24  and  C17_25 
ROOT
HETATM    1  C6  UNL     1      12.197 -13.569  21.429  1.00  0.00     0.093 C 
HETATM    2  C7  UNL     1      13.024 -14.808  21.826  1.00  0.00     0.034 C 
HETATM    3  C8  UNL     1      14.153 -14.664  20.830  1.00  0.00     0.035 C 
HETATM    4  C9  UNL     1      13.519 -14.081  19.601  1.00  0.00    -0.032 C 
HETATM    5  C10 UNL     1      14.418 -13.810  18.437  1.00  0.00     0.016 C 
HETATM    6  C11 UNL     1      12.275 -14.757  19.103  1.00  0.00     0.016 C 
HETATM    7  C12 UNL     1      13.247 -12.905  20.544  1.00  0.00     0.055 C 
HETATM    8  C13 UNL     1      14.520 -13.201  21.202  1.00  0.00     0.086 C 
ENDROOT
BRANCH   8   9
HETATM    9  O2  UNL     1      14.575 -13.187  22.619  1.00  0.00    -0.385 OA
ATOM     10  H2  UNL     1      15.237 -13.830  22.844  1.00  0.00     0.211 HD
ENDBRANCH   8   9
BRANCH   8  11
HETATM   11  C14 UNL     1      15.799 -12.745  20.710  1.00  0.00     0.009 C 
HETATM   12  C15 UNL     1      16.851 -12.552  21.478  1.00  0.00    -0.000 C 
BRANCH  12  13
HETATM   13  C16 UNL     1      18.169 -12.082  20.952  1.00  0.00     0.264 C 
BRANCH  13  14
HETATM   14  N3  UNL     1      19.244 -12.933  21.439  1.00  0.00    -0.064 N 
HETATM   15  C19 UNL     1      18.950 -14.324  21.143  1.00  0.00     0.238 C 
HETATM   16  C20 UNL     1      19.525 -15.183  22.241  1.00  0.00     0.029 C 
HETATM   17  C21 UNL     1      20.113 -14.196  23.228  1.00  0.00     0.029 C 
HETATM   18  C22 UNL     1      19.378 -12.894  22.885  1.00  0.00     0.238 C 
BRANCH  14  19
HETATM   19  C17 UNL     1      20.480 -12.482  20.888  1.00  0.00     0.233 C 
HETATM   20  C18 UNL     1      20.433 -11.916  19.510  1.00  0.00     0.035 C 
ENDBRANCH  14  19
ENDBRANCH  13  14
ENDBRANCH  12  13
ENDBRANCH   8  11
BRANCH   1  21
HETATM   21  N2  UNL     1      11.718 -12.794  22.498  1.00  0.00    -0.351 N 
ATOM     22  H2  UNL     1      11.187 -13.315  23.197  1.00  0.00     0.163 HD
BRANCH  21  23
HETATM   23  C5  UNL     1      11.846 -11.458  22.757  1.00  0.00     0.215 C 
HETATM   24  N1  UNL     1      11.971 -10.132  23.014  1.00  0.00    -0.348 N 
BRANCH  24  25
HETATM   25  C2  UNL     1      11.253  -9.320  23.968  1.00  0.00     0.122 C 
HETATM   26  C1  UNL     1      12.020  -8.025  24.291  1.00  0.00     0.026 C 
ENDBRANCH  24  25
BRANCH  24  27
HETATM   27  C3  UNL     1      13.033  -9.356  22.267  1.00  0.00     0.122 C 
HETATM   28  C4  UNL     1      12.695  -9.399  20.799  1.00  0.00     0.026 C 
ENDBRANCH  24  27
BRANCH  23  29
HETATM   29  O1  UNL     1      10.781 -11.550  23.967  1.00  0.00    -0.333 OA
ATOM     30  H1  UNL     1      10.946 -12.484  24.008  1.00  0.00     0.220 HD
ENDBRANCH  23  29
ENDBRANCH  21  23
ENDBRANCH   1  21
TORSDOF 10
ENDMDL
MODEL 2
REMARK VINA RESULT: -7.488772630      1.065      1.980
REMARK  10 active torsions:
REMARK  status: ('A' for Active; 'I' for Inactive)
REMARK    1  A    between atoms: C2_2  and  N1_3 
REMARK    2  A    between atoms: N1_3  and  C3_4 
REMARK    3  A    between atoms: C5_6  and  O1_7 
REMARK    4  A    between atoms: C5_6  and  N2_9 
REMARK    5  A    between atoms: N2_9  and  C6_11 
REMARK    6  A    between atoms: C13_18  and  O2_19 
REMARK    7  A    between atoms: C13_18  and  C14_21 
REMARK    8  A    between atoms: C15_22  and  C16_23 
REMARK    9  A    between atoms: C16_23  and  N3_24 
REMARK   10  A    between atoms: N3_24  and  C17_25 
ROOT
HETATM    1  C6  UNL     1      12.430 -13.430  21.084  1.00  0.00     0.093 C 
HETATM    2  C7  UNL     1      12.264 -14.960  21.008  1.00  0.00     0.034 C 
HETATM    3  C8  UNL     1      13.690 -15.334  20.674  1.00  0.00     0.035 C 
HETATM    4  C9  UNL     1      14.198 -14.214  19.814  1.00  0.00    -0.032 C 
HETATM    5  C10 UNL     1      15.613 -14.309  19.341  1.00  0.00     0.016 C 
HETATM    6  C11 UNL     1      13.329 -13.807  18.660  1.00  0.00     0.016 C 
HETATM    7  C12 UNL     1      13.955 -13.396  21.086  1.00  0.00     0.055 C 
HETATM    8  C13 UNL     1      14.346 -14.575  21.860  1.00  0.00     0.086 C 
ENDROOT
BRANCH   8   9
HETATM    9  O2  UNL     1      13.573 -14.934  22.994  1.00  0.00    -0.385 OA
ATOM     10  H2  UNL     1      14.207 -15.076  23.687  1.00  0.00     0.211 HD
ENDBRANCH   8   9
BRANCH   8  11
HETATM   11  C14 UNL     1      15.717 -14.933  22.134  1.00  0.00     0.009 C 
HETATM   12  C15 UNL     1      16.631 -14.073  22.535  1.00  0.00    -0.000 C 
BRANCH  12  13
HETATM   13  C16 UNL     1      18.047 -14.461  22.818  1.00  0.00     0.264 C 
BRANCH  13  14
HETATM   14  N3  UNL     1      18.966 -13.508  22.215  1.00  0.00    -0.064 N 
HETATM   15  C19 UNL     1      18.247 -12.317  21.800  1.00  0.00     0.238 C 
HETATM   16  C20 UNL     1      18.907 -11.760  20.565  1.00  0.00     0.029 C 
HETATM   17  C21 UNL     1      20.016 -12.743  20.249  1.00  0.00     0.029 C 
HETATM   18  C22 UNL     1      19.568 -14.009  20.991  1.00  0.00     0.238 C 
BRANCH  14  19
HETATM   19  C17 UNL     1      20.029 -13.244  23.130  1.00  0.00     0.233 C 
HETATM   20  C18 UNL     1      19.683 -13.256  24.579  1.00  0.00     0.035 C 
ENDBRANCH  14  19
ENDBRANCH  13  14
ENDBRANCH  12  13
ENDBRANCH   8  11
BRANCH   1  21
HETATM   21  N2  UNL     1      11.802 -12.807  22.175  1.00  0.00    -0.351 N 
ATOM     22  H2  UNL     1      11.185 -13.414  22.715  1.00  0.00     0.163 HD
BRANCH  21  23
HETATM   23  C5  UNL     1      11.880 -11.521  22.632  1.00  0.00     0.215 C 
HETATM   24  N1  UNL     1      11.957 -10.245  23.087  1.00  0.00    -0.348 N 
BRANCH  24  25
HETATM   25  C2  UNL     1      11.202  -9.610  24.141  1.00  0.00     0.122 C 
HETATM   26  C1  UNL     1      11.695  -8.174  24.395  1.00  0.00     0.026 C 
ENDBRANCH  24  25
BRANCH  24  27
HETATM   27  C3  UNL     1      12.997  -9.331  22.478  1.00  0.00     0.122 C 
HETATM   28  C4  UNL     1      13.066  -9.621  21.002  1.00  0.00     0.026 C 
ENDBRANCH  24  27
BRANCH  23  29
HETATM   29  O1  UNL     1      10.809 -11.829  23.800  1.00  0.00    -0.333 OA
ATOM     30  H1  UNL     1      11.143 -12.717  23.839  1.00  0.00     0.220 HD
ENDBRANCH  23  29
ENDBRANCH  21  23
ENDBRANCH   1  21
TORSDOF 10
ENDMDL
MODEL 3
REMARK VINA RESULT: -7.285012724      1.079      1.472
REMARK  10 active torsions:
REMARK  status: ('A' for Active; 'I' for Inactive)
REMARK    1  A    between atoms: C2_2  and  N1_3 
REMARK    2  A    between atoms: N1_3  and  C3_4 
REMARK    3  A    between atoms: C5_6  and  O1_7 
REMARK    4  A    between atoms: C5_6  and  N2_9 
REMARK    5  A    between atoms: N2_9  and  C6_11 
REMARK    6  A    between atoms: C13_18  and  O2_19 
REMARK    7  A    between atoms: C13_18  and  C14_21 
REMARK    8  A    between atoms: C15_22  and  C16_23 
REMARK    9  A    between atoms: C16_23  and  N3_24 
REMARK   10  A    between atoms: N3_24  and  C17_25 
ROOT
HETATM    1  C6  UNL     1      12.255 -13.564  20.938  1.00  0.00     0.093 C 
HETATM    2  C7  UNL     1      12.810 -14.914  21.432  1.00  0.00     0.034 C 
HETATM    3  C8  UNL     1      14.194 -14.831  20.830  1.00  0.00     0.035 C 
HETATM    4  C9  UNL     1      14.015 -14.095  19.534  1.00  0.00    -0.032 C 
HETATM    5  C10 UNL     1      15.244 -13.848  18.718  1.00  0.00     0.016 C 
HETATM    6  C11 UNL     1      12.924 -14.586  18.629  1.00  0.00     0.016 C 
HETATM    7  C12 UNL     1      13.577 -12.964  20.470  1.00  0.00     0.055 C 
HETATM    8  C13 UNL     1      14.561 -13.450  21.438  1.00  0.00     0.086 C 
ENDROOT
BRANCH   8   9
HETATM    9  O2  UNL     1      14.188 -13.542  22.803  1.00  0.00    -0.385 OA
ATOM     10  H2  UNL     1      13.305 -13.893  22.792  1.00  0.00     0.211 HD
ENDBRANCH   8   9
BRANCH   8  11
HETATM   11  C14 UNL     1      15.964 -13.111  21.391  1.00  0.00     0.009 C 
HETATM   12  C15 UNL     1      16.776 -13.214  22.422  1.00  0.00    -0.000 C 
BRANCH  12  13
HETATM   13  C16 UNL     1      18.228 -12.862  22.355  1.00  0.00     0.264 C 
BRANCH  13  14
HETATM   14  N3  UNL     1      18.991 -13.667  23.295  1.00  0.00    -0.064 N 
HETATM   15  C19 UNL     1      18.102 -14.265  24.276  1.00  0.00     0.238 C 
HETATM   16  C20 UNL     1      18.835 -14.375  25.588  1.00  0.00     0.029 C 
HETATM   17  C21 UNL     1      20.186 -13.741  25.325  1.00  0.00     0.029 C 
HETATM   18  C22 UNL     1      19.919 -12.877  24.086  1.00  0.00     0.238 C 
BRANCH  14  19
HETATM   19  C17 UNL     1      19.764 -14.622  22.569  1.00  0.00     0.233 C 
HETATM   20  C18 UNL     1      19.888 -14.405  21.100  1.00  0.00     0.035 C 
ENDBRANCH  14  19
ENDBRANCH  13  14
ENDBRANCH  12  13
ENDBRANCH   8  11
BRANCH   1  21
HETATM   21  N2  UNL     1      11.547 -12.815  21.893  1.00  0.00    -0.351 N 
ATOM     22  H2  UNL     1      10.735 -13.290  22.288  1.00  0.00     0.163 HD
BRANCH  21  23
HETATM   23  C5  UNL     1      11.766 -11.556  22.379  1.00  0.00     0.215 C 
HETATM   24  N1  UNL     1      11.982 -10.307  22.862  1.00  0.00    -0.348 N 
BRANCH  24  25
HETATM   25  C2  UNL     1      11.374  -9.655  23.998  1.00  0.00     0.122 C 
HETATM   26  C1  UNL     1      11.908  -8.221  24.171  1.00  0.00     0.026 C 
ENDBRANCH  24  25
BRANCH  24  27
HETATM   27  C3  UNL     1      13.034  -9.453  22.189  1.00  0.00     0.122 C 
HETATM   28  C4  UNL     1      12.746  -9.436  20.711  1.00  0.00     0.026 C 
ENDBRANCH  24  27
BRANCH  23  29
HETATM   29  O1  UNL     1      10.779 -11.824  23.628  1.00  0.00    -0.333 OA
ATOM     30  H1  UNL     1      10.296 -12.435  23.084  1.00  0.00     0.220 HD
ENDBRANCH  23  29
ENDBRANCH  21  23
ENDBRANCH   1  21
TORSDOF 10
ENDMDL
MODEL 4
REMARK VINA RESULT: -7.249913762      1.970      3.033
REMARK  10 active torsions:
REMARK  status: ('A' for Active; 'I' for Inactive)
REMARK    1  A    between atoms: C2_2  and  N1_3 
REMARK    2  A    between atoms: N1_3  and  C3_4 
REMARK    3  A    between atoms: C5_6  and  O1_7 
REMARK    4  A    between atoms: C5_6  and  N2_9 
REMARK    5  A    between atoms: N2_9  and  C6_11 
REMARK    6  A    between atoms: C13_18  and  O2_19 
REMARK    7  A    between atoms: C13_18  and  C14_21 
REMARK    8  A    between atoms: C15_22  and  C16_23 
REMARK    9  A    between atoms: C16_23  and  N3_24 
REMARK   10  A    between atoms: N3_24  and  C17_25 
ROOT
HETATM    1  C6  UNL     1      14.233 -12.961  20.086  1.00  0.00     0.093 C 
HETATM    2  C7  UNL     1      14.934 -14.329  19.980  1.00  0.00     0.034 C 
HETATM    3  C8  UNL     1      16.353 -13.885  20.255  1.00  0.00     0.035 C 
HETATM    4  C9  UNL     1      16.460 -12.516  19.650  1.00  0.00    -0.032 C 
HETATM    5  C10 UNL     1      17.774 -11.814  19.789  1.00  0.00     0.016 C 
HETATM    6  C11 UNL     1      15.981 -12.368  18.236  1.00  0.00     0.016 C 
HETATM    7  C12 UNL     1      15.395 -12.188  20.700  1.00  0.00     0.055 C 
HETATM    8  C13 UNL     1      16.045 -13.152  21.590  1.00  0.00     0.086 C 
ENDROOT
BRANCH   8   9
HETATM    9  O2  UNL     1      15.235 -14.056  22.324  1.00  0.00    -0.385 OA
ATOM     10  H2  UNL     1      14.901 -13.548  23.053  1.00  0.00     0.211 HD
ENDBRANCH   8   9
BRANCH   8  11
HETATM   11  C14 UNL     1      17.198 -12.841  22.400  1.00  0.00     0.009 C 
HETATM   12  C15 UNL     1      18.085 -13.736  22.783  1.00  0.00    -0.000 C 
BRANCH  12  13
HETATM   13  C16 UNL     1      19.277 -13.397  23.620  1.00  0.00     0.264 C 
BRANCH  13  14
HETATM   14  N3  UNL     1      19.397 -14.323  24.735  1.00  0.00    -0.064 N 
HETATM   15  C19 UNL     1      19.395 -15.691  24.248  1.00  0.00     0.238 C 
HETATM   16  C20 UNL     1      18.732 -16.569  25.277  1.00  0.00     0.029 C 
HETATM   17  C21 UNL     1      18.288 -15.613  26.366  1.00  0.00     0.029 C 
HETATM   18  C22 UNL     1      18.261 -14.262  25.639  1.00  0.00     0.238 C 
BRANCH  14  19
HETATM   19  C17 UNL     1      20.558 -13.990  25.494  1.00  0.00     0.233 C 
HETATM   20  C18 UNL     1      20.570 -12.651  26.148  1.00  0.00     0.035 C 
ENDBRANCH  14  19
ENDBRANCH  13  14
ENDBRANCH  12  13
ENDBRANCH   8  11
BRANCH   1  21
HETATM   21  N2  UNL     1      13.035 -12.951  20.818  1.00  0.00    -0.351 N 
ATOM     22  H2  UNL     1      12.500 -13.818  20.772  1.00  0.00     0.163 HD
BRANCH  21  23
HETATM   23  C5  UNL     1      12.466 -11.970  21.583  1.00  0.00     0.215 C 
HETATM   24  N1  UNL     1      11.903 -10.998  22.343  1.00  0.00    -0.348 N 
BRANCH  24  25
HETATM   25  C2  UNL     1      11.342 -11.093  23.670  1.00  0.00     0.122 C 
HETATM   26  C1  UNL     1      11.247  -9.710  24.339  1.00  0.00     0.026 C 
ENDBRANCH  24  25
BRANCH  24  27
HETATM   27  C3  UNL     1      11.880  -9.588  21.798  1.00  0.00     0.122 C 
HETATM   28  C4  UNL     1      12.667  -9.572  20.513  1.00  0.00     0.026 C 
ENDBRANCH  24  27
BRANCH  23  29
HETATM   29  O1  UNL     1      12.291 -12.985  22.826  1.00  0.00    -0.333 OA
ATOM     30  H1  UNL     1      12.496 -13.702  22.237  1.00  0.00     0.220 HD
ENDBRANCH  23  29
ENDBRANCH  21  23
ENDBRANCH   1  21
TORSDOF 10
ENDMDL
MODEL 5
REMARK VINA RESULT: -7.198122866      2.418      6.031
REMARK  10 active torsions:
REMARK  status: ('A' for Active; 'I' for Inactive)
REMARK    1  A    between atoms: C2_2  and  N1_3 
REMARK    2  A    between atoms: N1_3  and  C3_4 
REMARK    3  A    between atoms: C5_6  and  O1_7 
REMARK    4  A    between atoms: C5_6  and  N2_9 
REMARK    5  A    between atoms: N2_9  and  C6_11 
REMARK    6  A    between atoms: C13_18  and  O2_19 
REMARK    7  A    between atoms: C13_18  and  C14_21 
REMARK    8  A    between atoms: C15_22  and  C16_23 
REMARK    9  A    between atoms: C16_23  and  N3_24 
REMARK   10  A    between atoms: N3_24  and  C17_25 
ROOT
HETATM    1  C6  UNL     1      16.410 -11.439  21.052  1.00  0.00     0.093 C 
HETATM    2  C7  UNL     1      17.147 -11.826  19.755  1.00  0.00     0.034 C 
HETATM    3  C8  UNL     1      17.282 -13.312  19.999  1.00  0.00     0.035 C 
HETATM    4  C9  UNL     1      17.465 -13.451  21.482  1.00  0.00    -0.032 C 
HETATM    5  C10 UNL     1      17.610 -14.839  22.021  1.00  0.00     0.016 C 
HETATM    6  C11 UNL     1      18.508 -12.577  22.113  1.00  0.00     0.016 C 
HETATM    7  C12 UNL     1      16.057 -12.850  21.510  1.00  0.00     0.055 C 
HETATM    8  C13 UNL     1      15.775 -13.577  20.271  1.00  0.00     0.086 C 
ENDROOT
BRANCH   8   9
HETATM    9  O2  UNL     1      15.093 -12.903  19.226  1.00  0.00    -0.385 OA
ATOM     10  H2  UNL     1      14.292 -13.398  19.098  1.00  0.00     0.211 HD
ENDBRANCH   8   9
BRANCH   8  11
HETATM   11  C14 UNL     1      15.378 -14.964  20.230  1.00  0.00     0.009 C 
HETATM   12  C15 UNL     1      14.143 -15.365  20.011  1.00  0.00    -0.000 C 
BRANCH  12  13
HETATM   13  C16 UNL     1      13.749 -16.806  19.969  1.00  0.00     0.264 C 
BRANCH  13  14
HETATM   14  N3  UNL     1      12.341 -16.940  19.625  1.00  0.00    -0.064 N 
HETATM   15  C19 UNL     1      12.187 -17.846  18.501  1.00  0.00     0.238 C 
HETATM   16  C20 UNL     1      11.009 -17.397  17.676  1.00  0.00     0.029 C 
HETATM   17  C21 UNL     1      10.528 -16.131  18.356  1.00  0.00     0.029 C 
HETATM   18  C22 UNL     1      11.757 -15.692  19.163  1.00  0.00     0.238 C 
BRANCH  14  19
HETATM   19  C17 UNL     1      11.615 -17.341  20.786  1.00  0.00     0.233 C 
HETATM   20  C18 UNL     1      11.770 -18.759  21.215  1.00  0.00     0.035 C 
ENDBRANCH  14  19
ENDBRANCH  13  14
ENDBRANCH  12  13
ENDBRANCH   8  11
BRANCH   1  21
HETATM   21  N2  UNL     1      15.327 -10.558  20.892  1.00  0.00    -0.351 N 
ATOM     22  H2  UNL     1      15.455  -9.854  20.165  1.00  0.00     0.163 HD
BRANCH  21  23
HETATM   23  C5  UNL     1      14.131 -10.489  21.550  1.00  0.00     0.215 C 
HETATM   24  N1  UNL     1      12.944 -10.418  22.203  1.00  0.00    -0.348 N 
BRANCH  24  25
HETATM   25  C2  UNL     1      12.273  -9.260  22.746  1.00  0.00     0.122 C 
HETATM   26  C1  UNL     1      11.421  -9.631  23.973  1.00  0.00     0.026 C 
ENDBRANCH  24  25
BRANCH  24  27
HETATM   27  C3  UNL     1      12.142 -11.690  22.367  1.00  0.00     0.122 C 
HETATM   28  C4  UNL     1      12.109 -12.395  21.036  1.00  0.00     0.026 C 
ENDBRANCH  24  27
BRANCH  23  29
HETATM   29  O1  UNL     1      14.217  -8.878  21.619  1.00  0.00    -0.333 OA
ATOM     30  H1  UNL     1      14.964  -8.918  21.033  1.00  0.00     0.220 HD
ENDBRANCH  23  29
ENDBRANCH  21  23
ENDBRANCH   1  21
TORSDOF 10
ENDMDL
