MODEL 1
REMARK VINA RESULT: -8.075420686      0.000      0.000
REMARK  8 active torsions:
REMARK  status: ('A' for Active; 'I' for Inactive)
REMARK    1  A    between atoms: C2_2  and  C4_4 
REMARK    2  A    between atoms: C4_4  and  N1_5 
REMARK    3  A    between atoms: N1_5  and  C6_7 
REMARK    4  A    between atoms: N1_5  and  C8_11 
REMARK    5  A    between atoms: C6_7  and  C7_8 
REMARK    6  A    between atoms: C7_8  and  O1_9 
REMARK    7  A    between atoms: C8_11  and  C9_12 
REMARK    8  A    between atoms: C9_12  and  C10_13 
ROOT
HETATM    1  C10 UNL     1      18.384 -13.161  21.021  1.00  0.00    -0.054 A 
HETATM    2  C11 UNL     1      18.136 -11.870  20.675  1.00  0.00     0.008 A 
HETATM    3  C12 UNL     1      16.815 -11.414  20.731  1.00  0.00     0.015 A 
HETATM    4  C13 UNL     1      15.798 -12.252  21.125  1.00  0.00    -0.002 A 
HETATM    5  C14 UNL     1      14.460 -11.841  21.195  1.00  0.00    -0.029 A 
HETATM    6  C15 UNL     1      13.499 -12.717  21.589  1.00  0.00    -0.033 A 
HETATM    7  C16 UNL     1      13.860 -14.007  21.919  1.00  0.00     0.098 A 
HETATM    8  N2  UNL     1      15.121 -14.435  21.865  1.00  0.00    -0.360 N 
HETATM    9  C17 UNL     1      15.462 -15.795  22.218  1.00  0.00     0.155 C 
HETATM   10  C18 UNL     1      16.062 -13.579  21.478  1.00  0.00     0.045 A 
HETATM   11  C19 UNL     1      17.365 -14.000  21.415  1.00  0.00     0.037 A 
HETATM   12  C20 UNL     1      12.057 -12.535  21.736  1.00  0.00     0.060 C 
HETATM   13  C21 UNL     1      11.711 -11.301  22.525  1.00  0.00     0.127 C 
HETATM   14  N3  UNL     1      11.931 -10.104  21.748  1.00  0.00    -0.360 N 
ATOM     15  H3  UNL     1      11.231  -9.367  21.833  1.00  0.00     0.162 HD
HETATM   16  C22 UNL     1      13.010  -9.853  20.888  1.00  0.00     0.221 C 
HETATM   17  O2  UNL     1      12.778  -8.967  20.017  1.00  0.00    -0.273 OA
HETATM   18  C23 UNL     1      14.378 -10.423  20.792  1.00  0.00     0.142 C 
ENDROOT
BRANCH   1  19
HETATM   19  C9  UNL     1      19.771 -13.759  21.004  1.00  0.00     0.066 C 
BRANCH  19  20
HETATM   20  C8  UNL     1      20.537 -13.036  22.045  1.00  0.00     0.241 C 
BRANCH  20  21
HETATM   21  N1  UNL     1      20.715 -13.774  23.312  1.00  0.00    -0.068 N 
HETATM   22  C5  UNL     1      22.126 -13.526  23.600  1.00  0.00     0.272 C 
BRANCH  21  23
HETATM   23  C4  UNL     1      19.955 -13.171  24.354  1.00  0.00     0.241 C 
BRANCH  23  24
HETATM   24  C2  UNL     1      20.185 -13.568  25.755  1.00  0.00     0.003 C 
HETATM   25  C1  UNL     1      20.564 -12.475  26.712  1.00  0.00     0.011 C 
HETATM   26  C3  UNL     1      18.832 -14.117  26.262  1.00  0.00     0.011 C 
ENDBRANCH  23  24
ENDBRANCH  21  23
BRANCH  21  27
HETATM   27  C6  UNL     1      20.537 -15.175  23.113  1.00  0.00     0.262 C 
BRANCH  27  28
HETATM   28  C7  UNL     1      21.611 -16.075  23.623  1.00  0.00     0.192 C 
BRANCH  28  29
HETATM   29  O1  UNL     1      22.150 -16.923  22.649  1.00  0.00    -0.399 OA
ATOM     30  H1  UNL     1      21.719 -17.768  22.593  1.00  0.00     0.209 HD
ENDBRANCH  28  29
ENDBRANCH  27  28
ENDBRANCH  21  27
ENDBRANCH  20  21
ENDBRANCH  19  20
ENDBRANCH   1  19
TORSDOF 8
ENDMDL
MODEL 2
REMARK VINA RESULT: -7.911299735      1.376      1.871
REMARK  8 active torsions:
REMARK  status: ('A' for Active; 'I' for Inactive)
REMARK    1  A    between atoms: C2_2  and  C4_4 
REMARK    2  A    between atoms: C4_4  and  N1_5 
REMARK    3  A    between atoms: N1_5  and  C6_7 
REMARK    4  A    between atoms: N1_5  and  C8_11 
REMARK    5  A    between atoms: C6_7  and  C7_8 
REMARK    6  A    between atoms: C7_8  and  O1_9 
REMARK    7  A    between atoms: C8_11  and  C9_12 
REMARK    8  A    between atoms: C9_12  and  C10_13 
ROOT
HETATM    1  C10 UNL     1      18.408 -13.195  21.326  1.00  0.00    -0.054 A 
HETATM    2  C11 UNL     1      18.177 -11.898  20.994  1.00  0.00     0.008 A 
HETATM    3  C12 UNL     1      16.851 -11.452  20.958  1.00  0.00     0.015 A 
HETATM    4  C13 UNL     1      15.814 -12.305  21.250  1.00  0.00    -0.002 A 
HETATM    5  C14 UNL     1      14.471 -11.905  21.225  1.00  0.00    -0.029 A 
HETATM    6  C15 UNL     1      13.490 -12.797  21.522  1.00  0.00    -0.033 A 
HETATM    7  C16 UNL     1      13.835 -14.093  21.846  1.00  0.00     0.098 A 
HETATM    8  N2  UNL     1      15.100 -14.511  21.881  1.00  0.00    -0.360 N 
HETATM    9  C17 UNL     1      15.424 -15.878  22.225  1.00  0.00     0.155 C 
HETATM   10  C18 UNL     1      16.061 -13.639  21.590  1.00  0.00     0.045 A 
HETATM   11  C19 UNL     1      17.369 -14.050  21.618  1.00  0.00     0.037 A 
HETATM   12  C20 UNL     1      12.040 -12.629  21.560  1.00  0.00     0.060 C 
HETATM   13  C21 UNL     1      11.623 -11.417  22.350  1.00  0.00     0.127 C 
HETATM   14  N3  UNL     1      11.892 -10.200  21.623  1.00  0.00    -0.360 N 
ATOM     15  H3  UNL     1      11.181  -9.469  21.671  1.00  0.00     0.162 HD
HETATM   16  C22 UNL     1      13.033  -9.920  20.856  1.00  0.00     0.221 C 
HETATM   17  O2  UNL     1      12.863  -9.013  19.992  1.00  0.00    -0.273 OA
HETATM   18  C23 UNL     1      14.409 -10.478  20.854  1.00  0.00     0.142 C 
ENDROOT
BRANCH   1  19
HETATM   19  C9  UNL     1      19.797 -13.784  21.403  1.00  0.00     0.066 C 
BRANCH  19  20
HETATM   20  C8  UNL     1      19.662 -15.040  22.174  1.00  0.00     0.241 C 
BRANCH  20  21
HETATM   21  N1  UNL     1      20.247 -15.004  23.530  1.00  0.00    -0.068 N 
HETATM   22  C5  UNL     1      21.306 -16.005  23.421  1.00  0.00     0.272 C 
BRANCH  21  23
HETATM   23  C4  UNL     1      20.872 -13.748  23.773  1.00  0.00     0.241 C 
BRANCH  23  24
HETATM   24  C2  UNL     1      21.959 -13.648  24.763  1.00  0.00     0.003 C 
HETATM   25  C1  UNL     1      23.254 -13.058  24.285  1.00  0.00     0.011 C 
HETATM   26  C3  UNL     1      21.441 -12.688  25.859  1.00  0.00     0.011 C 
ENDBRANCH  23  24
ENDBRANCH  21  23
BRANCH  21  27
HETATM   27  C6  UNL     1      19.304 -15.453  24.502  1.00  0.00     0.262 C 
BRANCH  27  28
HETATM   28  C7  UNL     1      18.346 -14.443  25.036  1.00  0.00     0.192 C 
BRANCH  28  29
HETATM   29  O1  UNL     1      17.599 -14.894  26.130  1.00  0.00    -0.399 OA
ATOM     30  H1  UNL     1      16.807 -14.393  26.288  1.00  0.00     0.209 HD
ENDBRANCH  28  29
ENDBRANCH  27  28
ENDBRANCH  21  27
ENDBRANCH  20  21
ENDBRANCH  19  20
ENDBRANCH   1  19
TORSDOF 8
ENDMDL
MODEL 3
REMARK VINA RESULT: -7.834612755      1.487      1.931
REMARK  8 active torsions:
REMARK  status: ('A' for Active; 'I' for Inactive)
REMARK    1  A    between atoms: C2_2  and  C4_4 
REMARK    2  A    between atoms: C4_4  and  N1_5 
REMARK    3  A    between atoms: N1_5  and  C6_7 
REMARK    4  A    between atoms: N1_5  and  C8_11 
REMARK    5  A    between atoms: C6_7  and  C7_8 
REMARK    6  A    between atoms: C7_8  and  O1_9 
REMARK    7  A    between atoms: C8_11  and  C9_12 
REMARK    8  A    between atoms: C9_12  and  C10_13 
ROOT
HETATM    1  C10 UNL     1      17.989 -14.086  21.677  1.00  0.00    -0.054 A 
HETATM    2  C11 UNL     1      18.018 -12.752  21.420  1.00  0.00     0.008 A 
HETATM    3  C12 UNL     1      16.803 -12.061  21.378  1.00  0.00     0.015 A 
HETATM    4  C13 UNL     1      15.614 -12.717  21.591  1.00  0.00    -0.002 A 
HETATM    5  C14 UNL     1      14.372 -12.068  21.557  1.00  0.00    -0.029 A 
HETATM    6  C15 UNL     1      13.230 -12.773  21.772  1.00  0.00    -0.033 A 
HETATM    7  C16 UNL     1      13.313 -14.127  22.025  1.00  0.00     0.098 A 
HETATM    8  N2  UNL     1      14.474 -14.779  22.065  1.00  0.00    -0.360 N 
HETATM    9  C17 UNL     1      14.523 -16.199  22.332  1.00  0.00     0.155 C 
HETATM   10  C18 UNL     1      15.592 -14.090  21.853  1.00  0.00     0.045 A 
HETATM   11  C19 UNL     1      16.798 -14.743  21.889  1.00  0.00     0.037 A 
HETATM   12  C20 UNL     1      11.837 -12.334  21.784  1.00  0.00     0.060 C 
HETATM   13  C21 UNL     1      11.627 -11.112  22.637  1.00  0.00     0.127 C 
HETATM   14  N3  UNL     1      12.147  -9.929  21.994  1.00  0.00    -0.360 N 
ATOM     15  H3  UNL     1      11.585  -9.081  22.069  1.00  0.00     0.162 HD
HETATM   16  C22 UNL     1      13.347  -9.828  21.275  1.00  0.00     0.221 C 
HETATM   17  O2  UNL     1      13.382  -8.859  20.465  1.00  0.00    -0.273 OA
HETATM   18  C23 UNL     1      14.593 -10.637  21.272  1.00  0.00     0.142 C 
ENDROOT
BRANCH   1  19
HETATM   19  C9  UNL     1      19.239 -14.931  21.752  1.00  0.00     0.066 C 
BRANCH  19  20
HETATM   20  C8  UNL     1      20.053 -14.354  22.845  1.00  0.00     0.241 C 
BRANCH  20  21
HETATM   21  N1  UNL     1      20.320 -15.270  23.973  1.00  0.00    -0.068 N 
HETATM   22  C5  UNL     1      21.178 -16.270  23.343  1.00  0.00     0.272 C 
BRANCH  21  23
HETATM   23  C4  UNL     1      21.092 -14.618  24.977  1.00  0.00     0.241 C 
BRANCH  23  24
HETATM   24  C2  UNL     1      21.249 -13.153  24.946  1.00  0.00     0.003 C 
HETATM   25  C1  UNL     1      20.863 -12.408  26.190  1.00  0.00     0.011 C 
HETATM   26  C3  UNL     1      22.762 -12.898  24.759  1.00  0.00     0.011 C 
ENDBRANCH  23  24
ENDBRANCH  21  23
BRANCH  21  27
HETATM   27  C6  UNL     1      19.120 -15.913  24.400  1.00  0.00     0.262 C 
BRANCH  27  28
HETATM   28  C7  UNL     1      18.423 -15.333  25.583  1.00  0.00     0.192 C 
BRANCH  28  29
HETATM   29  O1  UNL     1      17.645 -14.207  25.287  1.00  0.00    -0.399 OA
ATOM     30  H1  UNL     1      18.127 -13.389  25.315  1.00  0.00     0.209 HD
ENDBRANCH  28  29
ENDBRANCH  27  28
ENDBRANCH  21  27
ENDBRANCH  20  21
ENDBRANCH  19  20
ENDBRANCH   1  19
TORSDOF 8
ENDMDL
MODEL 4
REMARK VINA RESULT: -7.772179705      1.317      1.827
REMARK  8 active torsions:
REMARK  status: ('A' for Active; 'I' for Inactive)
REMARK    1  A    between atoms: C2_2  and  C4_4 
REMARK    2  A    between atoms: C4_4  and  N1_5 
REMARK    3  A    between atoms: N1_5  and  C6_7 
REMARK    4  A    between atoms: N1_5  and  C8_11 
REMARK    5  A    between atoms: C6_7  and  C7_8 
REMARK    6  A    between atoms: C7_8  and  O1_9 
REMARK    7  A    between atoms: C8_11  and  C9_12 
REMARK    8  A    between atoms: C9_12  and  C10_13 
ROOT
HETATM    1  C10 UNL     1      18.336 -13.411  21.392  1.00  0.00    -0.054 A 
HETATM    2  C11 UNL     1      18.162 -12.102  21.070  1.00  0.00     0.008 A 
HETATM    3  C12 UNL     1      16.857 -11.600  21.030  1.00  0.00     0.015 A 
HETATM    4  C13 UNL     1      15.783 -12.411  21.309  1.00  0.00    -0.002 A 
HETATM    5  C14 UNL     1      14.458 -11.954  21.280  1.00  0.00    -0.029 A 
HETATM    6  C15 UNL     1      13.438 -12.806  21.563  1.00  0.00    -0.033 A 
HETATM    7  C16 UNL     1      13.725 -14.118  21.879  1.00  0.00     0.098 A 
HETATM    8  N2  UNL     1      14.971 -14.590  21.917  1.00  0.00    -0.360 N 
HETATM    9  C17 UNL     1      15.235 -15.972  22.252  1.00  0.00     0.155 C 
HETATM   10  C18 UNL     1      15.970 -13.757  21.639  1.00  0.00     0.045 A 
HETATM   11  C19 UNL     1      17.259 -14.223  21.671  1.00  0.00     0.037 A 
HETATM   12  C20 UNL     1      11.996 -12.576  21.595  1.00  0.00     0.060 C 
HETATM   13  C21 UNL     1      11.626 -11.355  22.393  1.00  0.00     0.127 C 
HETATM   14  N3  UNL     1      11.951 -10.144  21.677  1.00  0.00    -0.360 N 
ATOM     15  H3  UNL     1      11.271  -9.385  21.728  1.00  0.00     0.162 HD
HETATM   16  C22 UNL     1      13.107  -9.907  20.920  1.00  0.00     0.221 C 
HETATM   17  O2  UNL     1      12.981  -8.986  20.063  1.00  0.00    -0.273 OA
HETATM   18  C23 UNL     1      14.459 -10.523  20.920  1.00  0.00     0.142 C 
ENDROOT
BRANCH   1  19
HETATM   19  C9  UNL     1      19.698 -14.058  21.472  1.00  0.00     0.066 C 
BRANCH  19  20
HETATM   20  C8  UNL     1      20.463 -13.272  22.466  1.00  0.00     0.241 C 
BRANCH  20  21
HETATM   21  N1  UNL     1      20.747 -13.976  23.733  1.00  0.00    -0.068 N 
HETATM   22  C5  UNL     1      20.124 -13.086  24.710  1.00  0.00     0.272 C 
BRANCH  21  23
HETATM   23  C4  UNL     1      20.051 -15.217  23.783  1.00  0.00     0.241 C 
BRANCH  23  24
HETATM   24  C2  UNL     1      19.350 -15.616  25.016  1.00  0.00     0.003 C 
HETATM   25  C1  UNL     1      17.930 -16.081  24.863  1.00  0.00     0.011 C 
HETATM   26  C3  UNL     1      20.130 -16.831  25.568  1.00  0.00     0.011 C 
ENDBRANCH  23  24
ENDBRANCH  21  23
BRANCH  21  27
HETATM   27  C6  UNL     1      22.150 -14.013  23.990  1.00  0.00     0.262 C 
BRANCH  27  28
HETATM   28  C7  UNL     1      22.714 -12.924  24.838  1.00  0.00     0.192 C 
BRANCH  28  29
HETATM   29  O1  UNL     1      24.017 -12.552  24.490  1.00  0.00    -0.399 OA
ATOM     30  H1  UNL     1      24.184 -12.563  23.554  1.00  0.00     0.209 HD
ENDBRANCH  28  29
ENDBRANCH  27  28
ENDBRANCH  21  27
ENDBRANCH  20  21
ENDBRANCH  19  20
ENDBRANCH   1  19
TORSDOF 8
ENDMDL
MODEL 5
REMARK VINA RESULT: -7.717826321      2.221      8.210
REMARK  8 active torsions:
REMARK  status: ('A' for Active; 'I' for Inactive)
REMARK    1  A    between atoms: C2_2  and  C4_4 
REMARK    2  A    between atoms: C4_4  and  N1_5 
REMARK    3  A    between atoms: N1_5  and  C6_7 
REMARK    4  A    between atoms: N1_5  and  C8_11 
REMARK    5  A    between atoms: C6_7  and  C7_8 
REMARK    6  A    between atoms: C7_8  and  O1_9 
REMARK    7  A    between atoms: C8_11  and  C9_12 
REMARK    8  A    between atoms: C9_12  and  C10_13 
ROOT
HETATM    1  C10 UNL     1      17.526 -13.578  22.645  1.00  0.00    -0.054 A 
HETATM    2  C11 UNL     1      18.492 -12.671  22.344  1.00  0.00     0.008 A 
HETATM    3  C12 UNL     1      19.787 -12.905  22.815  1.00  0.00     0.015 A 
HETATM    4  C13 UNL     1      20.072 -14.024  23.562  1.00  0.00    -0.002 A 
HETATM    5  C14 UNL     1      21.354 -14.301  24.057  1.00  0.00    -0.029 A 
HETATM    6  C15 UNL     1      21.572 -15.423  24.792  1.00  0.00    -0.033 A 
HETATM    7  C16 UNL     1      20.519 -16.279  25.039  1.00  0.00     0.098 A 
HETATM    8  N2  UNL     1      19.287 -16.051  24.586  1.00  0.00    -0.360 N 
HETATM    9  C17 UNL     1      18.207 -16.971  24.866  1.00  0.00     0.155 C 
HETATM   10  C18 UNL     1      19.072 -14.953  23.868  1.00  0.00     0.045 A 
HETATM   11  C19 UNL     1      17.811 -14.698  23.393  1.00  0.00     0.037 A 
HETATM   12  C20 UNL     1      22.796 -15.923  25.413  1.00  0.00     0.060 C 
HETATM   13  C21 UNL     1      23.962 -15.930  24.460  1.00  0.00     0.127 C 
HETATM   14  N3  UNL     1      24.453 -14.593  24.225  1.00  0.00    -0.360 N 
ATOM     15  H3  UNL     1      25.466 -14.477  24.184  1.00  0.00     0.162 HD
HETATM   16  C22 UNL     1      23.678 -13.438  24.047  1.00  0.00     0.221 C 
HETATM   17  O2  UNL     1      24.297 -12.362  24.285  1.00  0.00    -0.273 OA
HETATM   18  C23 UNL     1      22.268 -13.222  23.634  1.00  0.00     0.142 C 
ENDROOT
BRANCH   1  19
HETATM   19  C9  UNL     1      16.095 -13.431  22.185  1.00  0.00     0.066 C 
BRANCH  19  20
HETATM   20  C8  UNL     1      16.001 -12.085  21.576  1.00  0.00     0.241 C 
BRANCH  20  21
HETATM   21  N1  UNL     1      14.710 -11.784  20.925  1.00  0.00    -0.068 N 
HETATM   22  C5  UNL     1      13.913 -12.950  21.301  1.00  0.00     0.272 C 
BRANCH  21  23
HETATM   23  C4  UNL     1      14.101 -10.643  21.521  1.00  0.00     0.241 C 
BRANCH  23  24
HETATM   24  C2  UNL     1      12.634 -10.565  21.629  1.00  0.00     0.003 C 
HETATM   25  C1  UNL     1      12.073 -10.274  22.991  1.00  0.00     0.011 C 
HETATM   26  C3  UNL     1      12.210  -9.375  20.739  1.00  0.00     0.011 C 
ENDBRANCH  23  24
ENDBRANCH  21  23
BRANCH  21  27
HETATM   27  C6  UNL     1      14.847 -11.773  19.505  1.00  0.00     0.262 C 
BRANCH  27  28
HETATM   28  C7  UNL     1      16.233 -11.762  18.957  1.00  0.00     0.192 C 
BRANCH  28  29
HETATM   29  O1  UNL     1      16.398 -10.924  17.848  1.00  0.00    -0.399 OA
ATOM     30  H1  UNL     1      15.751 -11.057  17.166  1.00  0.00     0.209 HD
ENDBRANCH  28  29
ENDBRANCH  27  28
ENDBRANCH  21  27
ENDBRANCH  20  21
ENDBRANCH  19  20
ENDBRANCH   1  19
TORSDOF 8
ENDMDL
