MODEL 1
REMARK VINA RESULT: -7.483299952      0.000      0.000
REMARK  7 active torsions:
REMARK  status: ('A' for Active; 'I' for Inactive)
REMARK    1  A    between atoms: C3_3  and  C4_4 
REMARK    2  A    between atoms: C5_5  and  C6_6 
REMARK    3  A    between atoms: C6_6  and  C7_7 
REMARK    4  A    between atoms: C7_7  and  C8_8 
REMARK    5  A    between atoms: C8_8  and  C9_9 
REMARK    6  A    between atoms: C9_9  and  C10_10 
REMARK    7  A    between atoms: C10_10  and  N1_11 
ROOT
HETATM    1  C10 UNL     1      13.287 -15.618  19.365  1.00  0.00     0.137 C 
ENDROOT
BRANCH   1   2
HETATM    2  C9  UNL     1      14.575 -15.216  18.685  1.00  0.00     0.020 C 
BRANCH   2   3
HETATM    3  C8  UNL     1      14.287 -14.267  17.551  1.00  0.00     0.002 C 
BRANCH   3   4
HETATM    4  C7  UNL     1      15.324 -13.179  17.385  1.00  0.00     0.004 C 
BRANCH   4   5
HETATM    5  C6  UNL     1      15.183 -12.177  18.474  1.00  0.00     0.027 C 
BRANCH   5   6
HETATM    6  C5  UNL     1      16.470 -11.961  19.257  1.00  0.00    -0.026 C 
HETATM    7  C4  UNL     1      17.000 -12.882  19.957  1.00  0.00     0.009 C 
BRANCH   7   8
HETATM    8  C3  UNL     1      18.158 -13.017  20.787  1.00  0.00    -0.014 A 
HETATM    9  C2  UNL     1      18.167 -13.623  22.002  1.00  0.00     0.017 A 
HETATM   10  C1  UNL     1      16.981 -14.283  22.562  1.00  0.00     0.069 C 
HETATM   11  N4  UNL     1      19.340 -13.641  22.711  1.00  0.00    -0.364 N 
HETATM   12  C19 UNL     1      20.482 -13.098  22.282  1.00  0.00     0.090 A 
HETATM   13  C20 UNL     1      19.310 -14.301  24.028  1.00  0.00     0.155 C 
HETATM   14  C18 UNL     1      20.508 -12.483  21.064  1.00  0.00     0.018 A 
HETATM   15  C17 UNL     1      19.359 -12.444  20.327  1.00  0.00     0.014 A 
ENDBRANCH   7   8
ENDBRANCH   5   6
ENDBRANCH   4   5
ENDBRANCH   3   4
ENDBRANCH   2   3
ENDBRANCH   1   2
BRANCH   1  16
HETATM   16  N1  UNL     1      13.123 -14.929  20.636  1.00  0.00    -0.266 N 
HETATM   17  C11 UNL     1      13.357 -15.407  21.946  1.00  0.00     0.327 C 
HETATM   18  O1  UNL     1      13.769 -16.587  22.192  1.00  0.00    -0.247 OA
HETATM   19  N2  UNL     1      13.056 -14.374  22.870  1.00  0.00    -0.308 N 
HETATM   20  C12 UNL     1      12.909 -13.159  22.145  1.00  0.00     0.194 C 
ATOM     21  H2  UNL     1      12.962 -14.483  23.879  1.00  0.00     0.167 HD
HETATM   22  C13 UNL     1      14.156 -12.304  22.148  1.00  0.00     0.073 C 
HETATM   23  N3  UNL     1      11.864 -12.303  22.648  1.00  0.00    -0.327 N 
HETATM   24  C16 UNL     1      12.678 -13.596  20.748  1.00  0.00     0.277 C 
HETATM   25  C14 UNL     1      13.606 -10.958  21.727  1.00  0.00     0.107 C 
HETATM   26  C15 UNL     1      12.263 -10.967  22.341  1.00  0.00     0.220 C 
HETATM   27  O2  UNL     1      11.568  -9.943  22.562  1.00  0.00    -0.274 OA
ATOM     28  H3  UNL     1      11.011 -12.593  23.127  1.00  0.00     0.165 HD
HETATM   29  O3  UNL     1      12.163 -12.851  19.852  1.00  0.00    -0.268 OA
ENDBRANCH   1  16
TORSDOF 7
ENDMDL
MODEL 2
REMARK VINA RESULT: -7.395626233      2.545      4.132
REMARK  7 active torsions:
REMARK  status: ('A' for Active; 'I' for Inactive)
REMARK    1  A    between atoms: C3_3  and  C4_4 
REMARK    2  A    between atoms: C5_5  and  C6_6 
REMARK    3  A    between atoms: C6_6  and  C7_7 
REMARK    4  A    between atoms: C7_7  and  C8_8 
REMARK    5  A    between atoms: C8_8  and  C9_9 
REMARK    6  A    between atoms: C9_9  and  C10_10 
REMARK    7  A    between atoms: C10_10  and  N1_11 
ROOT
HETATM    1  C10 UNL     1      15.916 -12.601  19.479  1.00  0.00     0.137 C 
ENDROOT
BRANCH   1   2
HETATM    2  C9  UNL     1      17.145 -11.782  19.158  1.00  0.00     0.020 C 
BRANCH   2   3
HETATM    3  C8  UNL     1      18.055 -11.724  20.357  1.00  0.00     0.002 C 
BRANCH   3   4
HETATM    4  C7  UNL     1      19.526 -11.800  20.012  1.00  0.00     0.004 C 
BRANCH   4   5
HETATM    5  C6  UNL     1      20.072 -13.121  20.421  1.00  0.00     0.027 C 
BRANCH   5   6
HETATM    6  C5  UNL     1      19.998 -13.360  21.921  1.00  0.00    -0.026 C 
HETATM    7  C4  UNL     1      19.156 -14.162  22.439  1.00  0.00     0.009 C 
BRANCH   7   8
HETATM    8  C3  UNL     1      18.822 -14.605  23.758  1.00  0.00    -0.014 A 
HETATM    9  C2  UNL     1      18.058 -15.693  24.034  1.00  0.00     0.017 A 
HETATM   10  C1  UNL     1      17.551 -16.585  22.984  1.00  0.00     0.069 C 
HETATM   11  N4  UNL     1      17.779 -15.977  25.345  1.00  0.00    -0.364 N 
HETATM   12  C19 UNL     1      18.214 -15.249  26.377  1.00  0.00     0.090 A 
HETATM   13  C20 UNL     1      16.941 -17.160  25.605  1.00  0.00     0.155 C 
HETATM   14  C18 UNL     1      18.986 -14.150  26.135  1.00  0.00     0.018 A 
HETATM   15  C17 UNL     1      19.286 -13.834  24.841  1.00  0.00     0.014 A 
ENDBRANCH   7   8
ENDBRANCH   5   6
ENDBRANCH   4   5
ENDBRANCH   3   4
ENDBRANCH   2   3
ENDBRANCH   1   2
BRANCH   1  16
HETATM   16  N1  UNL     1      14.762 -11.748  19.722  1.00  0.00    -0.266 N 
HETATM   17  C11 UNL     1      13.959 -11.050  18.791  1.00  0.00     0.327 C 
HETATM   18  O1  UNL     1      14.162 -11.083  17.534  1.00  0.00    -0.247 OA
HETATM   19  N2  UNL     1      12.948 -10.349  19.496  1.00  0.00    -0.308 N 
HETATM   20  C12 UNL     1      12.930 -10.824  20.837  1.00  0.00     0.194 C 
ATOM     21  H2  UNL     1      12.340  -9.627  19.110  1.00  0.00     0.167 HD
HETATM   22  C13 UNL     1      11.870 -11.873  21.087  1.00  0.00     0.073 C 
HETATM   23  N3  UNL     1      12.681  -9.797  21.817  1.00  0.00    -0.327 N 
HETATM   24  C16 UNL     1      14.248 -11.480  21.007  1.00  0.00     0.277 C 
HETATM   25  C14 UNL     1      11.777 -11.862  22.598  1.00  0.00     0.107 C 
HETATM   26  C15 UNL     1      12.032 -10.442  22.912  1.00  0.00     0.220 C 
HETATM   27  O2  UNL     1      11.720  -9.880  23.993  1.00  0.00    -0.274 OA
ATOM     28  H3  UNL     1      12.921  -8.808  21.743  1.00  0.00     0.165 HD
HETATM   29  O3  UNL     1      14.770 -11.731  22.141  1.00  0.00    -0.268 OA
ENDBRANCH   1  16
TORSDOF 7
ENDMDL
MODEL 3
REMARK VINA RESULT: -7.377217441      2.584      4.322
REMARK  7 active torsions:
REMARK  status: ('A' for Active; 'I' for Inactive)
REMARK    1  A    between atoms: C3_3  and  C4_4 
REMARK    2  A    between atoms: C5_5  and  C6_6 
REMARK    3  A    between atoms: C6_6  and  C7_7 
REMARK    4  A    between atoms: C7_7  and  C8_8 
REMARK    5  A    between atoms: C8_8  and  C9_9 
REMARK    6  A    between atoms: C9_9  and  C10_10 
REMARK    7  A    between atoms: C10_10  and  N1_11 
ROOT
HETATM    1  C10 UNL     1      15.939 -12.588  19.431  1.00  0.00     0.137 C 
ENDROOT
BRANCH   1   2
HETATM    2  C9  UNL     1      17.169 -11.763  19.131  1.00  0.00     0.020 C 
BRANCH   2   3
HETATM    3  C8  UNL     1      18.177 -11.916  20.239  1.00  0.00     0.002 C 
BRANCH   3   4
HETATM    4  C7  UNL     1      19.607 -12.013  19.756  1.00  0.00     0.004 C 
BRANCH   4   5
HETATM    5  C6  UNL     1      20.480 -12.502  20.857  1.00  0.00     0.027 C 
BRANCH   5   6
HETATM    6  C5  UNL     1      19.774 -13.473  21.792  1.00  0.00    -0.026 C 
HETATM    7  C4  UNL     1      20.168 -13.671  22.986  1.00  0.00     0.009 C 
BRANCH   7   8
HETATM    8  C3  UNL     1      19.756 -14.481  24.092  1.00  0.00    -0.014 A 
HETATM    9  C2  UNL     1      20.270 -15.704  24.382  1.00  0.00     0.017 A 
HETATM   10  C1  UNL     1      21.377 -16.294  23.619  1.00  0.00     0.069 C 
HETATM   11  N4  UNL     1      19.750 -16.392  25.447  1.00  0.00    -0.364 N 
HETATM   12  C19 UNL     1      18.765 -15.934  26.224  1.00  0.00     0.090 A 
HETATM   13  C20 UNL     1      20.327 -17.718  25.728  1.00  0.00     0.155 C 
HETATM   14  C18 UNL     1      18.227 -14.708  25.961  1.00  0.00     0.018 A 
HETATM   15  C17 UNL     1      18.718 -13.991  24.907  1.00  0.00     0.014 A 
ENDBRANCH   7   8
ENDBRANCH   5   6
ENDBRANCH   4   5
ENDBRANCH   3   4
ENDBRANCH   2   3
ENDBRANCH   1   2
BRANCH   1  16
HETATM   16  N1  UNL     1      14.782 -11.741  19.676  1.00  0.00    -0.266 N 
HETATM   17  C11 UNL     1      13.969 -11.050  18.747  1.00  0.00     0.327 C 
HETATM   18  O1  UNL     1      14.166 -11.089  17.489  1.00  0.00    -0.247 OA
HETATM   19  N2  UNL     1      12.959 -10.352  19.455  1.00  0.00    -0.308 N 
HETATM   20  C12 UNL     1      12.950 -10.822  20.798  1.00  0.00     0.194 C 
ATOM     21  H2  UNL     1      12.344  -9.636  19.068  1.00  0.00     0.167 HD
HETATM   22  C13 UNL     1      11.898 -11.876  21.058  1.00  0.00     0.073 C 
HETATM   23  N3  UNL     1      12.702  -9.791  21.775  1.00  0.00    -0.327 N 
HETATM   24  C16 UNL     1      14.273 -11.470  20.963  1.00  0.00     0.277 C 
HETATM   25  C14 UNL     1      11.814 -11.859  22.569  1.00  0.00     0.107 C 
HETATM   26  C15 UNL     1      12.062 -10.436  22.876  1.00  0.00     0.220 C 
HETATM   27  O2  UNL     1      11.753  -9.871  23.956  1.00  0.00    -0.274 OA
ATOM     28  H3  UNL     1      12.936  -8.802  21.695  1.00  0.00     0.165 HD
HETATM   29  O3  UNL     1      14.803 -11.712  22.095  1.00  0.00    -0.268 OA
ENDBRANCH   1  16
TORSDOF 7
ENDMDL
MODEL 4
REMARK VINA RESULT: -7.269533566      2.574      4.304
REMARK  7 active torsions:
REMARK  status: ('A' for Active; 'I' for Inactive)
REMARK    1  A    between atoms: C3_3  and  C4_4 
REMARK    2  A    between atoms: C5_5  and  C6_6 
REMARK    3  A    between atoms: C6_6  and  C7_7 
REMARK    4  A    between atoms: C7_7  and  C8_8 
REMARK    5  A    between atoms: C8_8  and  C9_9 
REMARK    6  A    between atoms: C9_9  and  C10_10 
REMARK    7  A    between atoms: C10_10  and  N1_11 
ROOT
HETATM    1  C10 UNL     1      15.959 -12.594  19.446  1.00  0.00     0.137 C 
ENDROOT
BRANCH   1   2
HETATM    2  C9  UNL     1      17.185 -11.766  19.140  1.00  0.00     0.020 C 
BRANCH   2   3
HETATM    3  C8  UNL     1      18.106 -11.744  20.331  1.00  0.00     0.002 C 
BRANCH   3   4
HETATM    4  C7  UNL     1      19.539 -12.102  20.004  1.00  0.00     0.004 C 
BRANCH   4   5
HETATM    5  C6  UNL     1      20.132 -12.884  21.122  1.00  0.00     0.027 C 
BRANCH   5   6
HETATM    6  C5  UNL     1      19.227 -14.004  21.613  1.00  0.00    -0.026 C 
HETATM    7  C4  UNL     1      19.040 -14.230  22.851  1.00  0.00     0.009 C 
BRANCH   7   8
HETATM    8  C3  UNL     1      18.287 -15.164  23.632  1.00  0.00    -0.014 A 
HETATM    9  C2  UNL     1      18.294 -15.214  24.988  1.00  0.00     0.017 A 
HETATM   10  C1  UNL     1      19.032 -14.245  25.808  1.00  0.00     0.069 C 
HETATM   11  N4  UNL     1      17.559 -16.192  25.607  1.00  0.00    -0.364 N 
HETATM   12  C19 UNL     1      16.830 -17.103  24.958  1.00  0.00     0.090 A 
HETATM   13  C20 UNL     1      17.597 -16.220  27.079  1.00  0.00     0.155 C 
HETATM   14  C18 UNL     1      16.799 -17.079  23.594  1.00  0.00     0.018 A 
HETATM   15  C17 UNL     1      17.519 -16.120  22.940  1.00  0.00     0.014 A 
ENDBRANCH   7   8
ENDBRANCH   5   6
ENDBRANCH   4   5
ENDBRANCH   3   4
ENDBRANCH   2   3
ENDBRANCH   1   2
BRANCH   1  16
HETATM   16  N1  UNL     1      14.798 -11.750  19.685  1.00  0.00    -0.266 N 
HETATM   17  C11 UNL     1      13.988 -11.064  18.750  1.00  0.00     0.327 C 
HETATM   18  O1  UNL     1      14.190 -11.104  17.494  1.00  0.00    -0.247 OA
HETATM   19  N2  UNL     1      12.972 -10.368  19.452  1.00  0.00    -0.308 N 
HETATM   20  C12 UNL     1      12.959 -10.835  20.796  1.00  0.00     0.194 C 
ATOM     21  H2  UNL     1      12.357  -9.654  19.062  1.00  0.00     0.167 HD
HETATM   22  C13 UNL     1      11.908 -11.892  21.053  1.00  0.00     0.073 C 
HETATM   23  N3  UNL     1      12.702  -9.804  21.770  1.00  0.00    -0.327 N 
HETATM   24  C16 UNL     1      14.282 -11.478  20.968  1.00  0.00     0.277 C 
HETATM   25  C14 UNL     1      11.817 -11.872  22.564  1.00  0.00     0.107 C 
HETATM   26  C15 UNL     1      12.059 -10.449  22.869  1.00  0.00     0.220 C 
HETATM   27  O2  UNL     1      11.743  -9.882  23.947  1.00  0.00    -0.274 OA
ATOM     28  H3  UNL     1      12.933  -8.813  21.689  1.00  0.00     0.165 HD
HETATM   29  O3  UNL     1      14.808 -11.717  22.104  1.00  0.00    -0.268 OA
ENDBRANCH   1  16
TORSDOF 7
ENDMDL
MODEL 5
REMARK VINA RESULT: -7.266618320      1.852      2.801
REMARK  7 active torsions:
REMARK  status: ('A' for Active; 'I' for Inactive)
REMARK    1  A    between atoms: C3_3  and  C4_4 
REMARK    2  A    between atoms: C5_5  and  C6_6 
REMARK    3  A    between atoms: C6_6  and  C7_7 
REMARK    4  A    between atoms: C7_7  and  C8_8 
REMARK    5  A    between atoms: C8_8  and  C9_9 
REMARK    6  A    between atoms: C9_9  and  C10_10 
REMARK    7  A    between atoms: C10_10  and  N1_11 
ROOT
HETATM    1  C10 UNL     1      14.560 -11.991  17.773  1.00  0.00     0.137 C 
ENDROOT
BRANCH   1   2
HETATM    2  C9  UNL     1      15.243 -13.314  17.517  1.00  0.00     0.020 C 
BRANCH   2   3
HETATM    3  C8  UNL     1      14.366 -14.447  17.982  1.00  0.00     0.002 C 
BRANCH   3   4
HETATM    4  C7  UNL     1      15.069 -15.434  18.887  1.00  0.00     0.004 C 
BRANCH   4   5
HETATM    5  C6  UNL     1      14.649 -15.213  20.297  1.00  0.00     0.027 C 
BRANCH   5   6
HETATM    6  C5  UNL     1      15.711 -14.516  21.134  1.00  0.00    -0.026 C 
HETATM    7  C4  UNL     1      16.952 -14.759  20.994  1.00  0.00     0.009 C 
BRANCH   7   8
HETATM    8  C3  UNL     1      18.171 -14.305  21.591  1.00  0.00    -0.014 A 
HETATM    9  C2  UNL     1      18.598 -14.659  22.830  1.00  0.00     0.017 A 
HETATM   10  C1  UNL     1      17.875 -15.624  23.667  1.00  0.00     0.069 C 
HETATM   11  N4  UNL     1      19.766 -14.112  23.297  1.00  0.00    -0.364 N 
HETATM   12  C19 UNL     1      20.516 -13.250  22.606  1.00  0.00     0.090 A 
HETATM   13  C20 UNL     1      20.194 -14.514  24.648  1.00  0.00     0.155 C 
HETATM   14  C18 UNL     1      20.116 -12.875  21.357  1.00  0.00     0.018 A 
HETATM   15  C17 UNL     1      18.957 -13.397  20.856  1.00  0.00     0.014 A 
ENDBRANCH   7   8
ENDBRANCH   5   6
ENDBRANCH   4   5
ENDBRANCH   3   4
ENDBRANCH   2   3
ENDBRANCH   1   2
BRANCH   1  16
HETATM   16  N1  UNL     1      14.627 -11.626  19.180  1.00  0.00    -0.266 N 
HETATM   17  C11 UNL     1      15.737 -11.177  19.932  1.00  0.00     0.327 C 
HETATM   18  O1  UNL     1      16.899 -11.028  19.434  1.00  0.00    -0.247 OA
HETATM   19  N2  UNL     1      15.320 -10.945  21.267  1.00  0.00    -0.308 N 
HETATM   20  C12 UNL     1      13.897 -10.968  21.299  1.00  0.00     0.194 C 
ATOM     21  H2  UNL     1      15.933 -10.789  22.066  1.00  0.00     0.167 HD
HETATM   22  C13 UNL     1      13.274  -9.592  21.248  1.00  0.00     0.073 C 
HETATM   23  N3  UNL     1      13.351 -11.586  22.481  1.00  0.00    -0.327 N 
HETATM   24  C16 UNL     1      13.519 -11.671  20.050  1.00  0.00     0.277 C 
HETATM   25  C14 UNL     1      11.867  -9.874  21.731  1.00  0.00     0.107 C 
HETATM   26  C15 UNL     1      12.089 -10.958  22.708  1.00  0.00     0.220 C 
HETATM   27  O2  UNL     1      11.280 -11.284  23.614  1.00  0.00    -0.274 OA
ATOM     28  H3  UNL     1      13.779 -12.323  23.042  1.00  0.00     0.165 HD
HETATM   29  O3  UNL     1      12.376 -12.201  19.858  1.00  0.00    -0.268 OA
ENDBRANCH   1  16
TORSDOF 7
ENDMDL
