MODEL 1
REMARK VINA RESULT: -6.634708134      0.000      0.000
REMARK  7 active torsions:
REMARK  status: ('A' for Active; 'I' for Inactive)
REMARK    1  A    between atoms: C2_2  and  O1_3 
REMARK    2  A    between atoms: O1_3  and  C3_4 
REMARK    3  A    between atoms: C3_4  and  C4_5 
REMARK    4  A    between atoms: C6_8  and  O2_9 
REMARK    5  A    between atoms: C6_8  and  O3_11 
REMARK    6  A    between atoms: C9_14  and  C10_15 
REMARK    7  A    between atoms: C10_15  and  O4_16 
ROOT
HETATM    1  C4  UNL     1      -4.948   4.031  14.502  1.00  0.00     0.131 A 
HETATM    2  N1  UNL     1      -4.720   2.894  13.646  1.00  0.00    -0.173 NA
HETATM    3  C5  UNL     1      -3.624   2.858  12.775  1.00  0.00     0.190 C 
HETATM    4  C6  UNL     1      -3.747   3.816  11.557  1.00  0.00     0.182 C 
HETATM    5  C8  UNL     1      -4.019   5.048  12.342  1.00  0.00     0.104 C 
HETATM    6  C9  UNL     1      -4.686   6.237  11.839  1.00  0.00     0.014 C 
HETATM    7  C11 UNL     1      -3.915   7.456  12.373  1.00  0.00     0.014 C 
HETATM    8  C12 UNL     1      -3.330   7.253  13.718  1.00  0.00     0.004 C 
HETATM    9  C13 UNL     1      -3.875   6.256  14.628  1.00  0.00     0.044 C 
HETATM   10  C14 UNL     1      -5.054   5.442  14.286  1.00  0.00     0.124 A 
HETATM   11  O5  UNL     1      -6.049   6.303  13.876  1.00  0.00    -0.374 OA
HETATM   12  C15 UNL     1      -6.077   6.496  12.475  1.00  0.00     0.181 C 
HETATM   13  C16 UNL     1      -5.100   4.526  13.212  1.00  0.00     0.153 A 
HETATM   14  O6  UNL     1      -5.811   3.419  12.973  1.00  0.00    -0.285 OA
ENDROOT
BRANCH   1  15
HETATM   15  C3  UNL     1      -6.131   3.619  15.402  1.00  0.00     0.208 C 
BRANCH  15  16
HETATM   16  O1  UNL     1      -5.785   2.426  16.100  1.00  0.00    -0.362 OA
BRANCH  16  17
HETATM   17  C2  UNL     1      -6.464   2.016  17.235  1.00  0.00     0.124 C 
HETATM   18  C1  UNL     1      -7.336   1.023  17.212  1.00  0.00     0.037 C 
ENDBRANCH  16  17
ENDBRANCH  15  16
ENDBRANCH   1  15
BRANCH   4  19
HETATM   19  O2  UNL     1      -4.741   3.439  10.700  1.00  0.00    -0.364 OA
ATOM     20  H2  UNL     1      -5.592   3.418  11.122  1.00  0.00     0.213 HD
ENDBRANCH   4  19
BRANCH   4  21
HETATM   21  O3  UNL     1      -2.486   3.842  10.984  1.00  0.00    -0.358 OA
HETATM   22  C7  UNL     1      -1.480   4.230  11.821  1.00  0.00     0.205 C 
ENDBRANCH   4  21
BRANCH   6  23
HETATM   23  C10 UNL     1      -4.870   6.362  10.369  1.00  0.00     0.176 C 
BRANCH  23  24
HETATM   24  O4  UNL     1      -6.103   5.940   9.915  1.00  0.00    -0.400 OA
ATOM     25  H4  UNL     1      -6.191   5.938   8.970  1.00  0.00     0.209 HD
ENDBRANCH  23  24
ENDBRANCH   6  23
TORSDOF 7
ENDMDL
MODEL 2
REMARK VINA RESULT: -6.161688383      1.347      1.419
REMARK  7 active torsions:
REMARK  status: ('A' for Active; 'I' for Inactive)
REMARK    1  A    between atoms: C2_2  and  O1_3 
REMARK    2  A    between atoms: O1_3  and  C3_4 
REMARK    3  A    between atoms: C3_4  and  C4_5 
REMARK    4  A    between atoms: C6_8  and  O2_9 
REMARK    5  A    between atoms: C6_8  and  O3_11 
REMARK    6  A    between atoms: C9_14  and  C10_15 
REMARK    7  A    between atoms: C10_15  and  O4_16 
ROOT
HETATM    1  C4  UNL     1      -3.654   4.242  14.093  1.00  0.00     0.131 A 
HETATM    2  N1  UNL     1      -3.320   3.219  13.133  1.00  0.00    -0.173 NA
HETATM    3  C5  UNL     1      -2.435   3.484  12.080  1.00  0.00     0.190 C 
HETATM    4  C6  UNL     1      -3.020   4.405  10.973  1.00  0.00     0.182 C 
HETATM    5  C8  UNL     1      -3.432   5.510  11.878  1.00  0.00     0.104 C 
HETATM    6  C9  UNL     1      -4.455   6.500  11.586  1.00  0.00     0.014 C 
HETATM    7  C11 UNL     1      -3.922   7.863  12.057  1.00  0.00     0.014 C 
HETATM    8  C12 UNL     1      -3.061   7.786  13.258  1.00  0.00     0.004 C 
HETATM    9  C13 UNL     1      -3.159   6.663  14.180  1.00  0.00     0.044 C 
HETATM   10  C14 UNL     1      -4.144   5.583  13.998  1.00  0.00     0.124 A 
HETATM   11  O5  UNL     1      -5.380   6.170  13.832  1.00  0.00    -0.374 OA
HETATM   12  C15 UNL     1      -5.720   6.380  12.475  1.00  0.00     0.181 C 
HETATM   13  C16 UNL     1      -4.165   4.710  12.888  1.00  0.00     0.153 A 
HETATM   14  O6  UNL     1      -4.614   3.463  12.703  1.00  0.00    -0.285 OA
ENDROOT
BRANCH   1  15
HETATM   15  C3  UNL     1      -4.506   3.522  15.159  1.00  0.00     0.208 C 
BRANCH  15  16
HETATM   16  O1  UNL     1      -3.710   2.517  15.782  1.00  0.00    -0.362 OA
BRANCH  16  17
HETATM   17  C2  UNL     1      -4.242   1.302  16.181  1.00  0.00     0.124 C 
HETATM   18  C1  UNL     1      -4.401   0.295  15.342  1.00  0.00     0.037 C 
ENDBRANCH  16  17
ENDBRANCH  15  16
ENDBRANCH   1  15
BRANCH   4  19
HETATM   19  O2  UNL     1      -4.033   3.806  10.283  1.00  0.00    -0.364 OA
ATOM     20  H2  UNL     1      -4.642   4.437   9.916  1.00  0.00     0.213 HD
ENDBRANCH   4  19
BRANCH   4  21
HETATM   21  O3  UNL     1      -1.936   4.765  10.188  1.00  0.00    -0.358 OA
HETATM   22  C7  UNL     1      -0.972   5.486  10.830  1.00  0.00     0.205 C 
ENDBRANCH   4  21
BRANCH   6  23
HETATM   23  C10 UNL     1      -4.941   6.605  10.184  1.00  0.00     0.176 C 
BRANCH  23  24
HETATM   24  O4  UNL     1      -6.056   5.840   9.912  1.00  0.00    -0.400 OA
ATOM     25  H4  UNL     1      -6.664   5.764  10.637  1.00  0.00     0.209 HD
ENDBRANCH  23  24
ENDBRANCH   6  23
TORSDOF 7
ENDMDL
MODEL 3
REMARK VINA RESULT: -6.138547245      1.735      2.690
REMARK  7 active torsions:
REMARK  status: ('A' for Active; 'I' for Inactive)
REMARK    1  A    between atoms: C2_2  and  O1_3 
REMARK    2  A    between atoms: O1_3  and  C3_4 
REMARK    3  A    between atoms: C3_4  and  C4_5 
REMARK    4  A    between atoms: C6_8  and  O2_9 
REMARK    5  A    between atoms: C6_8  and  O3_11 
REMARK    6  A    between atoms: C9_14  and  C10_15 
REMARK    7  A    between atoms: C10_15  and  O4_16 
ROOT
HETATM    1  C4  UNL     1      -4.452   3.279  15.126  1.00  0.00     0.131 A 
HETATM    2  N1  UNL     1      -3.034   3.245  15.386  1.00  0.00    -0.173 NA
HETATM    3  C5  UNL     1      -2.259   4.409  15.295  1.00  0.00     0.190 C 
HETATM    4  C6  UNL     1      -2.034   4.911  13.842  1.00  0.00     0.182 C 
HETATM    5  C8  UNL     1      -3.469   4.955  13.457  1.00  0.00     0.104 C 
HETATM    6  C9  UNL     1      -3.978   4.899  12.097  1.00  0.00     0.014 C 
HETATM    7  C11 UNL     1      -5.110   5.935  11.988  1.00  0.00     0.014 C 
HETATM    8  C12 UNL     1      -5.890   6.102  13.235  1.00  0.00     0.004 C 
HETATM    9  C13 UNL     1      -5.936   5.046  14.237  1.00  0.00     0.044 C 
HETATM   10  C14 UNL     1      -5.261   3.751  14.044  1.00  0.00     0.124 A 
HETATM   11  O5  UNL     1      -5.650   3.258  12.817  1.00  0.00    -0.374 OA
HETATM   12  C15 UNL     1      -4.763   3.602  11.770  1.00  0.00     0.181 C 
HETATM   13  C16 UNL     1      -3.863   3.599  13.908  1.00  0.00     0.153 A 
HETATM   14  O6  UNL     1      -3.015   2.597  14.162  1.00  0.00    -0.285 OA
ENDROOT
BRANCH   1  15
HETATM   15  C3  UNL     1      -4.954   1.865  15.484  1.00  0.00     0.208 C 
BRANCH  15  16
HETATM   16  O1  UNL     1      -4.760   1.647  16.879  1.00  0.00    -0.362 OA
BRANCH  16  17
HETATM   17  C2  UNL     1      -5.808   1.324  17.724  1.00  0.00     0.124 C 
HETATM   18  C1  UNL     1      -7.051   1.210  17.291  1.00  0.00     0.037 C 
ENDBRANCH  16  17
ENDBRANCH  15  16
ENDBRANCH   1  15
BRANCH   4  19
HETATM   19  O2  UNL     1      -1.260   4.056  13.112  1.00  0.00    -0.364 OA
ATOM     20  H2  UNL     1      -1.302   4.237  12.180  1.00  0.00     0.213 HD
ENDBRANCH   4  19
BRANCH   4  21
HETATM   21  O3  UNL     1      -1.500   6.183  13.974  1.00  0.00    -0.358 OA
HETATM   22  C7  UNL     1      -2.351   7.114  14.494  1.00  0.00     0.205 C 
ENDBRANCH   4  21
BRANCH   6  23
HETATM   23  C10 UNL     1      -3.011   5.091  10.984  1.00  0.00     0.176 C 
BRANCH  23  24
HETATM   24  O4  UNL     1      -2.523   3.917  10.448  1.00  0.00    -0.400 OA
ATOM     25  H4  UNL     1      -1.630   3.974  10.132  1.00  0.00     0.209 HD
ENDBRANCH  23  24
ENDBRANCH   6  23
TORSDOF 7
ENDMDL
MODEL 4
REMARK VINA RESULT: -6.134985170      2.225      4.672
REMARK  7 active torsions:
REMARK  status: ('A' for Active; 'I' for Inactive)
REMARK    1  A    between atoms: C2_2  and  O1_3 
REMARK    2  A    between atoms: O1_3  and  C3_4 
REMARK    3  A    between atoms: C3_4  and  C4_5 
REMARK    4  A    between atoms: C6_8  and  O2_9 
REMARK    5  A    between atoms: C6_8  and  O3_11 
REMARK    6  A    between atoms: C9_14  and  C10_15 
REMARK    7  A    between atoms: C10_15  and  O4_16 
ROOT
HETATM    1  C4  UNL     1      -5.076   5.688  11.066  1.00  0.00     0.131 A 
HETATM    2  N1  UNL     1      -4.433   4.557  10.447  1.00  0.00    -0.173 NA
HETATM    3  C5  UNL     1      -4.226   3.368  11.160  1.00  0.00     0.190 C 
HETATM    4  C6  UNL     1      -3.123   3.465  12.250  1.00  0.00     0.182 C 
HETATM    5  C8  UNL     1      -3.684   4.650  12.950  1.00  0.00     0.104 C 
HETATM    6  C9  UNL     1      -2.931   5.568  13.789  1.00  0.00     0.014 C 
HETATM    7  C11 UNL     1      -3.796   5.874  15.023  1.00  0.00     0.014 C 
HETATM    8  C12 UNL     1      -5.250   5.895  14.746  1.00  0.00     0.004 C 
HETATM    9  C13 UNL     1      -5.752   6.141  13.401  1.00  0.00     0.044 C 
HETATM   10  C14 UNL     1      -4.855   6.431  12.269  1.00  0.00     0.124 A 
HETATM   11  O5  UNL     1      -4.014   7.452  12.655  1.00  0.00    -0.374 OA
HETATM   12  C15 UNL     1      -2.790   6.993  13.194  1.00  0.00     0.181 C 
HETATM   13  C16 UNL     1      -3.890   5.528  11.773  1.00  0.00     0.153 A 
HETATM   14  O6  UNL     1      -3.312   5.359  10.579  1.00  0.00    -0.285 OA
ENDROOT
BRANCH   1  15
HETATM   15  C3  UNL     1      -5.258   6.713   9.927  1.00  0.00     0.208 C 
BRANCH  15  16
HETATM   16  O1  UNL     1      -6.642   6.790   9.595  1.00  0.00    -0.362 OA
BRANCH  16  17
HETATM   17  C2  UNL     1      -7.393   7.927   9.839  1.00  0.00     0.124 C 
HETATM   18  C1  UNL     1      -7.433   8.501  11.029  1.00  0.00     0.037 C 
ENDBRANCH  16  17
ENDBRANCH  15  16
ENDBRANCH   1  15
BRANCH   4  19
HETATM   19  O2  UNL     1      -1.879   3.637  11.716  1.00  0.00    -0.364 OA
ATOM     20  H2  UNL     1      -1.260   3.986  12.347  1.00  0.00     0.213 HD
ENDBRANCH   4  19
BRANCH   4  21
HETATM   21  O3  UNL     1      -3.258   2.312  13.008  1.00  0.00    -0.358 OA
HETATM   22  C7  UNL     1      -4.471   2.158  13.613  1.00  0.00     0.205 C 
ENDBRANCH   4  21
BRANCH   6  23
HETATM   23  C10 UNL     1      -1.568   5.158  14.217  1.00  0.00     0.176 C 
BRANCH  23  24
HETATM   24  O4  UNL     1      -1.535   4.011  14.983  1.00  0.00    -0.400 OA
ATOM     25  H4  UNL     1      -1.185   3.252  14.533  1.00  0.00     0.209 HD
ENDBRANCH  23  24
ENDBRANCH   6  23
TORSDOF 7
ENDMDL
MODEL 5
REMARK VINA RESULT: -6.065004251      1.809      3.650
REMARK  7 active torsions:
REMARK  status: ('A' for Active; 'I' for Inactive)
REMARK    1  A    between atoms: C2_2  and  O1_3 
REMARK    2  A    between atoms: O1_3  and  C3_4 
REMARK    3  A    between atoms: C3_4  and  C4_5 
REMARK    4  A    between atoms: C6_8  and  O2_9 
REMARK    5  A    between atoms: C6_8  and  O3_11 
REMARK    6  A    between atoms: C9_14  and  C10_15 
REMARK    7  A    between atoms: C10_15  and  O4_16 
ROOT
HETATM    1  C4  UNL     1      -5.033   2.623  14.408  1.00  0.00     0.131 A 
HETATM    2  N1  UNL     1      -5.436   3.792  15.150  1.00  0.00    -0.173 NA
HETATM    3  C5  UNL     1      -6.114   4.844  14.520  1.00  0.00     0.190 C 
HETATM    4  C6  UNL     1      -5.227   5.691  13.566  1.00  0.00     0.182 C 
HETATM    5  C8  UNL     1      -4.724   4.553  12.752  1.00  0.00     0.104 C 
HETATM    6  C9  UNL     1      -3.500   4.554  11.969  1.00  0.00     0.014 C 
HETATM    7  C11 UNL     1      -3.814   3.869  10.628  1.00  0.00     0.014 C 
HETATM    8  C12 UNL     1      -4.817   2.786  10.729  1.00  0.00     0.004 C 
HETATM    9  C13 UNL     1      -5.054   2.101  11.991  1.00  0.00     0.044 C 
HETATM   10  C14 UNL     1      -4.283   2.408  13.208  1.00  0.00     0.124 A 
HETATM   11  O5  UNL     1      -2.946   2.347  12.880  1.00  0.00    -0.374 OA
HETATM   12  C15 UNL     1      -2.404   3.600  12.512  1.00  0.00     0.181 C 
HETATM   13  C16 UNL     1      -4.293   3.663  13.856  1.00  0.00     0.153 A 
HETATM   14  O6  UNL     1      -4.076   4.052  15.117  1.00  0.00    -0.285 OA
ENDROOT
BRANCH   1  15
HETATM   15  C3  UNL     1      -4.477   1.652  15.471  1.00  0.00     0.208 C 
BRANCH  15  16
HETATM   16  O1  UNL     1      -5.489   0.705  15.803  1.00  0.00    -0.362 OA
BRANCH  16  17
HETATM   17  C2  UNL     1      -6.106   0.695  17.042  1.00  0.00     0.124 C 
HETATM   18  C1  UNL     1      -7.304   1.219  17.236  1.00  0.00     0.037 C 
ENDBRANCH  16  17
ENDBRANCH  15  16
ENDBRANCH   1  15
BRANCH   4  19
HETATM   19  O2  UNL     1      -4.271   6.397  14.236  1.00  0.00    -0.364 OA
ATOM     20  H2  UNL     1      -3.722   6.907  13.651  1.00  0.00     0.213 HD
ENDBRANCH   4  19
BRANCH   4  21
HETATM   21  O3  UNL     1      -6.113   6.480  12.849  1.00  0.00    -0.358 OA
HETATM   22  C7  UNL     1      -7.384   6.518  13.346  1.00  0.00     0.205 C 
ENDBRANCH   4  21
BRANCH   6  23
HETATM   23  C10 UNL     1      -2.832   5.860  11.725  1.00  0.00     0.176 C 
BRANCH  23  24
HETATM   24  O4  UNL     1      -1.819   6.153  12.614  1.00  0.00    -0.400 OA
ATOM     25  H4  UNL     1      -1.471   5.397  13.071  1.00  0.00     0.209 HD
ENDBRANCH  23  24
ENDBRANCH   6  23
TORSDOF 7
ENDMDL
