MODEL 1
REMARK VINA RESULT: -7.658562317      0.000      0.000
REMARK  7 active torsions:
REMARK  status: ('A' for Active; 'I' for Inactive)
REMARK    1  A    between atoms: C2_2  and  O1_3 
REMARK    2  A    between atoms: O1_3  and  C3_4 
REMARK    3  A    between atoms: C3_4  and  C4_6 
REMARK    4  A    between atoms: C11_14  and  C12_15 
REMARK    5  A    between atoms: C12_15  and  O4_16 
REMARK    6  A    between atoms: C13_19  and  C14_20 
REMARK    7  A    between atoms: C14_20  and  O6_21 
ROOT
HETATM    1  C4  UNL     1      -4.161   3.144  15.037  1.00  0.00     0.290 C 
HETATM    2  O3  UNL     1      -2.906   3.685  15.034  1.00  0.00    -0.339 OA
HETATM    3  C5  UNL     1      -2.686   4.844  14.397  1.00  0.00     0.129 C 
HETATM    4  C6  UNL     1      -3.622   5.984  14.532  1.00  0.00     0.037 C 
HETATM    5  C7  UNL     1      -4.786   6.057  13.621  1.00  0.00    -0.007 C 
HETATM    6  C8  UNL     1      -6.088   5.513  14.073  1.00  0.00     0.037 C 
HETATM    7  C9  UNL     1      -6.113   4.219  14.747  1.00  0.00     0.129 C 
HETATM    8  C10 UNL     1      -6.183   2.983  13.896  1.00  0.00     0.078 C 
HETATM    9  C11 UNL     1      -4.682   2.666  13.772  1.00  0.00     0.151 C 
HETATM   10  O5  UNL     1      -4.252   3.134  12.601  1.00  0.00    -0.358 OA
HETATM   11  C13 UNL     1      -3.708   4.250  12.252  1.00  0.00     0.086 C 
HETATM   12  C15 UNL     1      -4.521   5.512  12.241  1.00  0.00     0.045 C 
HETATM   13  C16 UNL     1      -2.405   4.550  12.942  1.00  0.00     0.072 C 
HETATM   14  O7  UNL     1      -5.032   4.110  15.572  1.00  0.00    -0.339 OA
ENDROOT
BRANCH   1  15
HETATM   15  C3  UNL     1      -4.181   2.123  16.122  1.00  0.00     0.325 C 
HETATM   16  O2  UNL     1      -3.233   1.297  16.269  1.00  0.00    -0.259 OA
BRANCH  15  17
HETATM   17  O1  UNL     1      -5.224   2.012  17.027  1.00  0.00    -0.318 OA
BRANCH  17  18
HETATM   18  C2  UNL     1      -6.034   0.870  17.054  1.00  0.00     0.174 C 
HETATM   19  C1  UNL     1      -7.499   1.150  17.072  1.00  0.00     0.034 C 
ENDBRANCH  17  18
ENDBRANCH  15  17
ENDBRANCH   1  15
BRANCH   9  20
HETATM   20  C12 UNL     1      -4.581   1.161  13.629  1.00  0.00     0.208 C 
BRANCH  20  21
HETATM   21  O4  UNL     1      -4.902   0.787  12.290  1.00  0.00    -0.398 OA
ATOM     22  H4  UNL     1      -5.843   0.691  12.205  1.00  0.00     0.209 HD
ENDBRANCH  20  21
ENDBRANCH   9  20
BRANCH  11  23
HETATM   23  C14 UNL     1      -3.288   4.091  10.761  1.00  0.00     0.202 C 
BRANCH  23  24
HETATM   24  O6  UNL     1      -4.101   3.061  10.260  1.00  0.00    -0.398 OA
ATOM     25  H6  UNL     1      -4.256   3.289   9.350  1.00  0.00     0.209 HD
ENDBRANCH  23  24
ENDBRANCH  11  23
TORSDOF 7
ENDMDL
MODEL 2
REMARK VINA RESULT: -6.479108086      1.762      3.350
REMARK  7 active torsions:
REMARK  status: ('A' for Active; 'I' for Inactive)
REMARK    1  A    between atoms: C2_2  and  O1_3 
REMARK    2  A    between atoms: O1_3  and  C3_4 
REMARK    3  A    between atoms: C3_4  and  C4_6 
REMARK    4  A    between atoms: C11_14  and  C12_15 
REMARK    5  A    between atoms: C12_15  and  O4_16 
REMARK    6  A    between atoms: C13_19  and  C14_20 
REMARK    7  A    between atoms: C14_20  and  O6_21 
ROOT
HETATM    1  C4  UNL     1      -3.941   3.307  12.815  1.00  0.00     0.290 C 
HETATM    2  O3  UNL     1      -3.984   3.245  11.450  1.00  0.00    -0.339 OA
HETATM    3  C5  UNL     1      -3.413   4.217  10.726  1.00  0.00     0.129 C 
HETATM    4  C6  UNL     1      -2.071   4.744  11.070  1.00  0.00     0.037 C 
HETATM    5  C7  UNL     1      -1.973   5.842  12.057  1.00  0.00    -0.007 C 
HETATM    6  C8  UNL     1      -1.715   5.510  13.478  1.00  0.00     0.037 C 
HETATM    7  C9  UNL     1      -2.454   4.409  14.088  1.00  0.00     0.129 C 
HETATM    8  C10 UNL     1      -3.807   4.706  14.669  1.00  0.00     0.078 C 
HETATM    9  C11 UNL     1      -4.692   4.367  13.457  1.00  0.00     0.151 C 
HETATM   10  O5  UNL     1      -4.998   5.503  12.833  1.00  0.00    -0.358 OA
HETATM   11  C13 UNL     1      -4.457   6.131  11.844  1.00  0.00     0.086 C 
HETATM   12  C15 UNL     1      -3.130   6.808  12.019  1.00  0.00     0.045 C 
HETATM   13  C16 UNL     1      -4.405   5.345  10.562  1.00  0.00     0.072 C 
HETATM   14  O7  UNL     1      -2.588   3.393  13.188  1.00  0.00    -0.339 OA
ENDROOT
BRANCH   1  15
HETATM   15  C3  UNL     1      -4.278   1.943  13.312  1.00  0.00     0.325 C 
HETATM   16  O2  UNL     1      -5.015   1.159  12.644  1.00  0.00    -0.259 OA
BRANCH  15  17
HETATM   17  O1  UNL     1      -3.814   1.450  14.521  1.00  0.00    -0.318 OA
BRANCH  17  18
HETATM   18  C2  UNL     1      -4.648   0.700  15.359  1.00  0.00     0.174 C 
HETATM   19  C1  UNL     1      -5.041   1.391  16.621  1.00  0.00     0.034 C 
ENDBRANCH  17  18
ENDBRANCH  15  17
ENDBRANCH   1  15
BRANCH   9  20
HETATM   20  C12 UNL     1      -6.013   3.888  14.023  1.00  0.00     0.208 C 
BRANCH  20  21
HETATM   21  O4  UNL     1      -6.998   4.907  13.862  1.00  0.00    -0.398 OA
ATOM     22  H4  UNL     1      -6.700   5.705  14.281  1.00  0.00     0.209 HD
ENDBRANCH  20  21
ENDBRANCH   9  20
BRANCH  11  23
HETATM   23  C14 UNL     1      -5.410   7.312  11.494  1.00  0.00     0.202 C 
BRANCH  23  24
HETATM   24  O6  UNL     1      -6.703   6.826  11.749  1.00  0.00    -0.398 OA
ATOM     25  H6  UNL     1      -6.584   5.908  11.966  1.00  0.00     0.209 HD
ENDBRANCH  23  24
ENDBRANCH  11  23
TORSDOF 7
ENDMDL
MODEL 3
REMARK VINA RESULT: -6.436440596      1.644      5.117
REMARK  7 active torsions:
REMARK  status: ('A' for Active; 'I' for Inactive)
REMARK    1  A    between atoms: C2_2  and  O1_3 
REMARK    2  A    between atoms: O1_3  and  C3_4 
REMARK    3  A    between atoms: C3_4  and  C4_6 
REMARK    4  A    between atoms: C11_14  and  C12_15 
REMARK    5  A    between atoms: C12_15  and  O4_16 
REMARK    6  A    between atoms: C13_19  and  C14_20 
REMARK    7  A    between atoms: C14_20  and  O6_21 
ROOT
HETATM    1  C4  UNL     1      -3.449   4.248  12.820  1.00  0.00     0.290 C 
HETATM    2  O3  UNL     1      -3.672   2.971  12.386  1.00  0.00    -0.339 OA
HETATM    3  C5  UNL     1      -4.734   2.293  12.841  1.00  0.00     0.129 C 
HETATM    4  C6  UNL     1      -6.068   2.930  12.939  1.00  0.00     0.037 C 
HETATM    5  C7  UNL     1      -6.405   3.683  14.168  1.00  0.00    -0.007 C 
HETATM    6  C8  UNL     1      -6.197   5.149  14.193  1.00  0.00     0.037 C 
HETATM    7  C9  UNL     1      -4.957   5.692  13.649  1.00  0.00     0.129 C 
HETATM    8  C10 UNL     1      -3.762   5.765  14.556  1.00  0.00     0.078 C 
HETATM    9  C11 UNL     1      -3.092   4.423  14.213  1.00  0.00     0.151 C 
HETATM   10  O5  UNL     1      -3.425   3.539  15.152  1.00  0.00    -0.358 OA
HETATM   11  C13 UNL     1      -4.373   2.667  15.235  1.00  0.00     0.086 C 
HETATM   12  C15 UNL     1      -5.793   3.115  15.423  1.00  0.00     0.045 C 
HETATM   13  C16 UNL     1      -4.361   1.629  14.146  1.00  0.00     0.072 C 
HETATM   14  O7  UNL     1      -4.604   4.996  12.530  1.00  0.00    -0.339 OA
ENDROOT
BRANCH   1  15
HETATM   15  C3  UNL     1      -2.479   4.857  11.867  1.00  0.00     0.325 C 
HETATM   16  O2  UNL     1      -2.450   6.107  11.662  1.00  0.00    -0.259 OA
BRANCH  15  17
HETATM   17  O1  UNL     1      -1.557   4.108  11.155  1.00  0.00    -0.318 OA
BRANCH  17  18
HETATM   18  C2  UNL     1      -0.389   4.694  10.651  1.00  0.00     0.174 C 
HETATM   19  C1  UNL     1       0.870   3.992  11.033  1.00  0.00     0.034 C 
ENDBRANCH  17  18
ENDBRANCH  15  17
ENDBRANCH   1  15
BRANCH   9  20
HETATM   20  C12 UNL     1      -1.605   4.633  14.414  1.00  0.00     0.208 C 
BRANCH  20  21
HETATM   21  O4  UNL     1      -1.168   3.890  15.550  1.00  0.00    -0.398 OA
ATOM     22  H4  UNL     1      -0.830   4.486  16.208  1.00  0.00     0.209 HD
ENDBRANCH  20  21
ENDBRANCH   9  20
BRANCH  11  23
HETATM   23  C14 UNL     1      -4.095   1.832  16.520  1.00  0.00     0.202 C 
BRANCH  23  24
HETATM   24  O6  UNL     1      -3.627   0.592  16.055  1.00  0.00    -0.398 OA
ATOM     25  H6  UNL     1      -3.942  -0.044  16.687  1.00  0.00     0.209 HD
ENDBRANCH  23  24
ENDBRANCH  11  23
TORSDOF 7
ENDMDL
MODEL 4
REMARK VINA RESULT: -6.265262848      1.460      3.228
REMARK  7 active torsions:
REMARK  status: ('A' for Active; 'I' for Inactive)
REMARK    1  A    between atoms: C2_2  and  O1_3 
REMARK    2  A    between atoms: O1_3  and  C3_4 
REMARK    3  A    between atoms: C3_4  and  C4_6 
REMARK    4  A    between atoms: C11_14  and  C12_15 
REMARK    5  A    between atoms: C12_15  and  O4_16 
REMARK    6  A    between atoms: C13_19  and  C14_20 
REMARK    7  A    between atoms: C14_20  and  O6_21 
ROOT
HETATM    1  C4  UNL     1      -4.828   3.665  14.649  1.00  0.00     0.290 C 
HETATM    2  O3  UNL     1      -5.683   4.386  15.435  1.00  0.00    -0.339 OA
HETATM    3  C5  UNL     1      -6.090   5.598  15.031  1.00  0.00     0.129 C 
HETATM    4  C6  UNL     1      -6.516   5.839  13.632  1.00  0.00     0.037 C 
HETATM    5  C7  UNL     1      -5.487   6.185  12.627  1.00  0.00    -0.007 C 
HETATM    6  C8  UNL     1      -4.905   5.109  11.793  1.00  0.00     0.037 C 
HETATM    7  C9  UNL     1      -4.517   3.856  12.433  1.00  0.00     0.129 C 
HETATM    8  C10 UNL     1      -3.148   3.772  13.044  1.00  0.00     0.078 C 
HETATM    9  C11 UNL     1      -3.481   4.176  14.491  1.00  0.00     0.151 C 
HETATM   10  O5  UNL     1      -3.186   5.466  14.641  1.00  0.00    -0.358 OA
HETATM   11  C13 UNL     1      -3.887   6.543  14.528  1.00  0.00     0.086 C 
HETATM   12  C15 UNL     1      -4.345   7.003  13.175  1.00  0.00     0.045 C 
HETATM   13  C16 UNL     1      -5.065   6.620  15.462  1.00  0.00     0.072 C 
HETATM   14  O7  UNL     1      -5.434   3.526  13.388  1.00  0.00    -0.339 OA
ENDROOT
BRANCH   1  15
HETATM   15  C3  UNL     1      -4.885   2.259  15.140  1.00  0.00     0.325 C 
HETATM   16  O2  UNL     1      -4.893   1.279  14.337  1.00  0.00    -0.259 OA
BRANCH  15  17
HETATM   17  O1  UNL     1      -4.932   1.936  16.486  1.00  0.00    -0.318 OA
BRANCH  17  18
HETATM   18  C2  UNL     1      -5.778   0.922  16.953  1.00  0.00     0.174 C 
HETATM   19  C1  UNL     1      -7.209   1.321  17.084  1.00  0.00     0.034 C 
ENDBRANCH  17  18
ENDBRANCH  15  17
ENDBRANCH   1  15
BRANCH   9  20
HETATM   20  C12 UNL     1      -2.476   3.460  15.369  1.00  0.00     0.208 C 
BRANCH  20  21
HETATM   21  O4  UNL     1      -1.216   4.125  15.291  1.00  0.00    -0.398 OA
ATOM     22  H4  UNL     1      -0.676   3.704  14.632  1.00  0.00     0.209 HD
ENDBRANCH  20  21
ENDBRANCH   9  20
BRANCH  11  23
HETATM   23  C14 UNL     1      -2.980   7.715  15.008  1.00  0.00     0.202 C 
BRANCH  23  24
HETATM   24  O6  UNL     1      -1.666   7.286  14.759  1.00  0.00    -0.398 OA
ATOM     25  H6  UNL     1      -1.648   6.375  15.029  1.00  0.00     0.209 HD
ENDBRANCH  23  24
ENDBRANCH  11  23
TORSDOF 7
ENDMDL
MODEL 5
REMARK VINA RESULT: -6.217171917      1.559      2.987
REMARK  7 active torsions:
REMARK  status: ('A' for Active; 'I' for Inactive)
REMARK    1  A    between atoms: C2_2  and  O1_3 
REMARK    2  A    between atoms: O1_3  and  C3_4 
REMARK    3  A    between atoms: C3_4  and  C4_6 
REMARK    4  A    between atoms: C11_14  and  C12_15 
REMARK    5  A    between atoms: C12_15  and  O4_16 
REMARK    6  A    between atoms: C13_19  and  C14_20 
REMARK    7  A    between atoms: C14_20  and  O6_21 
ROOT
HETATM    1  C4  UNL     1      -3.811   3.809  13.884  1.00  0.00     0.290 C 
HETATM    2  O3  UNL     1      -3.917   3.075  12.736  1.00  0.00    -0.339 OA
HETATM    3  C5  UNL     1      -3.363   3.532  11.605  1.00  0.00     0.129 C 
HETATM    4  C6  UNL     1      -1.999   4.112  11.596  1.00  0.00     0.037 C 
HETATM    5  C7  UNL     1      -1.839   5.552  11.897  1.00  0.00    -0.007 C 
HETATM    6  C8  UNL     1      -1.523   5.966  13.284  1.00  0.00     0.037 C 
HETATM    7  C9  UNL     1      -2.251   5.346  14.386  1.00  0.00     0.129 C 
HETATM    8  C10 UNL     1      -3.572   5.942  14.781  1.00  0.00     0.078 C 
HETATM    9  C11 UNL     1      -4.516   5.074  13.931  1.00  0.00     0.151 C 
HETATM   10  O5  UNL     1      -4.832   5.755  12.831  1.00  0.00    -0.358 OA
HETATM   11  C13 UNL     1      -4.326   5.784  11.645  1.00  0.00     0.086 C 
HETATM   12  C15 UNL     1      -2.982   6.410  11.416  1.00  0.00     0.045 C 
HETATM   13  C16 UNL     1      -4.344   4.461  10.928  1.00  0.00     0.072 C 
HETATM   14  O7  UNL     1      -2.441   4.021  14.121  1.00  0.00    -0.339 OA
ENDROOT
BRANCH   1  15
HETATM   15  C3  UNL     1      -4.147   2.890  15.008  1.00  0.00     0.325 C 
HETATM   16  O2  UNL     1      -3.296   2.597  15.900  1.00  0.00    -0.259 OA
BRANCH  15  17
HETATM   17  O1  UNL     1      -5.395   2.304  15.150  1.00  0.00    -0.318 OA
BRANCH  17  18
HETATM   18  C2  UNL     1      -5.729   1.597  16.312  1.00  0.00     0.174 C 
HETATM   19  C1  UNL     1      -7.022   2.004  16.934  1.00  0.00     0.034 C 
ENDBRANCH  17  18
ENDBRANCH  15  17
ENDBRANCH   1  15
BRANCH   9  20
HETATM   20  C12 UNL     1      -5.818   4.990  14.702  1.00  0.00     0.208 C 
BRANCH  20  21
HETATM   21  O4  UNL     1      -6.876   4.637  13.813  1.00  0.00    -0.398 OA
ATOM     22  H4  UNL     1      -7.039   3.703  13.869  1.00  0.00     0.209 HD
ENDBRANCH  20  21
ENDBRANCH   9  20
BRANCH  11  23
HETATM   23  C14 UNL     1      -5.275   6.665  10.779  1.00  0.00     0.202 C 
BRANCH  23  24
HETATM   24  O6  UNL     1      -5.834   5.785   9.838  1.00  0.00    -0.398 OA
ATOM     25  H6  UNL     1      -5.158   5.665   9.181  1.00  0.00     0.209 HD
ENDBRANCH  23  24
ENDBRANCH  11  23
TORSDOF 7
ENDMDL
