MODEL 1
REMARK VINA RESULT: -6.406128121      0.000      0.000
REMARK  9 active torsions:
REMARK  status: ('A' for Active; 'I' for Inactive)
REMARK    1  A    between atoms: C2_2  and  C3_3 
REMARK    2  A    between atoms: C3_3  and  O2_5 
REMARK    3  A    between atoms: O2_5  and  C4_6 
REMARK    4  A    between atoms: C7_11  and  O5_12 
REMARK    5  A    between atoms: C8_14  and  N1_15 
REMARK    6  A    between atoms: N1_15  and  N2_17 
REMARK    7  A    between atoms: N2_17  and  N3_18 
REMARK    8  A    between atoms: C9_21  and  C10_22 
REMARK    9  A    between atoms: C10_22  and  O6_23 
ROOT
HETATM    1  C4  UNL     1      -4.547   1.427  15.215  1.00  0.00     0.271 C 
HETATM    2  C5  UNL     1      -4.458   0.403  14.137  1.00  0.00     0.292 C 
HETATM    3  O3  UNL     1      -4.392  -0.853  14.357  1.00  0.00    -0.262 OA
HETATM    4  O4  UNL     1      -4.464   1.065  12.918  1.00  0.00    -0.308 OA
HETATM    5  C6  UNL     1      -3.796   2.275  13.095  1.00  0.00     0.203 C 
HETATM    6  C7  UNL     1      -4.223   3.360  12.150  1.00  0.00     0.176 C 
HETATM    7  C8  UNL     1      -3.515   4.629  12.520  1.00  0.00     0.154 C 
HETATM    8  C9  UNL     1      -2.864   4.587  13.870  1.00  0.00     0.069 C 
HETATM    9  C11 UNL     1      -3.690   3.872  14.911  1.00  0.00     0.171 A 
HETATM   10  O7  UNL     1      -5.040   3.808  14.625  1.00  0.00    -0.362 OA
HETATM   11  C12 UNL     1      -4.249   2.692  14.488  1.00  0.00     0.152 A 
ENDROOT
BRANCH   7  12
HETATM   12  N1  UNL     1      -4.353   5.802  12.347  1.00  0.00    -0.245 N 
ATOM     13  H1  UNL     1      -4.477   6.438  13.134  1.00  0.00     0.197 HD
BRANCH  12  14
HETATM   14  N2  UNL     1      -4.925   6.057  11.278  1.00  0.00    -0.248 NA
BRANCH  14  15
HETATM   15  N3  UNL     1      -5.751   6.129  10.348  1.00  0.00    -0.261 N 
ATOM     16  H32 UNL     1      -6.292   5.328  10.674  1.00  0.00     0.193 HD
ATOM     17  H31 UNL     1      -6.266   6.407   9.512  1.00  0.00     0.193 HD
ENDBRANCH  14  15
ENDBRANCH  12  14
ENDBRANCH   7  12
BRANCH   6  18
HETATM   18  O5  UNL     1      -5.608   3.481  12.154  1.00  0.00    -0.391 OA
ATOM     19  H5  UNL     1      -5.944   3.379  13.037  1.00  0.00     0.210 HD
ENDBRANCH   6  18
BRANCH   8  20
HETATM   20  C10 UNL     1      -2.530   6.001  14.291  1.00  0.00     0.173 C 
BRANCH  20  21
HETATM   21  O6  UNL     1      -3.627   6.557  14.954  1.00  0.00    -0.400 OA
ATOM     22  H6  UNL     1      -3.569   7.504  14.919  1.00  0.00     0.209 HD
ENDBRANCH  20  21
ENDBRANCH   8  20
BRANCH   1  23
HETATM   23  O2  UNL     1      -5.865   1.364  15.731  1.00  0.00    -0.302 OA
BRANCH  23  24
HETATM   24  C3  UNL     1      -6.156   0.946  17.020  1.00  0.00     0.259 C 
HETATM   25  O1  UNL     1      -5.969  -0.262  17.285  1.00  0.00    -0.265 OA
BRANCH  24  26
HETATM   26  C2  UNL     1      -6.666   1.841  18.078  1.00  0.00     0.106 C 
HETATM   27  C1  UNL     1      -7.072   3.144  17.432  1.00  0.00     0.015 C 
ENDBRANCH  24  26
ENDBRANCH  23  24
ENDBRANCH   1  23
TORSDOF 9
ENDMDL
MODEL 2
REMARK VINA RESULT: -6.293276849      1.333      1.484
REMARK  9 active torsions:
REMARK  status: ('A' for Active; 'I' for Inactive)
REMARK    1  A    between atoms: C2_2  and  C3_3 
REMARK    2  A    between atoms: C3_3  and  O2_5 
REMARK    3  A    between atoms: O2_5  and  C4_6 
REMARK    4  A    between atoms: C7_11  and  O5_12 
REMARK    5  A    between atoms: C8_14  and  N1_15 
REMARK    6  A    between atoms: N1_15  and  N2_17 
REMARK    7  A    between atoms: N2_17  and  N3_18 
REMARK    8  A    between atoms: C9_21  and  C10_22 
REMARK    9  A    between atoms: C10_22  and  O6_23 
ROOT
HETATM    1  C4  UNL     1      -3.980   2.251  14.504  1.00  0.00     0.271 C 
HETATM    2  C5  UNL     1      -4.481   1.495  13.323  1.00  0.00     0.292 C 
HETATM    3  O3  UNL     1      -4.571   0.221  13.282  1.00  0.00    -0.262 OA
HETATM    4  O4  UNL     1      -4.810   2.412  12.336  1.00  0.00    -0.308 OA
HETATM    5  C6  UNL     1      -3.914   3.474  12.435  1.00  0.00     0.203 C 
HETATM    6  C7  UNL     1      -4.450   4.784  11.935  1.00  0.00     0.176 C 
HETATM    7  C8  UNL     1      -3.435   5.856  12.203  1.00  0.00     0.154 C 
HETATM    8  C9  UNL     1      -2.355   5.440  13.158  1.00  0.00     0.069 C 
HETATM    9  C11 UNL     1      -2.860   4.598  14.304  1.00  0.00     0.171 A 
HETATM   10  O7  UNL     1      -4.208   4.741  14.568  1.00  0.00    -0.362 OA
HETATM   11  C12 UNL     1      -3.742   3.609  13.943  1.00  0.00     0.152 A 
ENDROOT
BRANCH   7  12
HETATM   12  N1  UNL     1      -4.048   7.117  12.577  1.00  0.00    -0.245 N 
ATOM     13  H1  UNL     1      -3.757   7.568  13.444  1.00  0.00     0.197 HD
BRANCH  12  14
HETATM   14  N2  UNL     1      -4.913   7.667  11.881  1.00  0.00    -0.248 NA
BRANCH  14  15
HETATM   15  N3  UNL     1      -5.994   8.042  11.386  1.00  0.00    -0.261 N 
ATOM     16  H32 UNL     1      -6.500   7.210  11.689  1.00  0.00     0.193 HD
ATOM     17  H31 UNL     1      -6.722   8.572  10.906  1.00  0.00     0.193 HD
ENDBRANCH  14  15
ENDBRANCH  12  14
ENDBRANCH   7  12
BRANCH   6  18
HETATM   18  O5  UNL     1      -5.690   5.044  12.507  1.00  0.00    -0.391 OA
ATOM     19  H5  UNL     1      -6.231   5.540  11.904  1.00  0.00     0.210 HD
ENDBRANCH   6  18
BRANCH   8  20
HETATM   20  C10 UNL     1      -1.638   6.680  13.645  1.00  0.00     0.173 C 
BRANCH  20  21
HETATM   21  O6  UNL     1      -2.274   7.162  14.792  1.00  0.00    -0.400 OA
ATOM     22  H6  UNL     1      -1.631   7.568  15.361  1.00  0.00     0.209 HD
ENDBRANCH  20  21
ENDBRANCH   8  20
BRANCH   1  23
HETATM   23  O2  UNL     1      -5.006   2.210  15.480  1.00  0.00    -0.302 OA
BRANCH  23  24
HETATM   24  C3  UNL     1      -4.942   1.416  16.614  1.00  0.00     0.259 C 
HETATM   25  O1  UNL     1      -3.989   0.609  16.694  1.00  0.00    -0.265 OA
BRANCH  24  26
HETATM   26  C2  UNL     1      -5.926   1.473  17.713  1.00  0.00     0.106 C 
HETATM   27  C1  UNL     1      -7.304   1.324  17.114  1.00  0.00     0.015 C 
ENDBRANCH  24  26
ENDBRANCH  23  24
ENDBRANCH   1  23
TORSDOF 9
ENDMDL
MODEL 3
REMARK VINA RESULT: -5.970736045      2.963      5.874
REMARK  9 active torsions:
REMARK  status: ('A' for Active; 'I' for Inactive)
REMARK    1  A    between atoms: C2_2  and  C3_3 
REMARK    2  A    between atoms: C3_3  and  O2_5 
REMARK    3  A    between atoms: O2_5  and  C4_6 
REMARK    4  A    between atoms: C7_11  and  O5_12 
REMARK    5  A    between atoms: C8_14  and  N1_15 
REMARK    6  A    between atoms: N1_15  and  N2_17 
REMARK    7  A    between atoms: N2_17  and  N3_18 
REMARK    8  A    between atoms: C9_21  and  C10_22 
REMARK    9  A    between atoms: C10_22  and  O6_23 
ROOT
HETATM    1  C4  UNL     1      -3.461   6.160  13.874  1.00  0.00     0.271 C 
HETATM    2  C5  UNL     1      -4.311   6.538  12.711  1.00  0.00     0.292 C 
HETATM    3  O3  UNL     1      -4.545   7.745  12.366  1.00  0.00    -0.262 OA
HETATM    4  O4  UNL     1      -4.765   5.370  12.117  1.00  0.00    -0.308 OA
HETATM    5  C6  UNL     1      -4.956   4.432  13.128  1.00  0.00     0.203 C 
HETATM    6  C7  UNL     1      -4.823   3.005  12.681  1.00  0.00     0.176 C 
HETATM    7  C8  UNL     1      -4.937   2.110  13.879  1.00  0.00     0.154 C 
HETATM    8  C9  UNL     1      -4.813   2.833  15.187  1.00  0.00     0.069 C 
HETATM    9  C11 UNL     1      -3.767   3.920  15.174  1.00  0.00     0.171 A 
HETATM   10  O7  UNL     1      -2.799   3.770  14.200  1.00  0.00    -0.362 OA
HETATM   11  C12 UNL     1      -3.783   4.719  14.058  1.00  0.00     0.152 A 
ENDROOT
BRANCH   7  12
HETATM   12  N1  UNL     1      -4.055   0.960  13.797  1.00  0.00    -0.245 N 
ATOM     13  H1  UNL     1      -3.156   0.995  14.276  1.00  0.00     0.197 HD
BRANCH  12  14
HETATM   14  N2  UNL     1      -4.355  -0.062  13.165  1.00  0.00    -0.248 NA
BRANCH  14  15
HETATM   15  N3  UNL     1      -4.423  -0.967  12.310  1.00  0.00    -0.261 N 
ATOM     16  H32 UNL     1      -4.825  -1.644  12.959  1.00  0.00     0.193 HD
ATOM     17  H31 UNL     1      -4.368  -1.506  11.446  1.00  0.00     0.193 HD
ENDBRANCH  14  15
ENDBRANCH  12  14
ENDBRANCH   7  12
BRANCH   6  18
HETATM   18  O5  UNL     1      -3.639   2.832  11.975  1.00  0.00    -0.391 OA
ATOM     19  H5  UNL     1      -3.230   3.673  11.808  1.00  0.00     0.210 HD
ENDBRANCH   6  18
BRANCH   8  20
HETATM   20  C10 UNL     1      -4.555   1.817  16.278  1.00  0.00     0.173 C 
BRANCH  20  21
HETATM   21  O6  UNL     1      -3.181   1.593  16.386  1.00  0.00    -0.400 OA
ATOM     22  H6  UNL     1      -2.748   1.912  15.603  1.00  0.00     0.209 HD
ENDBRANCH  20  21
ENDBRANCH   8  20
BRANCH   1  23
HETATM   23  O2  UNL     1      -2.118   6.399  13.493  1.00  0.00    -0.302 OA
BRANCH  23  24
HETATM   24  C3  UNL     1      -1.393   7.501  13.919  1.00  0.00     0.259 C 
HETATM   25  O1  UNL     1      -0.451   7.882  13.190  1.00  0.00    -0.265 OA
BRANCH  24  26
HETATM   26  C2  UNL     1      -1.672   8.235  15.170  1.00  0.00     0.106 C 
HETATM   27  C1  UNL     1      -2.073   9.644  14.804  1.00  0.00     0.015 C 
ENDBRANCH  24  26
ENDBRANCH  23  24
ENDBRANCH   1  23
TORSDOF 9
ENDMDL
MODEL 4
REMARK VINA RESULT: -5.882561913      1.173      1.441
REMARK  9 active torsions:
REMARK  status: ('A' for Active; 'I' for Inactive)
REMARK    1  A    between atoms: C2_2  and  C3_3 
REMARK    2  A    between atoms: C3_3  and  O2_5 
REMARK    3  A    between atoms: O2_5  and  C4_6 
REMARK    4  A    between atoms: C7_11  and  O5_12 
REMARK    5  A    between atoms: C8_14  and  N1_15 
REMARK    6  A    between atoms: N1_15  and  N2_17 
REMARK    7  A    between atoms: N2_17  and  N3_18 
REMARK    8  A    between atoms: C9_21  and  C10_22 
REMARK    9  A    between atoms: C10_22  and  O6_23 
ROOT
HETATM    1  C4  UNL     1      -4.815   2.435  15.053  1.00  0.00     0.271 C 
HETATM    2  C5  UNL     1      -4.575   1.277  14.148  1.00  0.00     0.292 C 
HETATM    3  O3  UNL     1      -4.651   0.058  14.521  1.00  0.00    -0.262 OA
HETATM    4  O4  UNL     1      -4.271   1.775  12.889  1.00  0.00    -0.308 OA
HETATM    5  C6  UNL     1      -3.567   2.964  13.067  1.00  0.00     0.203 C 
HETATM    6  C7  UNL     1      -3.701   3.936  11.932  1.00  0.00     0.176 C 
HETATM    7  C8  UNL     1      -2.995   5.208  12.299  1.00  0.00     0.154 C 
HETATM    8  C9  UNL     1      -2.652   5.310  13.755  1.00  0.00     0.069 C 
HETATM    9  C11 UNL     1      -3.732   4.776  14.664  1.00  0.00     0.171 A 
HETATM   10  O7  UNL     1      -4.991   4.740  14.096  1.00  0.00    -0.362 OA
HETATM   11  C12 UNL     1      -4.275   3.579  14.268  1.00  0.00     0.152 A 
ENDROOT
BRANCH   7  12
HETATM   12  N1  UNL     1      -3.687   6.386  11.810  1.00  0.00    -0.245 N 
ATOM     13  H1  UNL     1      -3.926   7.126  12.470  1.00  0.00     0.197 HD
BRANCH  12  14
HETATM   14  N2  UNL     1      -3.999   6.527  10.619  1.00  0.00    -0.248 NA
BRANCH  14  15
HETATM   15  N3  UNL     1      -4.576   6.467   9.516  1.00  0.00    -0.261 N 
ATOM     16  H32 UNL     1      -4.419   5.464   9.411  1.00  0.00     0.193 HD
ATOM     17  H31 UNL     1      -5.081   6.694   8.659  1.00  0.00     0.193 HD
ENDBRANCH  14  15
ENDBRANCH  12  14
ENDBRANCH   7  12
BRANCH   6  18
HETATM   18  O5  UNL     1      -5.042   4.123  11.616  1.00  0.00    -0.391 OA
ATOM     19  H5  UNL     1      -5.510   4.470  12.366  1.00  0.00     0.210 HD
ENDBRANCH   6  18
BRANCH   8  20
HETATM   20  C10 UNL     1      -2.312   6.749  14.072  1.00  0.00     0.173 C 
BRANCH  20  21
HETATM   21  O6  UNL     1      -3.420   7.370  14.654  1.00  0.00    -0.400 OA
ATOM     22  H6  UNL     1      -3.134   7.903  15.387  1.00  0.00     0.209 HD
ENDBRANCH  20  21
ENDBRANCH   8  20
BRANCH   1  23
HETATM   23  O2  UNL     1      -6.213   2.502  15.269  1.00  0.00    -0.302 OA
BRANCH  23  24
HETATM   24  C3  UNL     1      -6.789   2.463  16.528  1.00  0.00     0.259 C 
HETATM   25  O1  UNL     1      -6.987   3.558  17.100  1.00  0.00    -0.265 OA
BRANCH  24  26
HETATM   26  C2  UNL     1      -7.174   1.215  17.218  1.00  0.00     0.106 C 
HETATM   27  C1  UNL     1      -5.914   0.547  17.711  1.00  0.00     0.015 C 
ENDBRANCH  24  26
ENDBRANCH  23  24
ENDBRANCH   1  23
TORSDOF 9
ENDMDL
MODEL 5
REMARK VINA RESULT: -5.721024948      2.422      3.693
REMARK  9 active torsions:
REMARK  status: ('A' for Active; 'I' for Inactive)
REMARK    1  A    between atoms: C2_2  and  C3_3 
REMARK    2  A    between atoms: C3_3  and  O2_5 
REMARK    3  A    between atoms: O2_5  and  C4_6 
REMARK    4  A    between atoms: C7_11  and  O5_12 
REMARK    5  A    between atoms: C8_14  and  N1_15 
REMARK    6  A    between atoms: N1_15  and  N2_17 
REMARK    7  A    between atoms: N2_17  and  N3_18 
REMARK    8  A    between atoms: C9_21  and  C10_22 
REMARK    9  A    between atoms: C10_22  and  O6_23 
ROOT
HETATM    1  C4  UNL     1      -4.662   3.264  14.563  1.00  0.00     0.271 C 
HETATM    2  C5  UNL     1      -5.651   4.304  14.960  1.00  0.00     0.292 C 
HETATM    3  O3  UNL     1      -6.796   4.040  15.461  1.00  0.00    -0.262 OA
HETATM    4  O4  UNL     1      -5.097   5.546  14.687  1.00  0.00    -0.308 OA
HETATM    5  C6  UNL     1      -4.312   5.413  13.544  1.00  0.00     0.203 C 
HETATM    6  C7  UNL     1      -3.181   6.396  13.454  1.00  0.00     0.176 C 
HETATM    7  C8  UNL     1      -2.354   6.071  12.245  1.00  0.00     0.154 C 
HETATM    8  C9  UNL     1      -2.641   4.720  11.662  1.00  0.00     0.069 C 
HETATM    9  C11 UNL     1      -2.875   3.655  12.705  1.00  0.00     0.171 A 
HETATM   10  O7  UNL     1      -2.335   3.939  13.944  1.00  0.00    -0.362 OA
HETATM   11  C12 UNL     1      -3.691   4.035  13.741  1.00  0.00     0.152 A 
ENDROOT
BRANCH   7  12
HETATM   12  N1  UNL     1      -0.936   6.287  12.471  1.00  0.00    -0.245 N 
ATOM     13  H1  UNL     1      -0.292   5.508  12.333  1.00  0.00     0.197 HD
BRANCH  12  14
HETATM   14  N2  UNL     1      -0.479   7.382  12.825  1.00  0.00    -0.248 NA
BRANCH  14  15
HETATM   15  N3  UNL     1      -0.234   8.435  13.446  1.00  0.00    -0.261 N 
ATOM     16  H32 UNL     1      -0.502   8.045  14.350  1.00  0.00     0.193 HD
ATOM     17  H31 UNL     1       0.035   9.387  13.696  1.00  0.00     0.193 HD
ENDBRANCH  14  15
ENDBRANCH  12  14
ENDBRANCH   7  12
BRANCH   6  18
HETATM   18  O5  UNL     1      -2.451   6.397  14.636  1.00  0.00    -0.391 OA
ATOM     19  H5  UNL     1      -1.662   6.917  14.534  1.00  0.00     0.210 HD
ENDBRANCH   6  18
BRANCH   8  20
HETATM   20  C10 UNL     1      -1.514   4.350  10.723  1.00  0.00     0.173 C 
BRANCH  20  21
HETATM   21  O6  UNL     1      -0.592   3.549  11.400  1.00  0.00    -0.400 OA
ATOM     22  H6  UNL     1       0.244   3.998  11.442  1.00  0.00     0.209 HD
ENDBRANCH  20  21
ENDBRANCH   8  20
BRANCH   1  23
HETATM   23  O2  UNL     1      -4.111   2.747  15.760  1.00  0.00    -0.302 OA
BRANCH  23  24
HETATM   24  C3  UNL     1      -4.379   1.471  16.230  1.00  0.00     0.259 C 
HETATM   25  O1  UNL     1      -3.422   0.665  16.274  1.00  0.00    -0.265 OA
BRANCH  24  26
HETATM   26  C2  UNL     1      -5.713   1.023  16.676  1.00  0.00     0.106 C 
HETATM   27  C1  UNL     1      -6.041   1.740  17.963  1.00  0.00     0.015 C 
ENDBRANCH  24  26
ENDBRANCH  23  24
ENDBRANCH   1  23
TORSDOF 9
ENDMDL
