MODEL 1
REMARK VINA RESULT: -6.286249677      0.000      0.000
REMARK  8 active torsions:
REMARK  status: ('A' for Active; 'I' for Inactive)
REMARK    1  A    between atoms: C2_2  and  O2_4 
REMARK    2  A    between atoms: O2_4  and  C3_5 
REMARK    3  A    between atoms: C6_8  and  C7_9 
REMARK    4  A    between atoms: C7_9  and  O3_10 
REMARK    5  A    between atoms: C10_15  and  O5_16 
REMARK    6  A    between atoms: C11_18  and  O6_19 
REMARK    7  A    between atoms: O6_19  and  C12_20 
REMARK    8  A    between atoms: C12_20  and  C13_22 
ROOT
HETATM    1  C3  UNL     1      -4.206   2.853  14.014  1.00  0.00     0.170 C 
HETATM    2  C4  UNL     1      -3.815   4.017  14.911  1.00  0.00     0.050 C 
HETATM    3  C5  UNL     1      -2.569   4.635  14.387  1.00  0.00     0.018 C 
HETATM    4  C6  UNL     1      -2.405   6.086  14.724  1.00  0.00     0.034 C 
HETATM    5  C8  UNL     1      -3.670   6.806  15.000  1.00  0.00     0.175 C 
HETATM    6  O4  UNL     1      -4.832   6.207  14.650  1.00  0.00    -0.382 OA
HETATM    7  C9  UNL     1      -5.017   4.904  14.930  1.00  0.00     0.159 C 
HETATM    8  C10 UNL     1      -6.079   4.232  14.070  1.00  0.00     0.179 C 
HETATM    9  C11 UNL     1      -5.152   3.503  13.083  1.00  0.00     0.193 C 
ENDROOT
BRANCH   9  10
HETATM   10  O6  UNL     1      -4.657   4.288  12.091  1.00  0.00    -0.310 OA
BRANCH  10  11
HETATM   11  C12 UNL     1      -4.115   3.892  10.900  1.00  0.00     0.262 C 
HETATM   12  O7  UNL     1      -4.594   2.893  10.356  1.00  0.00    -0.265 OA
BRANCH  11  13
HETATM   13  C13 UNL     1      -2.989   4.631  10.273  1.00  0.00     0.077 C 
HETATM   14  C14 UNL     1      -1.680   4.276  10.941  1.00  0.00     0.020 C 
HETATM   15  C15 UNL     1      -2.880   4.364   8.788  1.00  0.00     0.020 C 
ENDBRANCH  11  13
ENDBRANCH  10  11
ENDBRANCH   9  10
BRANCH   1  16
HETATM   16  O2  UNL     1      -4.651   1.755  14.717  1.00  0.00    -0.313 OA
BRANCH  16  17
HETATM   17  C2  UNL     1      -4.409   1.573  16.043  1.00  0.00     0.255 C 
HETATM   18  C1  UNL     1      -5.401   1.713  17.133  1.00  0.00     0.126 C 
HETATM   19  O1  UNL     1      -3.228   1.261  16.334  1.00  0.00    -0.266 OA
ENDBRANCH  16  17
ENDBRANCH   1  16
BRANCH   8  20
HETATM   20  O5  UNL     1      -6.942   5.084  13.476  1.00  0.00    -0.390 OA
ATOM     21  H5  UNL     1      -7.826   4.749  13.382  1.00  0.00     0.210 HD
ENDBRANCH   8  20
BRANCH   4  22
HETATM   22  C7  UNL     1      -1.712   6.781  13.549  1.00  0.00     0.170 C 
BRANCH  22  23
HETATM   23  O3  UNL     1      -2.652   7.281  12.648  1.00  0.00    -0.400 OA
ATOM     24  H3  UNL     1      -2.719   6.716  11.887  1.00  0.00     0.209 HD
ENDBRANCH  22  23
ENDBRANCH   4  22
TORSDOF 8
ENDMDL
MODEL 2
REMARK VINA RESULT: -6.117354096      1.440      2.082
REMARK  8 active torsions:
REMARK  status: ('A' for Active; 'I' for Inactive)
REMARK    1  A    between atoms: C2_2  and  O2_4 
REMARK    2  A    between atoms: O2_4  and  C3_5 
REMARK    3  A    between atoms: C6_8  and  C7_9 
REMARK    4  A    between atoms: C7_9  and  O3_10 
REMARK    5  A    between atoms: C10_15  and  O5_16 
REMARK    6  A    between atoms: C11_18  and  O6_19 
REMARK    7  A    between atoms: O6_19  and  C12_20 
REMARK    8  A    between atoms: C12_20  and  C13_22 
ROOT
HETATM    1  C3  UNL     1      -4.486   3.348  14.816  1.00  0.00     0.170 C 
HETATM    2  C4  UNL     1      -3.717   4.630  15.097  1.00  0.00     0.050 C 
HETATM    3  C5  UNL     1      -2.427   4.592  14.360  1.00  0.00     0.018 C 
HETATM    4  C6  UNL     1      -1.871   5.940  14.011  1.00  0.00     0.034 C 
HETATM    5  C8  UNL     1      -2.877   7.023  13.927  1.00  0.00     0.175 C 
HETATM    6  O4  UNL     1      -4.184   6.675  13.874  1.00  0.00    -0.382 OA
HETATM    7  C9  UNL     1      -4.651   5.729  14.708  1.00  0.00     0.159 C 
HETATM    8  C10 UNL     1      -5.940   5.069  14.234  1.00  0.00     0.179 C 
HETATM    9  C11 UNL     1      -5.344   3.763  13.685  1.00  0.00     0.193 C 
ENDROOT
BRANCH   9  10
HETATM   10  O6  UNL     1      -4.790   3.871  12.450  1.00  0.00    -0.310 OA
BRANCH  10  11
HETATM   11  C12 UNL     1      -4.683   2.903  11.490  1.00  0.00     0.262 C 
HETATM   12  O7  UNL     1      -4.044   3.175  10.470  1.00  0.00    -0.265 OA
BRANCH  11  13
HETATM   13  C13 UNL     1      -5.308   1.567  11.660  1.00  0.00     0.077 C 
HETATM   14  C14 UNL     1      -5.552   0.917  10.316  1.00  0.00     0.020 C 
HETATM   15  C15 UNL     1      -4.472   0.643  12.517  1.00  0.00     0.020 C 
ENDBRANCH  11  13
ENDBRANCH  10  11
ENDBRANCH   9  10
BRANCH   1  16
HETATM   16  O2  UNL     1      -5.104   2.832  15.933  1.00  0.00    -0.313 OA
BRANCH  16  17
HETATM   17  C2  UNL     1      -4.752   1.644  16.494  1.00  0.00     0.255 C 
HETATM   18  C1  UNL     1      -5.652   0.742  17.250  1.00  0.00     0.126 C 
HETATM   19  O1  UNL     1      -3.551   1.313  16.340  1.00  0.00    -0.266 OA
ENDBRANCH  16  17
ENDBRANCH   1  16
BRANCH   8  20
HETATM   20  O5  UNL     1      -6.629   5.780  13.315  1.00  0.00    -0.390 OA
ATOM     21  H5  UNL     1      -7.077   6.543  13.660  1.00  0.00     0.210 HD
ENDBRANCH   8  20
BRANCH   4  22
HETATM   22  C7  UNL     1      -1.170   5.838  12.654  1.00  0.00     0.170 C 
BRANCH  22  23
HETATM   23  O3  UNL     1      -2.041   5.342  11.685  1.00  0.00    -0.400 OA
ATOM     24  H3  UNL     1      -1.566   5.098  10.900  1.00  0.00     0.209 HD
ENDBRANCH  22  23
ENDBRANCH   4  22
TORSDOF 8
ENDMDL
MODEL 3
REMARK VINA RESULT: -6.095075797      1.990      3.692
REMARK  8 active torsions:
REMARK  status: ('A' for Active; 'I' for Inactive)
REMARK    1  A    between atoms: C2_2  and  O2_4 
REMARK    2  A    between atoms: O2_4  and  C3_5 
REMARK    3  A    between atoms: C6_8  and  C7_9 
REMARK    4  A    between atoms: C7_9  and  O3_10 
REMARK    5  A    between atoms: C10_15  and  O5_16 
REMARK    6  A    between atoms: C11_18  and  O6_19 
REMARK    7  A    between atoms: O6_19  and  C12_20 
REMARK    8  A    between atoms: C12_20  and  C13_22 
ROOT
HETATM    1  C3  UNL     1      -3.684   3.918  14.062  1.00  0.00     0.170 C 
HETATM    2  C4  UNL     1      -2.435   4.174  13.232  1.00  0.00     0.050 C 
HETATM    3  C5  UNL     1      -2.704   3.788  11.822  1.00  0.00     0.018 C 
HETATM    4  C6  UNL     1      -1.882   4.525  10.808  1.00  0.00     0.034 C 
HETATM    5  C8  UNL     1      -1.380   5.844  11.257  1.00  0.00     0.175 C 
HETATM    6  O4  UNL     1      -1.924   6.386  12.371  1.00  0.00    -0.382 OA
HETATM    7  C9  UNL     1      -2.116   5.616  13.457  1.00  0.00     0.159 C 
HETATM    8  C10 UNL     1      -3.162   6.157  14.422  1.00  0.00     0.179 C 
HETATM    9  C11 UNL     1      -4.336   5.245  14.029  1.00  0.00     0.193 C 
ENDROOT
BRANCH   9  10
HETATM   10  O6  UNL     1      -4.990   5.623  12.900  1.00  0.00    -0.310 OA
BRANCH  10  11
HETATM   11  C12 UNL     1      -6.110   6.400  12.799  1.00  0.00     0.262 C 
HETATM   12  O7  UNL     1      -7.020   6.201  13.610  1.00  0.00    -0.265 OA
BRANCH  11  13
HETATM   13  C13 UNL     1      -6.239   7.449  11.756  1.00  0.00     0.077 C 
HETATM   14  C14 UNL     1      -5.803   6.919  10.409  1.00  0.00     0.020 C 
HETATM   15  C15 UNL     1      -7.649   7.986  11.649  1.00  0.00     0.020 C 
ENDBRANCH  11  13
ENDBRANCH  10  11
ENDBRANCH   9  10
BRANCH   1  16
HETATM   16  O2  UNL     1      -3.410   3.370  15.296  1.00  0.00    -0.313 OA
BRANCH  16  17
HETATM   17  C2  UNL     1      -4.108   2.326  15.816  1.00  0.00     0.255 C 
HETATM   18  C1  UNL     1      -5.584   2.210  15.868  1.00  0.00     0.126 C 
HETATM   19  O1  UNL     1      -3.410   1.395  16.287  1.00  0.00    -0.266 OA
ENDBRANCH  16  17
ENDBRANCH   1  16
BRANCH   8  20
HETATM   20  O5  UNL     1      -3.428   7.474  14.281  1.00  0.00    -0.390 OA
ATOM     21  H5  UNL     1      -4.353   7.692  14.275  1.00  0.00     0.210 HD
ENDBRANCH   8  20
BRANCH   4  22
HETATM   22  C7  UNL     1      -2.737   4.745   9.558  1.00  0.00     0.170 C 
BRANCH  22  23
HETATM   23  O3  UNL     1      -3.333   3.551   9.153  1.00  0.00    -0.400 OA
ATOM     24  H3  UNL     1      -3.805   3.151   9.873  1.00  0.00     0.209 HD
ENDBRANCH  22  23
ENDBRANCH   4  22
TORSDOF 8
ENDMDL
MODEL 4
REMARK VINA RESULT: -6.060235260      0.927      1.224
REMARK  8 active torsions:
REMARK  status: ('A' for Active; 'I' for Inactive)
REMARK    1  A    between atoms: C2_2  and  O2_4 
REMARK    2  A    between atoms: O2_4  and  C3_5 
REMARK    3  A    between atoms: C6_8  and  C7_9 
REMARK    4  A    between atoms: C7_9  and  O3_10 
REMARK    5  A    between atoms: C10_15  and  O5_16 
REMARK    6  A    between atoms: C11_18  and  O6_19 
REMARK    7  A    between atoms: O6_19  and  C12_20 
REMARK    8  A    between atoms: C12_20  and  C13_22 
ROOT
HETATM    1  C3  UNL     1      -3.883   3.007  14.043  1.00  0.00     0.170 C 
HETATM    2  C4  UNL     1      -3.538   4.247  14.854  1.00  0.00     0.050 C 
HETATM    3  C5  UNL     1      -2.397   4.946  14.206  1.00  0.00     0.018 C 
HETATM    4  C6  UNL     1      -2.346   6.422  14.464  1.00  0.00     0.034 C 
HETATM    5  C8  UNL     1      -3.648   7.038  14.806  1.00  0.00     0.175 C 
HETATM    6  O4  UNL     1      -4.772   6.320  14.575  1.00  0.00    -0.382 OA
HETATM    7  C9  UNL     1      -4.813   5.022  14.927  1.00  0.00     0.159 C 
HETATM    8  C10 UNL     1      -5.868   4.213  14.184  1.00  0.00     0.179 C 
HETATM    9  C11 UNL     1      -4.953   3.521  13.161  1.00  0.00     0.193 C 
ENDROOT
BRANCH   9  10
HETATM   10  O6  UNL     1      -4.608   4.294  12.099  1.00  0.00    -0.310 OA
BRANCH  10  11
HETATM   11  C12 UNL     1      -4.100   3.889  10.896  1.00  0.00     0.262 C 
HETATM   12  O7  UNL     1      -4.587   2.881  10.378  1.00  0.00    -0.265 OA
BRANCH  11  13
HETATM   13  C13 UNL     1      -3.000   4.631  10.227  1.00  0.00     0.077 C 
HETATM   14  C14 UNL     1      -1.670   4.308  10.871  1.00  0.00     0.020 C 
HETATM   15  C15 UNL     1      -2.923   4.335   8.746  1.00  0.00     0.020 C 
ENDBRANCH  11  13
ENDBRANCH  10  11
ENDBRANCH   9  10
BRANCH   1  16
HETATM   16  O2  UNL     1      -4.171   1.911  14.827  1.00  0.00    -0.313 OA
BRANCH  16  17
HETATM   17  C2  UNL     1      -4.432   0.679  14.314  1.00  0.00     0.255 C 
HETATM   18  C1  UNL     1      -4.223   0.263  12.909  1.00  0.00     0.126 C 
HETATM   19  O1  UNL     1      -4.892  -0.155  15.132  1.00  0.00    -0.266 OA
ENDBRANCH  16  17
ENDBRANCH   1  16
BRANCH   8  20
HETATM   20  O5  UNL     1      -6.849   4.952  13.622  1.00  0.00    -0.390 OA
ATOM     21  H5  UNL     1      -7.252   4.557  12.858  1.00  0.00     0.210 HD
ENDBRANCH   8  20
BRANCH   4  22
HETATM   22  C7  UNL     1      -1.810   7.115  13.208  1.00  0.00     0.170 C 
BRANCH  22  23
HETATM   23  O3  UNL     1      -2.854   7.451  12.348  1.00  0.00    -0.400 OA
ATOM     24  H3  UNL     1      -2.671   8.269  11.902  1.00  0.00     0.209 HD
ENDBRANCH  22  23
ENDBRANCH   4  22
TORSDOF 8
ENDMDL
MODEL 5
REMARK VINA RESULT: -6.024508500      1.562      2.262
REMARK  8 active torsions:
REMARK  status: ('A' for Active; 'I' for Inactive)
REMARK    1  A    between atoms: C2_2  and  O2_4 
REMARK    2  A    between atoms: O2_4  and  C3_5 
REMARK    3  A    between atoms: C6_8  and  C7_9 
REMARK    4  A    between atoms: C7_9  and  O3_10 
REMARK    5  A    between atoms: C10_15  and  O5_16 
REMARK    6  A    between atoms: C11_18  and  O6_19 
REMARK    7  A    between atoms: O6_19  and  C12_20 
REMARK    8  A    between atoms: C12_20  and  C13_22 
ROOT
HETATM    1  C3  UNL     1      -3.975   2.711  14.303  1.00  0.00     0.170 C 
HETATM    2  C4  UNL     1      -4.872   3.932  14.433  1.00  0.00     0.050 C 
HETATM    3  C5  UNL     1      -4.102   5.034  15.068  1.00  0.00     0.018 C 
HETATM    4  C6  UNL     1      -4.574   6.410  14.706  1.00  0.00     0.034 C 
HETATM    5  C8  UNL     1      -5.297   6.500  13.417  1.00  0.00     0.175 C 
HETATM    6  O4  UNL     1      -5.216   5.449  12.568  1.00  0.00    -0.382 OA
HETATM    7  C9  UNL     1      -5.356   4.199  13.045  1.00  0.00     0.159 C 
HETATM    8  C10 UNL     1      -4.754   3.124  12.150  1.00  0.00     0.179 C 
HETATM    9  C11 UNL     1      -3.452   2.875  12.929  1.00  0.00     0.193 C 
ENDROOT
BRANCH   9  10
HETATM   10  O6  UNL     1      -2.477   3.794  12.706  1.00  0.00    -0.310 OA
BRANCH  10  11
HETATM   11  C12 UNL     1      -1.365   3.663  11.922  1.00  0.00     0.262 C 
HETATM   12  O7  UNL     1      -0.579   2.750  12.188  1.00  0.00    -0.265 OA
BRANCH  11  13
HETATM   13  C13 UNL     1      -1.102   4.583  10.785  1.00  0.00     0.077 C 
HETATM   14  C14 UNL     1      -1.917   5.849  10.924  1.00  0.00     0.020 C 
HETATM   15  C15 UNL     1       0.362   4.943  10.662  1.00  0.00     0.020 C 
ENDBRANCH  11  13
ENDBRANCH  10  11
ENDBRANCH   9  10
BRANCH   1  16
HETATM   16  O2  UNL     1      -4.619   1.532  14.607  1.00  0.00    -0.313 OA
BRANCH  16  17
HETATM   17  C2  UNL     1      -4.669   1.016  15.864  1.00  0.00     0.255 C 
HETATM   18  C1  UNL     1      -5.868   0.961  16.731  1.00  0.00     0.126 C 
HETATM   19  O1  UNL     1      -3.585   0.555  16.298  1.00  0.00    -0.266 OA
ENDBRANCH  16  17
ENDBRANCH   1  16
BRANCH   8  20
HETATM   20  O5  UNL     1      -4.555   3.507  10.870  1.00  0.00    -0.390 OA
ATOM     21  H5  UNL     1      -3.948   4.229  10.763  1.00  0.00     0.210 HD
ENDBRANCH   8  20
BRANCH   4  22
HETATM   22  C7  UNL     1      -3.355   7.335  14.631  1.00  0.00     0.170 C 
BRANCH  22  23
HETATM   23  O3  UNL     1      -2.208   6.613  14.310  1.00  0.00    -0.400 OA
ATOM     24  H3  UNL     1      -2.420   5.702  14.145  1.00  0.00     0.209 HD
ENDBRANCH  22  23
ENDBRANCH   4  22
TORSDOF 8
ENDMDL
