MODEL 1
REMARK VINA RESULT: -5.935791645      0.000      0.000
REMARK  3 active torsions:
REMARK  status: ('A' for Active; 'I' for Inactive)
REMARK    1  A    between atoms: O1_2  and  C2_3 
REMARK    2  A    between atoms: N1_8  and  C6_9 
REMARK    3  A    between atoms: C10_16  and  O3_17 
ROOT
HETATM    1  C6  UNL     1      -5.716   3.212  13.008  1.00  0.00     0.453 C 
HETATM    2  N2  UNL     1      -5.340   2.903  14.346  1.00  0.00    -0.041 N 
ATOM      3  H21 UNL     1      -4.351   3.100  14.503  1.00  0.00     0.279 HD
ATOM      4  H22 UNL     1      -5.333   1.894  14.500  1.00  0.00     0.279 HD
HETATM    5  C7  UNL     1      -6.152   3.562  15.315  1.00  0.00     0.235 C 
HETATM    6  C8  UNL     1      -6.336   5.035  15.038  1.00  0.00     0.030 C 
HETATM    7  C9  UNL     1      -6.718   5.337  13.628  1.00  0.00     0.037 C 
HETATM    8  C10 UNL     1      -5.698   4.697  12.692  1.00  0.00     0.179 C 
ENDROOT
BRANCH   1   9
HETATM    9  N1  UNL     1      -5.152   2.402  11.980  1.00  0.00     0.179 N 
HETATM   10  C2  UNL     1      -4.499   1.226  12.564  1.00  0.00     0.510 C 
HETATM   11  O2  UNL     1      -3.170   1.369  12.393  1.00  0.00    -0.330 OA
HETATM   12  C3  UNL     1      -2.906   2.476  11.608  1.00  0.00     0.151 C 
HETATM   13  C4  UNL     1      -2.038   2.193  10.402  1.00  0.00     0.041 C 
HETATM   14  C5  UNL     1      -4.232   2.992  11.091  1.00  0.00     0.313 C 
BRANCH  10  15
HETATM   15  O1  UNL     1      -4.974   0.126  11.855  1.00  0.00    -0.342 OA
HETATM   16  C1  UNL     1      -4.094  -0.959  12.058  1.00  0.00     0.206 C 
ENDBRANCH  10  15
ENDBRANCH   1   9
BRANCH   8  17
HETATM   17  O3  UNL     1      -4.478   5.272  12.953  1.00  0.00    -0.392 OA
ATOM     18  H3  UNL     1      -4.437   5.654  13.822  1.00  0.00     0.210 HD
ENDBRANCH   8  17
TORSDOF 3
ENDMDL
MODEL 2
REMARK VINA RESULT: -5.897244186      1.249      1.312
REMARK  3 active torsions:
REMARK  status: ('A' for Active; 'I' for Inactive)
REMARK    1  A    between atoms: O1_2  and  C2_3 
REMARK    2  A    between atoms: N1_8  and  C6_9 
REMARK    3  A    between atoms: C10_16  and  O3_17 
ROOT
HETATM    1  C6  UNL     1      -4.662   2.718  12.985  1.00  0.00     0.453 C 
HETATM    2  N2  UNL     1      -3.579   3.418  13.590  1.00  0.00    -0.041 N 
ATOM      3  H21 UNL     1      -3.210   4.132  12.963  1.00  0.00     0.279 HD
ATOM      4  H22 UNL     1      -2.754   2.822  13.666  1.00  0.00     0.279 HD
HETATM    5  C7  UNL     1      -3.923   3.978  14.856  1.00  0.00     0.235 C 
HETATM    6  C8  UNL     1      -5.231   4.733  14.840  1.00  0.00     0.030 C 
HETATM    7  C9  UNL     1      -6.346   3.986  14.191  1.00  0.00     0.037 C 
HETATM    8  C10 UNL     1      -5.909   3.561  12.794  1.00  0.00     0.179 C 
ENDROOT
BRANCH   1   9
HETATM    9  N1  UNL     1      -4.346   1.899  11.862  1.00  0.00     0.179 N 
HETATM   10  C2  UNL     1      -3.767   0.627  12.310  1.00  0.00     0.510 C 
HETATM   11  O2  UNL     1      -2.467   0.623  11.957  1.00  0.00    -0.330 OA
HETATM   12  C3  UNL     1      -2.179   1.730  11.180  1.00  0.00     0.151 C 
HETATM   13  C4  UNL     1      -1.525   1.408   9.855  1.00  0.00     0.041 C 
HETATM   14  C5  UNL     1      -3.490   2.421  10.872  1.00  0.00     0.313 C 
BRANCH  10  15
HETATM   15  O1  UNL     1      -4.465  -0.374  11.638  1.00  0.00    -0.342 OA
HETATM   16  C1  UNL     1      -3.714  -1.567  11.697  1.00  0.00     0.206 C 
ENDBRANCH  10  15
ENDBRANCH   1   9
BRANCH   8  17
HETATM   17  O3  UNL     1      -5.662   4.703  12.071  1.00  0.00    -0.392 OA
ATOM     18  H3  UNL     1      -5.226   5.370  12.588  1.00  0.00     0.210 HD
ENDBRANCH   8  17
TORSDOF 3
ENDMDL
MODEL 3
REMARK VINA RESULT: -5.896518986      1.713      2.474
REMARK  3 active torsions:
REMARK  status: ('A' for Active; 'I' for Inactive)
REMARK    1  A    between atoms: O1_2  and  C2_3 
REMARK    2  A    between atoms: N1_8  and  C6_9 
REMARK    3  A    between atoms: C10_16  and  O3_17 
ROOT
HETATM    1  C6  UNL     1      -5.049   3.349  12.206  1.00  0.00     0.453 C 
HETATM    2  N2  UNL     1      -5.276   4.026  10.973  1.00  0.00    -0.041 N 
ATOM      3  H21 UNL     1      -6.232   3.881  10.647  1.00  0.00     0.279 HD
ATOM      4  H22 UNL     1      -4.771   3.575  10.210  1.00  0.00     0.279 HD
HETATM    5  C7  UNL     1      -4.965   5.415  11.042  1.00  0.00     0.235 C 
HETATM    6  C8  UNL     1      -5.551   6.101  12.253  1.00  0.00     0.030 C 
HETATM    7  C9  UNL     1      -5.312   5.369  13.530  1.00  0.00     0.037 C 
HETATM    8  C10 UNL     1      -5.813   3.936  13.379  1.00  0.00     0.179 C 
ENDROOT
BRANCH   1   9
HETATM    9  N1  UNL     1      -5.067   1.925  12.167  1.00  0.00     0.179 N 
HETATM   10  C2  UNL     1      -4.114   1.380  13.140  1.00  0.00     0.510 C 
HETATM   11  O2  UNL     1      -3.101   0.818  12.450  1.00  0.00    -0.330 OA
HETATM   12  C3  UNL     1      -3.386   0.818  11.097  1.00  0.00     0.151 C 
HETATM   13  C4  UNL     1      -3.285  -0.539  10.439  1.00  0.00     0.041 C 
HETATM   14  C5  UNL     1      -4.817   1.285  10.936  1.00  0.00     0.313 C 
BRANCH  10  15
HETATM   15  O1  UNL     1      -4.810   0.418  13.867  1.00  0.00    -0.342 OA
HETATM   16  C1  UNL     1      -4.534   0.600  15.240  1.00  0.00     0.206 C 
ENDBRANCH  10  15
ENDBRANCH   1   9
BRANCH   8  17
HETATM   17  O3  UNL     1      -7.166   3.992  13.148  1.00  0.00    -0.392 OA
ATOM     18  H3  UNL     1      -7.669   3.604  13.853  1.00  0.00     0.210 HD
ENDBRANCH   8  17
TORSDOF 3
ENDMDL
MODEL 4
REMARK VINA RESULT: -5.807836498      1.442      1.928
REMARK  3 active torsions:
REMARK  status: ('A' for Active; 'I' for Inactive)
REMARK    1  A    between atoms: O1_2  and  C2_3 
REMARK    2  A    between atoms: N1_8  and  C6_9 
REMARK    3  A    between atoms: C10_16  and  O3_17 
ROOT
HETATM    1  C6  UNL     1      -4.851   3.814  12.084  1.00  0.00     0.453 C 
HETATM    2  N2  UNL     1      -5.271   4.904  11.269  1.00  0.00    -0.041 N 
ATOM      3  H21 UNL     1      -6.157   4.696  10.809  1.00  0.00     0.279 HD
ATOM      4  H22 UNL     1      -4.675   4.995  10.445  1.00  0.00     0.279 HD
HETATM    5  C7  UNL     1      -5.343   6.134  11.986  1.00  0.00     0.235 C 
HETATM    6  C8  UNL     1      -6.071   6.017  13.303  1.00  0.00     0.030 C 
HETATM    7  C9  UNL     1      -5.624   4.863  14.134  1.00  0.00     0.037 C 
HETATM    8  C10 UNL     1      -5.724   3.587  13.305  1.00  0.00     0.179 C 
ENDROOT
BRANCH   1   9
HETATM    9  N1  UNL     1      -4.486   2.613  11.410  1.00  0.00     0.179 N 
HETATM   10  C2  UNL     1      -4.198   1.554  12.382  1.00  0.00     0.510 C 
HETATM   11  O2  UNL     1      -2.874   1.307  12.338  1.00  0.00    -0.330 OA
HETATM   12  C3  UNL     1      -2.289   2.016  11.306  1.00  0.00     0.151 C 
HETATM   13  C4  UNL     1      -1.483   1.170  10.347  1.00  0.00     0.041 C 
HETATM   14  C5  UNL     1      -3.405   2.655  10.506  1.00  0.00     0.313 C 
BRANCH  10  15
HETATM   15  O1  UNL     1      -4.923   0.440  11.967  1.00  0.00    -0.342 OA
HETATM   16  C1  UNL     1      -4.216  -0.725  12.336  1.00  0.00     0.206 C 
ENDBRANCH  10  15
ENDBRANCH   1   9
BRANCH   8  17
HETATM   17  O3  UNL     1      -7.046   3.410  12.975  1.00  0.00    -0.392 OA
ATOM     18  H3  UNL     1      -7.630   3.636  13.689  1.00  0.00     0.210 HD
ENDBRANCH   8  17
TORSDOF 3
ENDMDL
MODEL 5
REMARK VINA RESULT: -5.790397615      1.723      4.685
REMARK  3 active torsions:
REMARK  status: ('A' for Active; 'I' for Inactive)
REMARK    1  A    between atoms: O1_2  and  C2_3 
REMARK    2  A    between atoms: N1_8  and  C6_9 
REMARK    3  A    between atoms: C10_16  and  O3_17 
ROOT
HETATM    1  C6  UNL     1      -2.856   2.432  10.985  1.00  0.00     0.453 C 
HETATM    2  N2  UNL     1      -2.804   3.752  10.452  1.00  0.00    -0.041 N 
ATOM      3  H21 UNL     1      -2.341   4.389  11.100  1.00  0.00     0.279 HD
ATOM      4  H22 UNL     1      -3.732   4.177  10.437  1.00  0.00     0.279 HD
HETATM    5  C7  UNL     1      -2.198   3.802   9.163  1.00  0.00     0.235 C 
HETATM    6  C8  UNL     1      -0.897   3.041   9.084  1.00  0.00     0.030 C 
HETATM    7  C9  UNL     1      -0.971   1.667   9.658  1.00  0.00     0.037 C 
HETATM    8  C10 UNL     1      -1.501   1.755  11.085  1.00  0.00     0.179 C 
ENDROOT
BRANCH   1   9
HETATM    9  N1  UNL     1      -3.680   2.236  12.132  1.00  0.00     0.179 N 
HETATM   10  C2  UNL     1      -4.827   1.387  11.792  1.00  0.00     0.510 C 
HETATM   11  O2  UNL     1      -5.932   2.157  11.836  1.00  0.00    -0.330 OA
HETATM   12  C3  UNL     1      -5.621   3.413  12.324  1.00  0.00     0.151 C 
HETATM   13  C4  UNL     1      -6.463   3.850  13.501  1.00  0.00     0.041 C 
HETATM   14  C5  UNL     1      -4.183   3.372  12.796  1.00  0.00     0.313 C 
BRANCH  10  15
HETATM   15  O1  UNL     1      -4.877   0.395  12.768  1.00  0.00    -0.342 OA
HETATM   16  C1  UNL     1      -4.207  -0.750  12.284  1.00  0.00     0.206 C 
ENDBRANCH  10  15
ENDBRANCH   1   9
BRANCH   8  17
HETATM   17  O3  UNL     1      -0.601   2.493  11.816  1.00  0.00    -0.392 OA
ATOM     18  H3  UNL     1      -0.526   3.386  11.502  1.00  0.00     0.210 HD
ENDBRANCH   8  17
TORSDOF 3
ENDMDL
