MODEL 1
REMARK VINA RESULT: -6.400394430      0.000      0.000
REMARK  4 active torsions:
REMARK  status: ('A' for Active; 'I' for Inactive)
REMARK    1  A    between atoms: C2_5  and  O3_6 
REMARK    2  A    between atoms: O3_6  and  C3_7 
REMARK    3  A    between atoms: C4_8  and  O4_9 
REMARK    4  A    between atoms: C7_13  and  O5_14 
ROOT
HETATM    1  C3  UNL     1      -4.565   2.647  15.445  1.00  0.00     0.182 C 
HETATM    2  C4  UNL     1      -4.487   1.625  16.562  1.00  0.00     0.149 C 
HETATM    3  C5  UNL     1      -5.937   1.132  16.660  1.00  0.00     0.037 C 
HETATM    4  C6  UNL     1      -6.661   2.468  16.517  1.00  0.00     0.037 C 
HETATM    5  C7  UNL     1      -6.001   3.005  15.262  1.00  0.00     0.149 C 
ENDROOT
BRANCH   1   6
HETATM    6  O3  UNL     1      -3.938   2.107  14.365  1.00  0.00    -0.347 OA
BRANCH   6   7
HETATM    7  C2  UNL     1      -4.741   1.739  13.307  1.00  0.00     0.304 C 
HETATM    8  C1  UNL     1      -4.216   2.363  12.089  1.00  0.00     0.252 C 
HETATM    9  O2  UNL     1      -4.387   1.566  10.986  1.00  0.00    -0.269 OA
HETATM   10  S1  UNL     1      -4.327  -0.024  11.603  1.00  0.00     0.308 S 
HETATM   11  O1  UNL     1      -2.907  -0.598  11.471  1.00  0.00    -0.196 OA
HETATM   12  O6  UNL     1      -4.668   0.354  13.222  1.00  0.00    -0.239 OA
ENDBRANCH   6   7
ENDBRANCH   1   6
BRANCH   2  13
HETATM   13  O4  UNL     1      -3.641   0.577  16.275  1.00  0.00    -0.393 OA
ATOM     14  H4  UNL     1      -3.771  -0.172  16.846  1.00  0.00     0.210 HD
ENDBRANCH   2  13
BRANCH   5  15
HETATM   15  O5  UNL     1      -6.212   4.387  15.254  1.00  0.00    -0.393 OA
ATOM     16  H5  UNL     1      -7.016   4.630  14.812  1.00  0.00     0.210 HD
ENDBRANCH   5  15
TORSDOF 4
ENDMDL
MODEL 2
REMARK VINA RESULT: -6.338554274      2.670      5.057
REMARK  4 active torsions:
REMARK  status: ('A' for Active; 'I' for Inactive)
REMARK    1  A    between atoms: C2_5  and  O3_6 
REMARK    2  A    between atoms: O3_6  and  C3_7 
REMARK    3  A    between atoms: C4_8  and  O4_9 
REMARK    4  A    between atoms: C7_13  and  O5_14 
ROOT
HETATM    1  C3  UNL     1      -3.471   1.929  11.120  1.00  0.00     0.182 C 
HETATM    2  C4  UNL     1      -2.267   1.332  10.419  1.00  0.00     0.149 C 
HETATM    3  C5  UNL     1      -1.479   2.578   9.995  1.00  0.00     0.037 C 
HETATM    4  C6  UNL     1      -2.638   3.450   9.517  1.00  0.00     0.037 C 
HETATM    5  C7  UNL     1      -3.560   3.363  10.718  1.00  0.00     0.149 C 
ENDROOT
BRANCH   1   6
HETATM    6  O3  UNL     1      -3.321   1.687  12.450  1.00  0.00    -0.347 OA
BRANCH   6   7
HETATM    7  C2  UNL     1      -4.444   1.269  13.131  1.00  0.00     0.304 C 
HETATM    8  C1  UNL     1      -4.299  -0.158  13.432  1.00  0.00     0.252 C 
HETATM    9  O2  UNL     1      -4.869  -0.492  14.634  1.00  0.00    -0.269 OA
HETATM   10  S1  UNL     1      -4.719   0.922  15.577  1.00  0.00     0.308 S 
HETATM   11  O1  UNL     1      -3.459   0.852  16.455  1.00  0.00    -0.196 OA
HETATM   12  O6  UNL     1      -4.495   2.017  14.301  1.00  0.00    -0.239 OA
ENDBRANCH   6   7
ENDBRANCH   1   6
BRANCH   2  13
HETATM   13  O4  UNL     1      -1.503   0.538  11.245  1.00  0.00    -0.393 OA
ATOM     14  H4  UNL     1      -0.589   0.800  11.271  1.00  0.00     0.210 HD
ENDBRANCH   2  13
BRANCH   5  15
HETATM   15  O5  UNL     1      -4.837   3.716  10.272  1.00  0.00    -0.393 OA
ATOM     16  H5  UNL     1      -4.826   4.473   9.699  1.00  0.00     0.210 HD
ENDBRANCH   5  15
TORSDOF 4
ENDMDL
MODEL 3
REMARK VINA RESULT: -6.203260011      1.609      2.101
REMARK  4 active torsions:
REMARK  status: ('A' for Active; 'I' for Inactive)
REMARK    1  A    between atoms: C2_5  and  O3_6 
REMARK    2  A    between atoms: O3_6  and  C3_7 
REMARK    3  A    between atoms: C4_8  and  O4_9 
REMARK    4  A    between atoms: C7_13  and  O5_14 
ROOT
HETATM    1  C3  UNL     1      -4.389   1.251  14.329  1.00  0.00     0.182 C 
HETATM    2  C4  UNL     1      -4.661   0.780  15.744  1.00  0.00     0.149 C 
HETATM    3  C5  UNL     1      -5.865   1.639  16.153  1.00  0.00     0.037 C 
HETATM    4  C6  UNL     1      -5.422   2.977  15.566  1.00  0.00     0.037 C 
HETATM    5  C7  UNL     1      -5.087   2.557  14.148  1.00  0.00     0.149 C 
ENDROOT
BRANCH   1   6
HETATM    6  O3  UNL     1      -4.769   0.247  13.493  1.00  0.00    -0.347 OA
BRANCH   6   7
HETATM    7  C2  UNL     1      -3.927  -0.027  12.437  1.00  0.00     0.304 C 
HETATM    8  C1  UNL     1      -4.719  -0.035  11.204  1.00  0.00     0.252 C 
HETATM    9  O2  UNL     1      -4.010   0.442  10.132  1.00  0.00    -0.269 OA
HETATM   10  S1  UNL     1      -2.924   1.567  10.815  1.00  0.00     0.308 S 
HETATM   11  O1  UNL     1      -3.501   2.990  10.733  1.00  0.00    -0.196 OA
HETATM   12  O6  UNL     1      -2.985   0.993  12.411  1.00  0.00    -0.239 OA
ENDBRANCH   6   7
ENDBRANCH   1   6
BRANCH   2  13
HETATM   13  O4  UNL     1      -4.979  -0.558  15.814  1.00  0.00    -0.393 OA
ATOM     14  H4  UNL     1      -4.577  -0.998  16.555  1.00  0.00     0.210 HD
ENDBRANCH   2  13
BRANCH   5  15
HETATM   15  O5  UNL     1      -4.248   3.544  13.622  1.00  0.00    -0.393 OA
ATOM     16  H5  UNL     1      -4.039   4.219  14.256  1.00  0.00     0.210 HD
ENDBRANCH   5  15
TORSDOF 4
ENDMDL
MODEL 4
REMARK VINA RESULT: -6.173660357      2.692      4.700
REMARK  4 active torsions:
REMARK  status: ('A' for Active; 'I' for Inactive)
REMARK    1  A    between atoms: C2_5  and  O3_6 
REMARK    2  A    between atoms: O3_6  and  C3_7 
REMARK    3  A    between atoms: C4_8  and  O4_9 
REMARK    4  A    between atoms: C7_13  and  O5_14 
ROOT
HETATM    1  C3  UNL     1      -3.376   1.963  11.307  1.00  0.00     0.182 C 
HETATM    2  C4  UNL     1      -2.240   2.960  11.207  1.00  0.00     0.149 C 
HETATM    3  C5  UNL     1      -2.958   4.301  11.411  1.00  0.00     0.037 C 
HETATM    4  C6  UNL     1      -4.201   4.046  10.561  1.00  0.00     0.037 C 
HETATM    5  C7  UNL     1      -4.652   2.715  11.129  1.00  0.00     0.149 C 
ENDROOT
BRANCH   1   6
HETATM    6  O3  UNL     1      -3.228   1.304  12.488  1.00  0.00    -0.347 OA
BRANCH   6   7
HETATM    7  C2  UNL     1      -4.373   1.092  13.224  1.00  0.00     0.304 C 
HETATM    8  C1  UNL     1      -4.335  -0.274  13.756  1.00  0.00     0.252 C 
HETATM    9  O2  UNL     1      -4.919  -0.361  14.994  1.00  0.00    -0.269 OA
HETATM   10  S1  UNL     1      -4.652   1.173  15.693  1.00  0.00     0.308 S 
HETATM   11  O1  UNL     1      -3.393   1.151  16.575  1.00  0.00    -0.196 OA
HETATM   12  O6  UNL     1      -4.356   2.023  14.255  1.00  0.00    -0.239 OA
ENDBRANCH   6   7
ENDBRANCH   1   6
BRANCH   2  13
HETATM   13  O4  UNL     1      -1.277   2.778  12.174  1.00  0.00    -0.393 OA
ATOM     14  H4  UNL     1      -1.369   1.955  12.640  1.00  0.00     0.210 HD
ENDBRANCH   2  13
BRANCH   5  15
HETATM   15  O5  UNL     1      -5.489   2.132  10.172  1.00  0.00    -0.393 OA
ATOM     16  H5  UNL     1      -5.289   1.215  10.025  1.00  0.00     0.210 HD
ENDBRANCH   5  15
TORSDOF 4
ENDMDL
MODEL 5
REMARK VINA RESULT: -6.146510366      1.414      1.853
REMARK  4 active torsions:
REMARK  status: ('A' for Active; 'I' for Inactive)
REMARK    1  A    between atoms: C2_5  and  O3_6 
REMARK    2  A    between atoms: O3_6  and  C3_7 
REMARK    3  A    between atoms: C4_8  and  O4_9 
REMARK    4  A    between atoms: C7_13  and  O5_14 
ROOT
HETATM    1  C3  UNL     1      -5.294   1.682  15.758  1.00  0.00     0.182 C 
HETATM    2  C4  UNL     1      -5.645   0.862  16.984  1.00  0.00     0.149 C 
HETATM    3  C5  UNL     1      -7.103   1.265  17.244  1.00  0.00     0.037 C 
HETATM    4  C6  UNL     1      -6.992   2.767  16.989  1.00  0.00     0.037 C 
HETATM    5  C7  UNL     1      -6.312   2.764  15.633  1.00  0.00     0.149 C 
ENDROOT
BRANCH   1   6
HETATM    6  O3  UNL     1      -5.206   0.817  14.711  1.00  0.00    -0.347 OA
BRANCH   6   7
HETATM    7  C2  UNL     1      -4.301   1.137  13.721  1.00  0.00     0.304 C 
HETATM    8  C1  UNL     1      -4.210   0.005  12.795  1.00  0.00     0.252 C 
HETATM    9  O2  UNL     1      -4.000   0.412  11.503  1.00  0.00    -0.269 OA
HETATM   10  S1  UNL     1      -4.765   1.935  11.413  1.00  0.00     0.308 S 
HETATM   11  O1  UNL     1      -6.191   1.789  10.859  1.00  0.00    -0.196 OA
HETATM   12  O6  UNL     1      -4.804   2.261  13.078  1.00  0.00    -0.239 OA
ENDBRANCH   6   7
ENDBRANCH   1   6
BRANCH   2  13
HETATM   13  O4  UNL     1      -5.552  -0.495  16.770  1.00  0.00    -0.393 OA
ATOM     14  H4  UNL     1      -4.655  -0.810  16.764  1.00  0.00     0.210 HD
ENDBRANCH   2  13
BRANCH   5  15
HETATM   15  O5  UNL     1      -5.734   4.027  15.471  1.00  0.00    -0.393 OA
ATOM     16  H5  UNL     1      -6.362   4.681  15.190  1.00  0.00     0.210 HD
ENDBRANCH   5  15
TORSDOF 4
ENDMDL
