MODEL 1
REMARK VINA RESULT: -6.619067897      0.000      0.000
REMARK  4 active torsions:
REMARK  status: ('A' for Active; 'I' for Inactive)
REMARK    1  A    between atoms: O1_2  and  C2_3 
REMARK    2  A    between atoms: C4_9  and  N3_10 
REMARK    3  A    between atoms: N3_10  and  C5_12 
REMARK    4  A    between atoms: C5_12  and  C6_13 
ROOT
HETATM    1  C2  UNL     1      -4.661   0.419  15.892  1.00  0.00     0.186 A 
HETATM    2  N1  UNL     1      -4.379  -0.609  15.093  1.00  0.00    -0.330 N 
ATOM      3  H1  UNL     1      -4.313  -1.551  15.480  1.00  0.00     0.168 HD
HETATM    4  C3  UNL     1      -4.182  -0.409  13.774  1.00  0.00     0.184 A 
HETATM    5  N2  UNL     1      -4.261   0.805  13.242  1.00  0.00    -0.336 N 
ATOM      6  H2  UNL     1      -4.105   0.925  12.241  1.00  0.00     0.168 HD
HETATM    7  C4  UNL     1      -4.541   1.871  13.996  1.00  0.00     0.148 A 
HETATM    8  C13 UNL     1      -4.748   1.676  15.369  1.00  0.00     0.210 A 
HETATM    9  F1  UNL     1      -5.037   2.732  16.185  1.00  0.00    -0.197 F 
ENDROOT
BRANCH   7  10
HETATM   10  N3  UNL     1      -4.631   3.033  13.597  1.00  0.00    -0.341 N 
ATOM     11  H3  UNL     1      -5.619   3.247  13.463  1.00  0.00     0.164 HD
BRANCH  10  12
HETATM   12  C5  UNL     1      -3.893   4.165  13.260  1.00  0.00     0.142 C 
HETATM   13  C10 UNL     1      -3.576   4.342  11.807  1.00  0.00     0.064 C 
HETATM   14  C11 UNL     1      -2.200   4.990  11.797  1.00  0.00     0.031 C 
HETATM   15  C12 UNL     1      -1.660   4.505  13.094  1.00  0.00     0.171 C 
HETATM   16  O2  UNL     1      -2.682   4.275  13.956  1.00  0.00    -0.360 OA
BRANCH  12  17
HETATM   17  C6  UNL     1      -4.697   5.382  13.756  1.00  0.00    -0.001 C 
HETATM   18  C7  UNL     1      -4.245   5.901  15.072  1.00  0.00     0.019 C 
HETATM   19  C8  UNL     1      -4.710   6.455  12.700  1.00  0.00     0.019 C 
HETATM   20  C9  UNL     1      -6.150   4.916  13.902  1.00  0.00     0.019 C 
ENDBRANCH  12  17
ENDBRANCH  10  12
ENDBRANCH   7  10
BRANCH   1  21
HETATM   21  O1  UNL     1      -4.870   0.230  17.264  1.00  0.00    -0.338 OA
HETATM   22  C1  UNL     1      -6.179   0.022  17.716  1.00  0.00     0.211 C 
ENDBRANCH   1  21
TORSDOF 4
ENDMDL
MODEL 2
REMARK VINA RESULT: -6.441822914      1.018      1.509
REMARK  4 active torsions:
REMARK  status: ('A' for Active; 'I' for Inactive)
REMARK    1  A    between atoms: O1_2  and  C2_3 
REMARK    2  A    between atoms: C4_9  and  N3_10 
REMARK    3  A    between atoms: N3_10  and  C5_12 
REMARK    4  A    between atoms: C5_12  and  C6_13 
ROOT
HETATM    1  C2  UNL     1      -4.630   0.363  15.931  1.00  0.00     0.186 A 
HETATM    2  N1  UNL     1      -4.464  -0.668  15.103  1.00  0.00    -0.330 N 
ATOM      3  H1  UNL     1      -4.532  -1.622  15.459  1.00  0.00     0.168 HD
HETATM    4  C3  UNL     1      -4.209  -0.455  13.796  1.00  0.00     0.184 A 
HETATM    5  N2  UNL     1      -4.115   0.776  13.304  1.00  0.00    -0.336 N 
ATOM      6  H2  UNL     1      -3.919   0.905  12.312  1.00  0.00     0.168 HD
HETATM    7  C4  UNL     1      -4.272   1.845  14.089  1.00  0.00     0.148 A 
HETATM    8  C13 UNL     1      -4.539   1.636  15.450  1.00  0.00     0.210 A 
HETATM    9  F1  UNL     1      -4.707   2.694  16.295  1.00  0.00    -0.197 F 
ENDROOT
BRANCH   7  10
HETATM   10  N3  UNL     1      -4.199   3.021  13.729  1.00  0.00    -0.341 N 
ATOM     11  H3  UNL     1      -4.962   3.535  14.170  1.00  0.00     0.164 HD
BRANCH  10  12
HETATM   12  C5  UNL     1      -3.469   3.913  12.948  1.00  0.00     0.142 C 
HETATM   13  C10 UNL     1      -4.144   4.416  11.709  1.00  0.00     0.064 C 
HETATM   14  C11 UNL     1      -3.015   4.573  10.702  1.00  0.00     0.031 C 
HETATM   15  C12 UNL     1      -2.044   3.574  11.220  1.00  0.00     0.171 C 
HETATM   16  O2  UNL     1      -2.215   3.423  12.557  1.00  0.00    -0.360 OA
BRANCH  12  17
HETATM   17  C6  UNL     1      -3.115   5.107  13.853  1.00  0.00    -0.001 C 
HETATM   18  C7  UNL     1      -2.601   6.288  13.113  1.00  0.00     0.019 C 
HETATM   19  C8  UNL     1      -4.289   5.456  14.728  1.00  0.00     0.019 C 
HETATM   20  C9  UNL     1      -2.012   4.624  14.802  1.00  0.00     0.019 C 
ENDBRANCH  12  17
ENDBRANCH  10  12
ENDBRANCH   7  10
BRANCH   1  21
HETATM   21  O1  UNL     1      -4.896   0.159  17.290  1.00  0.00    -0.338 OA
HETATM   22  C1  UNL     1      -6.232   0.049  17.698  1.00  0.00     0.211 C 
ENDBRANCH   1  21
TORSDOF 4
ENDMDL
MODEL 3
REMARK VINA RESULT: -6.428546678      1.162      1.538
REMARK  4 active torsions:
REMARK  status: ('A' for Active; 'I' for Inactive)
REMARK    1  A    between atoms: O1_2  and  C2_3 
REMARK    2  A    between atoms: C4_9  and  N3_10 
REMARK    3  A    between atoms: N3_10  and  C5_12 
REMARK    4  A    between atoms: C5_12  and  C6_13 
ROOT
HETATM    1  C2  UNL     1      -5.952   1.030  16.741  1.00  0.00     0.186 A 
HETATM    2  N1  UNL     1      -5.146  -0.004  16.497  1.00  0.00    -0.330 N 
ATOM      3  H1  UNL     1      -5.150  -0.810  17.122  1.00  0.00     0.168 HD
HETATM    4  C3  UNL     1      -4.326   0.013  15.427  1.00  0.00     0.184 A 
HETATM    5  N2  UNL     1      -4.298   1.049  14.596  1.00  0.00    -0.336 N 
ATOM      6  H2  UNL     1      -3.666   1.033  13.796  1.00  0.00     0.168 HD
HETATM    7  C4  UNL     1      -5.084   2.111  14.792  1.00  0.00     0.148 A 
HETATM    8  C13 UNL     1      -5.942   2.105  15.902  1.00  0.00     0.210 A 
HETATM    9  F1  UNL     1      -6.766   3.165  16.148  1.00  0.00    -0.197 F 
ENDROOT
BRANCH   7  10
HETATM   10  N3  UNL     1      -5.127   3.118  14.083  1.00  0.00    -0.341 N 
ATOM     11  H3  UNL     1      -6.105   3.387  13.974  1.00  0.00     0.164 HD
BRANCH  10  12
HETATM   12  C5  UNL     1      -4.346   4.027  13.375  1.00  0.00     0.142 C 
HETATM   13  C10 UNL     1      -4.294   3.842  11.890  1.00  0.00     0.064 C 
HETATM   14  C11 UNL     1      -2.881   4.255  11.507  1.00  0.00     0.031 C 
HETATM   15  C12 UNL     1      -2.161   3.980  12.778  1.00  0.00     0.171 C 
HETATM   16  O2  UNL     1      -3.019   4.095  13.822  1.00  0.00    -0.360 OA
BRANCH  12  17
HETATM   17  C6  UNL     1      -4.898   5.429  13.693  1.00  0.00    -0.001 C 
HETATM   18  C7  UNL     1      -4.390   6.492  12.790  1.00  0.00     0.019 C 
HETATM   19  C8  UNL     1      -6.403   5.392  13.732  1.00  0.00     0.019 C 
HETATM   20  C9  UNL     1      -4.449   5.762  15.121  1.00  0.00     0.019 C 
ENDBRANCH  12  17
ENDBRANCH  10  12
ENDBRANCH   7  10
BRANCH   1  21
HETATM   21  O1  UNL     1      -6.810   1.029  17.847  1.00  0.00    -0.338 OA
HETATM   22  C1  UNL     1      -6.387   1.670  19.019  1.00  0.00     0.211 C 
ENDBRANCH   1  21
TORSDOF 4
ENDMDL
MODEL 4
REMARK VINA RESULT: -6.264975903      1.260      2.217
REMARK  4 active torsions:
REMARK  status: ('A' for Active; 'I' for Inactive)
REMARK    1  A    between atoms: O1_2  and  C2_3 
REMARK    2  A    between atoms: C4_9  and  N3_10 
REMARK    3  A    between atoms: N3_10  and  C5_12 
REMARK    4  A    between atoms: C5_12  and  C6_13 
ROOT
HETATM    1  C2  UNL     1      -4.445   0.663  15.439  1.00  0.00     0.186 A 
HETATM    2  N1  UNL     1      -4.486  -0.217  14.439  1.00  0.00    -0.330 N 
ATOM      3  H1  UNL     1      -4.682  -1.199  14.633  1.00  0.00     0.168 HD
HETATM    4  C3  UNL     1      -4.269   0.187  13.171  1.00  0.00     0.184 A 
HETATM    5  N2  UNL     1      -4.010   1.459  12.887  1.00  0.00    -0.336 N 
ATOM      6  H2  UNL     1      -3.849   1.734  11.918  1.00  0.00     0.168 HD
HETATM    7  C4  UNL     1      -3.958   2.382  13.851  1.00  0.00     0.148 A 
HETATM    8  C13 UNL     1      -4.181   1.975  15.173  1.00  0.00     0.210 A 
HETATM    9  F1  UNL     1      -4.138   2.878  16.196  1.00  0.00    -0.197 F 
ENDROOT
BRANCH   7  10
HETATM   10  N3  UNL     1      -3.721   3.581  13.689  1.00  0.00    -0.341 N 
ATOM     11  H3  UNL     1      -2.710   3.712  13.724  1.00  0.00     0.164 HD
BRANCH  10  12
HETATM   12  C5  UNL     1      -4.312   4.823  13.477  1.00  0.00     0.142 C 
HETATM   13  C10 UNL     1      -5.719   4.981  13.966  1.00  0.00     0.064 C 
HETATM   14  C11 UNL     1      -6.370   5.907  12.949  1.00  0.00     0.031 C 
HETATM   15  C12 UNL     1      -5.540   5.624  11.749  1.00  0.00     0.171 C 
HETATM   16  O2  UNL     1      -4.300   5.230  12.135  1.00  0.00    -0.360 OA
BRANCH  12  17
HETATM   17  C6  UNL     1      -3.414   5.865  14.169  1.00  0.00    -0.001 C 
HETATM   18  C7  UNL     1      -3.051   7.014  13.301  1.00  0.00     0.019 C 
HETATM   19  C8  UNL     1      -4.046   6.312  15.461  1.00  0.00     0.019 C 
HETATM   20  C9  UNL     1      -2.123   5.138  14.562  1.00  0.00     0.019 C 
ENDBRANCH  12  17
ENDBRANCH  10  12
ENDBRANCH   7  10
BRANCH   1  21
HETATM   21  O1  UNL     1      -4.668   0.260  16.761  1.00  0.00    -0.338 OA
HETATM   22  C1  UNL     1      -5.986   0.232  17.236  1.00  0.00     0.211 C 
ENDBRANCH   1  21
TORSDOF 4
ENDMDL
MODEL 5
REMARK VINA RESULT: -6.160186090      1.103      2.443
REMARK  4 active torsions:
REMARK  status: ('A' for Active; 'I' for Inactive)
REMARK    1  A    between atoms: O1_2  and  C2_3 
REMARK    2  A    between atoms: C4_9  and  N3_10 
REMARK    3  A    between atoms: N3_10  and  C5_12 
REMARK    4  A    between atoms: C5_12  and  C6_13 
ROOT
HETATM    1  C2  UNL     1      -4.538   0.274  15.674  1.00  0.00     0.186 A 
HETATM    2  N1  UNL     1      -4.467  -0.619  14.687  1.00  0.00    -0.330 N 
ATOM      3  H1  UNL     1      -4.591  -1.611  14.890  1.00  0.00     0.168 HD
HETATM    4  C3  UNL     1      -4.232  -0.215  13.423  1.00  0.00     0.184 A 
HETATM    5  N2  UNL     1      -4.066   1.069  13.129  1.00  0.00    -0.336 N 
ATOM      6  H2  UNL     1      -3.888   1.344  12.162  1.00  0.00     0.168 HD
HETATM    7  C4  UNL     1      -4.128   2.007  14.078  1.00  0.00     0.148 A 
HETATM    8  C13 UNL     1      -4.372   1.600  15.397  1.00  0.00     0.210 A 
HETATM    9  F1  UNL     1      -4.444   2.517  16.405  1.00  0.00    -0.197 F 
ENDROOT
BRANCH   7  10
HETATM   10  N3  UNL     1      -3.983   3.218  13.906  1.00  0.00    -0.341 N 
ATOM     11  H3  UNL     1      -2.983   3.414  13.853  1.00  0.00     0.164 HD
BRANCH  10  12
HETATM   12  C5  UNL     1      -4.668   4.421  13.757  1.00  0.00     0.142 C 
HETATM   13  C10 UNL     1      -4.893   5.216  15.006  1.00  0.00     0.064 C 
HETATM   14  C11 UNL     1      -6.249   5.874  14.796  1.00  0.00     0.031 C 
HETATM   15  C12 UNL     1      -6.878   4.910  13.855  1.00  0.00     0.171 C 
HETATM   16  O2  UNL     1      -5.915   4.284  13.132  1.00  0.00    -0.360 OA
BRANCH  12  17
HETATM   17  C6  UNL     1      -3.862   5.269  12.755  1.00  0.00    -0.001 C 
HETATM   18  C7  UNL     1      -4.452   5.308  11.393  1.00  0.00     0.019 C 
HETATM   19  C8  UNL     1      -3.638   6.650  13.312  1.00  0.00     0.019 C 
HETATM   20  C9  UNL     1      -2.475   4.625  12.654  1.00  0.00     0.019 C 
ENDBRANCH  12  17
ENDBRANCH  10  12
ENDBRANCH   7  10
BRANCH   1  21
HETATM   21  O1  UNL     1      -4.782  -0.127  16.993  1.00  0.00    -0.338 OA
HETATM   22  C1  UNL     1      -6.091  -0.043  17.484  1.00  0.00     0.211 C 
ENDBRANCH   1  21
TORSDOF 4
ENDMDL
