MODEL 1
REMARK VINA RESULT: -7.154998594      0.000      0.000
REMARK  3 active torsions:
REMARK  status: ('A' for Active; 'I' for Inactive)
REMARK    1  A    between atoms: C5_5  and  N1_6 
REMARK    2  A    between atoms: N1_6  and  C6_8 
REMARK    3  A    between atoms: C7_9  and  C8_10 
ROOT
HETATM    1  C6  UNL     1      -4.738   4.629  13.575  1.00  0.00     0.218 C 
HETATM    2  C7  UNL     1      -4.786   5.344  12.182  1.00  0.00     0.192 C 
HETATM    3  O1  UNL     1      -5.019   4.438  11.222  1.00  0.00    -0.379 OA
HETATM    4  C9  UNL     1      -4.075   3.619  10.738  1.00  0.00     0.176 C 
HETATM    5  C10 UNL     1      -2.726   3.579  11.292  1.00  0.00     0.104 C 
HETATM    6  C11 UNL     1      -2.547   3.816  12.729  1.00  0.00     0.102 A 
HETATM    7  N2  UNL     1      -1.334   3.612  13.323  1.00  0.00    -0.288 N 
ATOM      8  H2  UNL     1      -0.491   3.275  12.857  1.00  0.00     0.188 HD
HETATM    9  N3  UNL     1      -1.433   3.923  14.600  1.00  0.00    -0.295 N 
ATOM     10  H3  UNL     1      -0.668   3.861  15.272  1.00  0.00     0.187 HD
HETATM   11  C12 UNL     1      -2.669   4.332  14.895  1.00  0.00     0.203 A 
HETATM   12  N4  UNL     1      -3.353   4.255  13.702  1.00  0.00    -0.306 N 
ENDROOT
BRANCH   1  13
HETATM   13  N1  UNL     1      -5.648   3.605  13.500  1.00  0.00    -0.395 N 
ATOM     14  H1  UNL     1      -5.999   3.372  12.571  1.00  0.00     0.155 HD
BRANCH  13  15
HETATM   15  C5  UNL     1      -6.142   2.848  14.565  1.00  0.00     0.078 C 
HETATM   16  C4  UNL     1      -5.346   1.677  15.009  1.00  0.00     0.025 C 
HETATM   17  C3  UNL     1      -4.986   1.683  16.488  1.00  0.00     0.006 C 
HETATM   18  C2  UNL     1      -6.307   1.673  17.251  1.00  0.00    -0.019 C 
HETATM   19  C1  UNL     1      -6.055   1.675  18.727  1.00  0.00     0.010 C 
HETATM   20  C14 UNL     1      -7.183   2.823  16.778  1.00  0.00     0.006 C 
HETATM   21  C13 UNL     1      -6.425   3.701  15.809  1.00  0.00     0.025 C 
ENDBRANCH  13  15
ENDBRANCH   1  13
BRANCH   2  22
HETATM   22  C8  UNL     1      -5.926   6.365  12.232  1.00  0.00     0.258 C 
HETATM   23  F1  UNL     1      -5.399   7.628  12.104  1.00  0.00    -0.253 F 
ENDBRANCH   2  22
TORSDOF 3
ENDMDL
MODEL 2
REMARK VINA RESULT: -7.144102001      3.027      5.382
REMARK  3 active torsions:
REMARK  status: ('A' for Active; 'I' for Inactive)
REMARK    1  A    between atoms: C5_5  and  N1_6 
REMARK    2  A    between atoms: N1_6  and  C6_8 
REMARK    3  A    between atoms: C7_9  and  C8_10 
ROOT
HETATM    1  C6  UNL     1      -4.987   2.948  14.019  1.00  0.00     0.218 C 
HETATM    2  C7  UNL     1      -5.698   2.517  15.346  1.00  0.00     0.192 C 
HETATM    3  O1  UNL     1      -4.775   2.194  16.263  1.00  0.00    -0.379 OA
HETATM    4  C9  UNL     1      -4.120   1.025  16.267  1.00  0.00     0.176 C 
HETATM    5  C10 UNL     1      -4.287   0.039  15.205  1.00  0.00     0.104 C 
HETATM    6  C11 UNL     1      -4.537   0.511  13.838  1.00  0.00     0.102 A 
HETATM    7  N2  UNL     1      -4.521  -0.361  12.786  1.00  0.00    -0.288 N 
ATOM      8  H2  UNL     1      -4.325  -1.361  12.845  1.00  0.00     0.188 HD
HETATM    9  N3  UNL     1      -4.801   0.304  11.684  1.00  0.00    -0.295 N 
ATOM     10  H3  UNL     1      -4.854  -0.112  10.754  1.00  0.00     0.187 HD
HETATM   11  C12 UNL     1      -5.007   1.597  11.949  1.00  0.00     0.203 A 
HETATM   12  N4  UNL     1      -4.835   1.703  13.311  1.00  0.00    -0.306 N 
ENDROOT
BRANCH   1  13
HETATM   13  N1  UNL     1      -3.833   3.583  14.402  1.00  0.00    -0.395 N 
ATOM     14  H1  UNL     1      -3.196   3.054  14.997  1.00  0.00     0.155 HD
BRANCH  13  15
HETATM   15  C5  UNL     1      -3.441   4.880  14.063  1.00  0.00     0.078 C 
HETATM   16  C4  UNL     1      -4.197   6.010  14.656  1.00  0.00     0.025 C 
HETATM   17  C3  UNL     1      -3.340   7.020  15.404  1.00  0.00     0.006 C 
HETATM   18  C2  UNL     1      -2.361   7.592  14.383  1.00  0.00    -0.019 C 
HETATM   19  C1  UNL     1      -1.469   8.606  15.030  1.00  0.00     0.010 C 
HETATM   20  C14 UNL     1      -1.608   6.459  13.703  1.00  0.00     0.006 C 
HETATM   21  C13 UNL     1      -1.953   5.135  14.343  1.00  0.00     0.025 C 
ENDBRANCH  13  15
ENDBRANCH   1  13
BRANCH   2  22
HETATM   22  C8  UNL     1      -6.526   3.711  15.829  1.00  0.00     0.258 C 
HETATM   23  F1  UNL     1      -7.194   3.355  16.976  1.00  0.00    -0.253 F 
ENDBRANCH   2  22
TORSDOF 3
ENDMDL
MODEL 3
REMARK VINA RESULT: -6.946931482      2.948      5.392
REMARK  3 active torsions:
REMARK  status: ('A' for Active; 'I' for Inactive)
REMARK    1  A    between atoms: C5_5  and  N1_6 
REMARK    2  A    between atoms: N1_6  and  C6_8 
REMARK    3  A    between atoms: C7_9  and  C8_10 
ROOT
HETATM    1  C6  UNL     1      -4.857   3.143  14.402  1.00  0.00     0.218 C 
HETATM    2  C7  UNL     1      -5.731   2.527  15.547  1.00  0.00     0.192 C 
HETATM    3  O1  UNL     1      -4.934   1.922  16.440  1.00  0.00    -0.379 OA
HETATM    4  C9  UNL     1      -4.392   0.712  16.242  1.00  0.00     0.176 C 
HETATM    5  C10 UNL     1      -4.543  -0.007  14.983  1.00  0.00     0.104 C 
HETATM    6  C11 UNL     1      -4.614   0.761  13.735  1.00  0.00     0.102 A 
HETATM    7  N2  UNL     1      -4.575   0.130  12.524  1.00  0.00    -0.288 N 
ATOM      8  H2  UNL     1      -4.476  -0.876  12.380  1.00  0.00     0.188 HD
HETATM    9  N3  UNL     1      -4.684   1.035  11.573  1.00  0.00    -0.295 N 
ATOM     10  H3  UNL     1      -4.683   0.829  10.574  1.00  0.00     0.187 HD
HETATM   11  C12 UNL     1      -4.797   2.259  12.095  1.00  0.00     0.203 A 
HETATM   12  N4  UNL     1      -4.750   2.062  13.456  1.00  0.00    -0.306 N 
ENDROOT
BRANCH   1  13
HETATM   13  N1  UNL     1      -3.693   3.555  15.001  1.00  0.00    -0.395 N 
ATOM     14  H1  UNL     1      -3.314   2.949  15.729  1.00  0.00     0.155 HD
BRANCH  13  15
HETATM   15  C5  UNL     1      -2.974   4.717  14.716  1.00  0.00     0.078 C 
HETATM   16  C4  UNL     1      -2.238   4.779  13.429  1.00  0.00     0.025 C 
HETATM   17  C3  UNL     1      -2.586   5.978  12.560  1.00  0.00     0.006 C 
HETATM   18  C2  UNL     1      -2.221   7.217  13.372  1.00  0.00    -0.019 C 
HETATM   19  C1  UNL     1      -2.527   8.458  12.592  1.00  0.00     0.010 C 
HETATM   20  C14 UNL     1      -2.905   7.162  14.729  1.00  0.00     0.006 C 
HETATM   21  C13 UNL     1      -3.842   5.979  14.801  1.00  0.00     0.025 C 
ENDBRANCH  13  15
ENDBRANCH   1  13
BRANCH   2  22
HETATM   22  C8  UNL     1      -6.490   3.678  16.211  1.00  0.00     0.258 C 
HETATM   23  F1  UNL     1      -7.241   3.177  17.247  1.00  0.00    -0.253 F 
ENDBRANCH   2  22
TORSDOF 3
ENDMDL
MODEL 4
REMARK VINA RESULT: -6.904967060      2.694      5.395
REMARK  3 active torsions:
REMARK  status: ('A' for Active; 'I' for Inactive)
REMARK    1  A    between atoms: C5_5  and  N1_6 
REMARK    2  A    between atoms: N1_6  and  C6_8 
REMARK    3  A    between atoms: C7_9  and  C8_10 
ROOT
HETATM    1  C6  UNL     1      -4.962   2.837  14.822  1.00  0.00     0.218 C 
HETATM    2  C7  UNL     1      -6.457   3.298  14.897  1.00  0.00     0.192 C 
HETATM    3  O1  UNL     1      -6.668   3.943  16.053  1.00  0.00    -0.379 OA
HETATM    4  C9  UNL     1      -6.832   3.316  17.226  1.00  0.00     0.176 C 
HETATM    5  C10 UNL     1      -6.693   1.870  17.358  1.00  0.00     0.104 C 
HETATM    6  C11 UNL     1      -5.719   1.176  16.508  1.00  0.00     0.102 A 
HETATM    7  N2  UNL     1      -5.425  -0.142  16.719  1.00  0.00    -0.288 N 
ATOM      8  H2  UNL     1      -5.816  -0.729  17.457  1.00  0.00     0.188 HD
HETATM    9  N3  UNL     1      -4.553  -0.529  15.810  1.00  0.00    -0.295 N 
ATOM     10  H3  UNL     1      -4.166  -1.471  15.742  1.00  0.00     0.187 HD
HETATM   11  C12 UNL     1      -4.244   0.478  14.989  1.00  0.00     0.203 A 
HETATM   12  N4  UNL     1      -4.989   1.540  15.448  1.00  0.00    -0.306 N 
ENDROOT
BRANCH   1  13
HETATM   13  N1  UNL     1      -4.237   3.813  15.458  1.00  0.00    -0.395 N 
ATOM     14  H1  UNL     1      -4.327   3.861  16.473  1.00  0.00     0.155 HD
BRANCH  13  15
HETATM   15  C5  UNL     1      -3.389   4.747  14.860  1.00  0.00     0.078 C 
HETATM   16  C4  UNL     1      -3.127   4.612  13.406  1.00  0.00     0.025 C 
HETATM   17  C3  UNL     1      -3.436   5.859  12.590  1.00  0.00     0.006 C 
HETATM   18  C2  UNL     1      -2.531   6.961  13.132  1.00  0.00    -0.019 C 
HETATM   19  C1  UNL     1      -2.761   8.238  12.384  1.00  0.00     0.010 C 
HETATM   20  C14 UNL     1      -2.722   7.089  14.636  1.00  0.00     0.006 C 
HETATM   21  C13 UNL     1      -3.843   6.192  15.105  1.00  0.00     0.025 C 
ENDBRANCH  13  15
ENDBRANCH   1  13
BRANCH   2  22
HETATM   22  C8  UNL     1      -6.704   4.239  13.715  1.00  0.00     0.258 C 
HETATM   23  F1  UNL     1      -6.921   5.509  14.195  1.00  0.00    -0.253 F 
ENDBRANCH   2  22
TORSDOF 3
ENDMDL
MODEL 5
REMARK VINA RESULT: -6.885804833      2.155      2.954
REMARK  3 active torsions:
REMARK  status: ('A' for Active; 'I' for Inactive)
REMARK    1  A    between atoms: C5_5  and  N1_6 
REMARK    2  A    between atoms: N1_6  and  C6_8 
REMARK    3  A    between atoms: C7_9  and  C8_10 
ROOT
HETATM    1  C6  UNL     1      -3.999   3.780  13.212  1.00  0.00     0.218 C 
HETATM    2  C7  UNL     1      -3.531   2.966  11.958  1.00  0.00     0.192 C 
HETATM    3  O1  UNL     1      -2.293   2.497  12.167  1.00  0.00    -0.379 OA
HETATM    4  C9  UNL     1      -1.191   3.252  12.053  1.00  0.00     0.176 C 
HETATM    5  C10 UNL     1      -1.258   4.684  11.789  1.00  0.00     0.104 C 
HETATM    6  C11 UNL     1      -2.382   5.451  12.339  1.00  0.00     0.102 A 
HETATM    7  N2  UNL     1      -2.393   6.816  12.271  1.00  0.00    -0.288 N 
ATOM      8  H2  UNL     1      -1.655   7.399  11.874  1.00  0.00     0.188 HD
HETATM    9  N3  UNL     1      -3.515   7.255  12.805  1.00  0.00    -0.295 N 
ATOM     10  H3  UNL     1      -3.775   8.238  12.880  1.00  0.00     0.187 HD
HETATM   11  C12 UNL     1      -4.267   6.237  13.232  1.00  0.00     0.203 A 
HETATM   12  N4  UNL     1      -3.533   5.113  12.929  1.00  0.00    -0.306 N 
ENDROOT
BRANCH   1  13
HETATM   13  N1  UNL     1      -3.442   3.150  14.296  1.00  0.00    -0.395 N 
ATOM     14  H1  UNL     1      -2.438   2.973  14.255  1.00  0.00     0.155 HD
BRANCH  13  15
HETATM   15  C5  UNL     1      -4.106   2.726  15.449  1.00  0.00     0.078 C 
HETATM   16  C4  UNL     1      -5.349   3.440  15.833  1.00  0.00     0.025 C 
HETATM   17  C3  UNL     1      -6.564   2.542  16.009  1.00  0.00     0.006 C 
HETATM   18  C2  UNL     1      -6.216   1.565  17.128  1.00  0.00    -0.019 C 
HETATM   19  C1  UNL     1      -7.362   0.633  17.379  1.00  0.00     0.010 C 
HETATM   20  C14 UNL     1      -4.911   0.856  16.804  1.00  0.00     0.006 C 
HETATM   21  C13 UNL     1      -4.437   1.228  15.418  1.00  0.00     0.025 C 
ENDBRANCH  13  15
ENDBRANCH   1  13
BRANCH   2  22
HETATM   22  C8  UNL     1      -4.512   1.804  11.776  1.00  0.00     0.258 C 
HETATM   23  F1  UNL     1      -5.676   2.095  12.446  1.00  0.00    -0.253 F 
ENDBRANCH   2  22
TORSDOF 3
ENDMDL
