MODEL 1
REMARK VINA RESULT: -6.397743390      0.000      0.000
REMARK  4 active torsions:
REMARK  status: ('A' for Active; 'I' for Inactive)
REMARK    1  A    between atoms: C2_2  and  O1_3 
REMARK    2  A    between atoms: C8_10  and  C9_11 
REMARK    3  A    between atoms: C9_11  and  C10_12 
REMARK    4  A    between atoms: C10_12  and  N1_13 
ROOT
HETATM    1  C1  UNL     1      -7.240   7.705  11.470  1.00  0.00     0.078 C 
HETATM    2  C2  UNL     1      -6.005   6.870  11.310  1.00  0.00     0.159 C 
HETATM    3  C3  UNL     1      -4.761   7.653  11.072  1.00  0.00     0.071 C 
HETATM    4  C4  UNL     1      -3.788   7.176  12.143  1.00  0.00     0.043 C 
HETATM    5  C5  UNL     1      -4.475   5.983  12.679  1.00  0.00     0.065 C 
HETATM    6  C6  UNL     1      -4.026   4.679  12.060  1.00  0.00     0.038 C 
HETATM    7  C7  UNL     1      -4.741   3.677  12.975  1.00  0.00     0.007 C 
HETATM    8  C8  UNL     1      -4.852   4.359  14.296  1.00  0.00    -0.010 C 
HETATM    9  C13 UNL     1      -4.205   5.719  14.148  1.00  0.00     0.043 C 
HETATM   10  O2  UNL     1      -5.836   6.113  12.454  1.00  0.00    -0.345 OA
ENDROOT
BRANCH   8  11
HETATM   11  C9  UNL     1      -4.292   3.573  15.442  1.00  0.00     0.026 C 
BRANCH  11  12
HETATM   12  C10 UNL     1      -4.293   2.099  15.227  1.00  0.00     0.150 C 
BRANCH  12  13
HETATM   13  N1  UNL     1      -5.274   1.527  16.155  1.00  0.00    -0.287 N 
HETATM   14  C11 UNL     1      -6.450   2.075  16.514  1.00  0.00     0.201 A 
HETATM   15  N2  UNL     1      -7.086   1.264  17.383  1.00  0.00    -0.346 N 
HETATM   16  C12 UNL     1      -6.303   0.205  17.567  1.00  0.00     0.198 A 
ATOM     17  H2  UNL     1      -7.994   1.431  17.815  1.00  0.00     0.167 HD
HETATM   18  N3  UNL     1      -5.195   0.381  16.805  1.00  0.00    -0.293 N 
ATOM     19  H3  UNL     1      -4.416  -0.275  16.744  1.00  0.00     0.188 HD
ENDBRANCH  12  13
ENDBRANCH  11  12
ENDBRANCH   8  11
BRANCH   2  20
HETATM   20  O1  UNL     1      -6.196   6.016  10.227  1.00  0.00    -0.366 OA
ATOM     21  H1  UNL     1      -5.365   5.605  10.024  1.00  0.00     0.213 HD
ENDBRANCH   2  20
TORSDOF 4
ENDMDL
MODEL 2
REMARK VINA RESULT: -6.270765477      2.205      3.070
REMARK  4 active torsions:
REMARK  status: ('A' for Active; 'I' for Inactive)
REMARK    1  A    between atoms: C2_2  and  O1_3 
REMARK    2  A    between atoms: C8_10  and  C9_11 
REMARK    3  A    between atoms: C9_11  and  C10_12 
REMARK    4  A    between atoms: C10_12  and  N1_13 
ROOT
HETATM    1  C1  UNL     1      -1.617   8.691  15.075  1.00  0.00     0.078 C 
HETATM    2  C2  UNL     1      -2.149   7.748  14.037  1.00  0.00     0.159 C 
HETATM    3  C3  UNL     1      -1.127   6.834  13.457  1.00  0.00     0.071 C 
HETATM    4  C4  UNL     1      -1.702   5.435  13.645  1.00  0.00     0.043 C 
HETATM    5  C5  UNL     1      -3.097   5.722  14.039  1.00  0.00     0.065 C 
HETATM    6  C6  UNL     1      -4.084   5.691  12.895  1.00  0.00     0.038 C 
HETATM    7  C7  UNL     1      -5.405   5.792  13.665  1.00  0.00     0.007 C 
HETATM    8  C8  UNL     1      -5.141   5.161  14.989  1.00  0.00    -0.010 C 
HETATM    9  C13 UNL     1      -3.701   4.693  14.976  1.00  0.00     0.043 C 
HETATM   10  O2  UNL     1      -3.149   6.984  14.610  1.00  0.00    -0.345 OA
ENDROOT
BRANCH   8  11
HETATM   11  C9  UNL     1      -6.100   4.068  15.350  1.00  0.00     0.026 C 
BRANCH  11  12
HETATM   12  C10 UNL     1      -5.686   2.715  14.883  1.00  0.00     0.150 C 
BRANCH  12  13
HETATM   13  N1  UNL     1      -5.999   1.771  15.960  1.00  0.00    -0.287 N 
HETATM   14  C11 UNL     1      -5.203   0.787  16.418  1.00  0.00     0.201 A 
HETATM   15  N2  UNL     1      -5.823   0.123  17.414  1.00  0.00    -0.346 N 
HETATM   16  C12 UNL     1      -7.013   0.696  17.578  1.00  0.00     0.198 A 
ATOM     17  H2  UNL     1      -5.451  -0.667  17.941  1.00  0.00     0.167 HD
HETATM   18  N3  UNL     1      -7.104   1.707  16.678  1.00  0.00    -0.293 N 
ATOM     19  H3  UNL     1      -7.908   2.325  16.573  1.00  0.00     0.188 HD
ENDBRANCH  12  13
ENDBRANCH  11  12
ENDBRANCH   8  11
BRANCH   2  20
HETATM   20  O1  UNL     1      -2.695   8.504  13.003  1.00  0.00    -0.366 OA
ATOM     21  H1  UNL     1      -3.261   7.939  12.491  1.00  0.00     0.213 HD
ENDBRANCH   2  20
TORSDOF 4
ENDMDL
MODEL 3
REMARK VINA RESULT: -6.265400947      2.210      2.891
REMARK  4 active torsions:
REMARK  status: ('A' for Active; 'I' for Inactive)
REMARK    1  A    between atoms: C2_2  and  O1_3 
REMARK    2  A    between atoms: C8_10  and  C9_11 
REMARK    3  A    between atoms: C9_11  and  C10_12 
REMARK    4  A    between atoms: C10_12  and  N1_13 
ROOT
HETATM    1  C1  UNL     1      -2.749   8.297  12.253  1.00  0.00     0.078 C 
HETATM    2  C2  UNL     1      -2.464   7.314  13.350  1.00  0.00     0.159 C 
HETATM    3  C3  UNL     1      -2.325   7.925  14.701  1.00  0.00     0.071 C 
HETATM    4  C4  UNL     1      -3.311   7.163  15.578  1.00  0.00     0.043 C 
HETATM    5  C5  UNL     1      -3.684   6.025  14.711  1.00  0.00     0.065 C 
HETATM    6  C6  UNL     1      -2.887   4.766  14.964  1.00  0.00     0.038 C 
HETATM    7  C7  UNL     1      -3.662   3.768  14.096  1.00  0.00     0.007 C 
HETATM    8  C8  UNL     1      -5.065   4.270  14.072  1.00  0.00    -0.010 C 
HETATM    9  C13 UNL     1      -5.100   5.524  14.920  1.00  0.00     0.043 C 
HETATM   10  O2  UNL     1      -3.491   6.390  13.388  1.00  0.00    -0.345 OA
ENDROOT
BRANCH   8  11
HETATM   11  C9  UNL     1      -6.086   3.258  14.493  1.00  0.00     0.026 C 
BRANCH  11  12
HETATM   12  C10 UNL     1      -6.458   3.332  15.934  1.00  0.00     0.150 C 
BRANCH  12  13
HETATM   13  N1  UNL     1      -6.156   2.025  16.526  1.00  0.00    -0.287 N 
HETATM   14  C11 UNL     1      -5.364   1.072  16.000  1.00  0.00     0.201 A 
HETATM   15  N2  UNL     1      -5.320   0.007  16.825  1.00  0.00    -0.346 N 
HETATM   16  C12 UNL     1      -6.090   0.296  17.870  1.00  0.00     0.198 A 
ATOM     17  H2  UNL     1      -4.797  -0.856  16.675  1.00  0.00     0.167 HD
HETATM   18  N3  UNL     1      -6.595   1.539  17.672  1.00  0.00    -0.293 N 
ATOM     19  H3  UNL     1      -7.220   2.027  18.314  1.00  0.00     0.188 HD
ENDBRANCH  12  13
ENDBRANCH  11  12
ENDBRANCH   8  11
BRANCH   2  20
HETATM   20  O1  UNL     1      -1.275   6.656  13.045  1.00  0.00    -0.366 OA
ATOM     21  H1  UNL     1      -0.742   7.238  12.517  1.00  0.00     0.213 HD
ENDBRANCH   2  20
TORSDOF 4
ENDMDL
MODEL 4
REMARK VINA RESULT: -6.247218223      4.109      6.705
REMARK  4 active torsions:
REMARK  status: ('A' for Active; 'I' for Inactive)
REMARK    1  A    between atoms: C2_2  and  O1_3 
REMARK    2  A    between atoms: C8_10  and  C9_11 
REMARK    3  A    between atoms: C9_11  and  C10_12 
REMARK    4  A    between atoms: C10_12  and  N1_13 
ROOT
HETATM    1  C1  UNL     1      -6.364   1.764  19.408  1.00  0.00     0.078 C 
HETATM    2  C2  UNL     1      -6.170   1.396  17.967  1.00  0.00     0.159 C 
HETATM    3  C3  UNL     1      -7.420   1.007  17.259  1.00  0.00     0.071 C 
HETATM    4  C4  UNL     1      -7.470   1.907  16.030  1.00  0.00     0.043 C 
HETATM    5  C5  UNL     1      -6.114   2.496  16.021  1.00  0.00     0.065 C 
HETATM    6  C6  UNL     1      -5.132   1.773  15.128  1.00  0.00     0.038 C 
HETATM    7  C7  UNL     1      -3.948   2.747  15.173  1.00  0.00     0.007 C 
HETATM    8  C8  UNL     1      -4.552   4.093  15.386  1.00  0.00    -0.010 C 
HETATM    9  C13 UNL     1      -6.053   3.900  15.450  1.00  0.00     0.043 C 
HETATM   10  O2  UNL     1      -5.610   2.477  17.311  1.00  0.00    -0.345 OA
ENDROOT
BRANCH   8  11
HETATM   11  C9  UNL     1      -4.144   5.117  14.372  1.00  0.00     0.026 C 
BRANCH  11  12
HETATM   12  C10 UNL     1      -2.701   5.488  14.428  1.00  0.00     0.150 C 
BRANCH  12  13
HETATM   13  N1  UNL     1      -2.075   4.977  13.205  1.00  0.00    -0.287 N 
HETATM   14  C11 UNL     1      -2.277   5.431  11.954  1.00  0.00     0.201 A 
HETATM   15  N2  UNL     1      -1.531   4.720  11.084  1.00  0.00    -0.346 N 
HETATM   16  C12 UNL     1      -0.861   3.818  11.796  1.00  0.00     0.198 A 
ATOM     17  H2  UNL     1      -1.489   4.850  10.073  1.00  0.00     0.167 HD
HETATM   18  N3  UNL     1      -1.206   3.990  13.097  1.00  0.00    -0.293 N 
ATOM     19  H3  UNL     1      -0.845   3.439  13.875  1.00  0.00     0.188 HD
ENDBRANCH  12  13
ENDBRANCH  11  12
ENDBRANCH   8  11
BRANCH   2  20
HETATM   20  O1  UNL     1      -5.284   0.324  17.909  1.00  0.00    -0.366 OA
ATOM     21  H1  UNL     1      -4.988   0.233  17.011  1.00  0.00     0.213 HD
ENDBRANCH   2  20
TORSDOF 4
ENDMDL
MODEL 5
REMARK VINA RESULT: -6.183971298      3.922      6.635
REMARK  4 active torsions:
REMARK  status: ('A' for Active; 'I' for Inactive)
REMARK    1  A    between atoms: C2_2  and  O1_3 
REMARK    2  A    between atoms: C8_10  and  C9_11 
REMARK    3  A    between atoms: C9_11  and  C10_12 
REMARK    4  A    between atoms: C10_12  and  N1_13 
ROOT
HETATM    1  C1  UNL     1      -7.694   1.088  16.950  1.00  0.00     0.078 C 
HETATM    2  C2  UNL     1      -6.232   1.390  16.803  1.00  0.00     0.159 C 
HETATM    3  C3  UNL     1      -5.376   0.192  16.583  1.00  0.00     0.071 C 
HETATM    4  C4  UNL     1      -4.590   0.501  15.315  1.00  0.00     0.043 C 
HETATM    5  C5  UNL     1      -4.866   1.940  15.119  1.00  0.00     0.065 C 
HETATM    6  C6  UNL     1      -3.807   2.857  15.687  1.00  0.00     0.038 C 
HETATM    7  C7  UNL     1      -4.275   4.203  15.122  1.00  0.00     0.007 C 
HETATM    8  C8  UNL     1      -4.965   3.877  13.842  1.00  0.00    -0.010 C 
HETATM    9  C13 UNL     1      -4.885   2.375  13.667  1.00  0.00     0.043 C 
HETATM   10  O2  UNL     1      -6.069   2.250  15.732  1.00  0.00    -0.345 OA
ENDROOT
BRANCH   8  11
HETATM   11  C9  UNL     1      -4.443   4.627  12.655  1.00  0.00     0.026 C 
BRANCH  11  12
HETATM   12  C10 UNL     1      -3.927   3.754  11.563  1.00  0.00     0.150 C 
BRANCH  12  13
HETATM   13  N1  UNL     1      -2.490   4.019  11.440  1.00  0.00    -0.287 N 
HETATM   14  C11 UNL     1      -1.565   3.875  12.406  1.00  0.00     0.201 A 
HETATM   15  N2  UNL     1      -0.349   4.210  11.929  1.00  0.00    -0.346 N 
HETATM   16  C12 UNL     1      -0.518   4.566  10.658  1.00  0.00     0.198 A 
ATOM     17  H2  UNL     1       0.531   4.194  12.444  1.00  0.00     0.167 HD
HETATM   18  N3  UNL     1      -1.838   4.442  10.373  1.00  0.00    -0.293 N 
ATOM     19  H3  UNL     1      -2.263   4.645   9.468  1.00  0.00     0.188 HD
ENDBRANCH  12  13
ENDBRANCH  11  12
ENDBRANCH   8  11
BRANCH   2  20
HETATM   20  O1  UNL     1      -5.802   2.028  17.963  1.00  0.00    -0.366 OA
ATOM     21  H1  UNL     1      -5.178   1.460  18.398  1.00  0.00     0.213 HD
ENDBRANCH   2  20
TORSDOF 4
ENDMDL
