MODEL 1
REMARK VINA RESULT: -6.071798321      0.000      0.000
REMARK  4 active torsions:
REMARK  status: ('A' for Active; 'I' for Inactive)
REMARK    1  A    between atoms: C2_2  and  N1_4 
REMARK    2  A    between atoms: C7_8  and  C8_9 
REMARK    3  A    between atoms: C8_9  and  N3_14 
REMARK    4  A    between atoms: N2_10  and  O1_12 
ROOT
HETATM    1  C8  UNL     1      -3.409   3.984  14.384  1.00  0.00     0.109 C 
HETATM    2  N2  UNL     1      -2.722   3.653  15.425  1.00  0.00    -0.256 N 
ATOM      3  H2  UNL     1      -3.191   3.285  16.253  1.00  0.00     0.195 HD
ENDROOT
BRANCH   1   4
HETATM    4  C7  UNL     1      -4.882   3.807  14.449  1.00  0.00     0.083 C 
HETATM    5  C6  UNL     1      -5.603   5.052  14.849  1.00  0.00     0.016 C 
HETATM    6  C5  UNL     1      -6.816   4.856  15.689  1.00  0.00     0.031 C 
HETATM    7  C4  UNL     1      -6.644   3.704  16.661  1.00  0.00     0.273 C 
HETATM    8  N1  UNL     1      -6.493   2.512  15.810  1.00  0.00     0.093 N 
HETATM    9  C12 UNL     1      -5.168   2.596  15.252  1.00  0.00     0.285 C 
BRANCH   8  10
HETATM   10  C2  UNL     1      -6.522   1.310  16.642  1.00  0.00     0.215 C 
HETATM   11  C1  UNL     1      -5.307   0.462  16.462  1.00  0.00     0.042 C 
HETATM   12  C3  UNL     1      -6.547   1.803  18.083  1.00  0.00     0.042 C 
ENDBRANCH   8  10
ENDBRANCH   1   4
BRANCH   1  13
HETATM   13  N3  UNL     1      -2.753   4.503  13.223  1.00  0.00    -0.339 N 
HETATM   14  C9  UNL     1      -2.342   3.670  12.165  1.00  0.00     0.076 C 
HETATM   15  C10 UNL     1      -1.084   4.174  11.538  1.00  0.00     0.120 C 
HETATM   16  S1  UNL     1      -1.440   5.978  11.554  1.00  0.00    -0.144 SA
HETATM   17  C11 UNL     1      -2.479   5.896  13.070  1.00  0.00     0.203 C 
ENDBRANCH   1  13
BRANCH   2  18
HETATM   18  O1  UNL     1      -1.363   3.799  15.412  1.00  0.00    -0.288 OA
ATOM     19  H1  UNL     1      -0.818   3.155  15.847  1.00  0.00     0.244 HD
ENDBRANCH   2  18
TORSDOF 4
ENDMDL
MODEL 2
REMARK VINA RESULT: -5.970844738      0.531      1.104
REMARK  4 active torsions:
REMARK  status: ('A' for Active; 'I' for Inactive)
REMARK    1  A    between atoms: C2_2  and  N1_4 
REMARK    2  A    between atoms: C7_8  and  C8_9 
REMARK    3  A    between atoms: C8_9  and  N3_14 
REMARK    4  A    between atoms: N2_10  and  O1_12 
ROOT
HETATM    1  C8  UNL     1      -3.457   3.962  14.377  1.00  0.00     0.109 C 
HETATM    2  N2  UNL     1      -2.750   3.648  15.409  1.00  0.00    -0.256 N 
ATOM      3  H2  UNL     1      -3.201   3.292  16.251  1.00  0.00     0.195 HD
ENDROOT
BRANCH   1   4
HETATM    4  C7  UNL     1      -4.928   3.783  14.473  1.00  0.00     0.083 C 
HETATM    5  C6  UNL     1      -5.641   5.025  14.897  1.00  0.00     0.016 C 
HETATM    6  C5  UNL     1      -6.835   4.823  15.762  1.00  0.00     0.031 C 
HETATM    7  C4  UNL     1      -6.641   3.665  16.723  1.00  0.00     0.273 C 
HETATM    8  N1  UNL     1      -6.508   2.479  15.861  1.00  0.00     0.093 N 
HETATM    9  C12 UNL     1      -5.195   2.568  15.275  1.00  0.00     0.285 C 
BRANCH   8  10
HETATM   10  C2  UNL     1      -6.518   1.271  16.686  1.00  0.00     0.215 C 
HETATM   11  C1  UNL     1      -5.307   0.424  16.471  1.00  0.00     0.042 C 
HETATM   12  C3  UNL     1      -6.509   1.755  18.131  1.00  0.00     0.042 C 
ENDBRANCH   8  10
ENDBRANCH   1   4
BRANCH   1  13
HETATM   13  N3  UNL     1      -2.825   4.464  13.196  1.00  0.00    -0.339 N 
HETATM   14  C9  UNL     1      -2.561   5.836  13.019  1.00  0.00     0.076 C 
HETATM   15  C10 UNL     1      -2.686   6.229  11.583  1.00  0.00     0.120 C 
HETATM   16  S1  UNL     1      -1.900   4.763  10.799  1.00  0.00    -0.144 SA
HETATM   17  C11 UNL     1      -2.424   3.604  12.129  1.00  0.00     0.203 C 
ENDBRANCH   1  13
BRANCH   2  18
HETATM   18  O1  UNL     1      -1.391   3.797  15.367  1.00  0.00    -0.288 OA
ATOM     19  H1  UNL     1      -1.013   4.505  14.859  1.00  0.00     0.244 HD
ENDBRANCH   2  18
TORSDOF 4
ENDMDL
MODEL 3
REMARK VINA RESULT: -5.536447685      2.825      5.842
REMARK  4 active torsions:
REMARK  status: ('A' for Active; 'I' for Inactive)
REMARK    1  A    between atoms: C2_2  and  N1_4 
REMARK    2  A    between atoms: C7_8  and  C8_9 
REMARK    3  A    between atoms: C8_9  and  N3_14 
REMARK    4  A    between atoms: N2_10  and  O1_12 
ROOT
HETATM    1  C8  UNL     1      -4.320   3.511  14.430  1.00  0.00     0.109 C 
HETATM    2  N2  UNL     1      -4.587   3.283  13.188  1.00  0.00    -0.256 N 
ATOM      3  H2  UNL     1      -4.102   3.800  12.455  1.00  0.00     0.195 HD
ENDROOT
BRANCH   1   4
HETATM    4  C7  UNL     1      -3.294   4.541  14.732  1.00  0.00     0.083 C 
HETATM    5  C6  UNL     1      -3.883   5.870  15.075  1.00  0.00     0.016 C 
HETATM    6  C5  UNL     1      -3.112   7.058  14.617  1.00  0.00     0.031 C 
HETATM    7  C4  UNL     1      -2.459   6.816  13.269  1.00  0.00     0.273 C 
HETATM    8  N1  UNL     1      -1.499   5.726  13.506  1.00  0.00     0.093 N 
HETATM    9  C12 UNL     1      -2.292   4.530  13.642  1.00  0.00     0.285 C 
BRANCH   8  10
HETATM   10  C2  UNL     1      -0.664   5.542  12.320  1.00  0.00     0.215 C 
HETATM   11  C1  UNL     1      -0.807   4.179  11.726  1.00  0.00     0.042 C 
HETATM   12  C3  UNL     1      -1.163   6.558  11.300  1.00  0.00     0.042 C 
ENDBRANCH   8  10
ENDBRANCH   1   4
BRANCH   1  13
HETATM   13  N3  UNL     1      -5.002   2.789  15.459  1.00  0.00    -0.339 N 
HETATM   14  C9  UNL     1      -4.403   1.705  16.130  1.00  0.00     0.076 C 
HETATM   15  C10 UNL     1      -5.417   0.670  16.494  1.00  0.00     0.120 C 
HETATM   16  S1  UNL     1      -6.796   1.768  17.017  1.00  0.00    -0.144 SA
HETATM   17  C11 UNL     1      -6.328   3.126  15.867  1.00  0.00     0.203 C 
ENDBRANCH   1  13
BRANCH   2  18
HETATM   18  O1  UNL     1      -5.526   2.343  12.862  1.00  0.00    -0.288 OA
ATOM     19  H1  UNL     1      -5.467   1.472  13.236  1.00  0.00     0.244 HD
ENDBRANCH   2  18
TORSDOF 4
ENDMDL
MODEL 4
REMARK VINA RESULT: -5.469784827      2.852      5.862
REMARK  4 active torsions:
REMARK  status: ('A' for Active; 'I' for Inactive)
REMARK    1  A    between atoms: C2_2  and  N1_4 
REMARK    2  A    between atoms: C7_8  and  C8_9 
REMARK    3  A    between atoms: C8_9  and  N3_14 
REMARK    4  A    between atoms: N2_10  and  O1_12 
ROOT
HETATM    1  C8  UNL     1      -4.503   3.178  14.269  1.00  0.00     0.109 C 
HETATM    2  N2  UNL     1      -4.714   3.031  13.005  1.00  0.00    -0.256 N 
ATOM      3  H2  UNL     1      -4.209   3.605  12.330  1.00  0.00     0.195 HD
ENDROOT
BRANCH   1   4
HETATM    4  C7  UNL     1      -3.511   4.202  14.684  1.00  0.00     0.083 C 
HETATM    5  C6  UNL     1      -4.141   5.488  15.108  1.00  0.00     0.016 C 
HETATM    6  C5  UNL     1      -3.383   6.723  14.769  1.00  0.00     0.031 C 
HETATM    7  C4  UNL     1      -2.681   6.599  13.430  1.00  0.00     0.273 C 
HETATM    8  N1  UNL     1      -1.704   5.513  13.616  1.00  0.00     0.093 N 
HETATM    9  C12 UNL     1      -2.474   4.295  13.632  1.00  0.00     0.285 C 
BRANCH   8  10
HETATM   10  C2  UNL     1      -0.827   5.439  12.448  1.00  0.00     0.215 C 
HETATM   11  C1  UNL     1      -0.941   4.134  11.731  1.00  0.00     0.042 C 
HETATM   12  C3  UNL     1      -1.295   6.541  11.506  1.00  0.00     0.042 C 
ENDBRANCH   8  10
ENDBRANCH   1   4
BRANCH   1  13
HETATM   13  N3  UNL     1      -5.213   2.375  15.216  1.00  0.00    -0.339 N 
HETATM   14  C9  UNL     1      -6.473   2.756  15.718  1.00  0.00     0.076 C 
HETATM   15  C10 UNL     1      -6.643   2.320  17.137  1.00  0.00     0.120 C 
HETATM   16  S1  UNL     1      -5.862   0.658  17.039  1.00  0.00    -0.144 SA
HETATM   17  C11 UNL     1      -4.688   1.142  15.707  1.00  0.00     0.203 C 
ENDBRANCH   1  13
BRANCH   2  18
HETATM   18  O1  UNL     1      -5.620   2.101  12.575  1.00  0.00    -0.288 OA
ATOM     19  H1  UNL     1      -6.201   2.311  11.854  1.00  0.00     0.244 HD
ENDBRANCH   2  18
TORSDOF 4
ENDMDL
MODEL 5
REMARK VINA RESULT: -5.456803351      2.881      5.792
REMARK  4 active torsions:
REMARK  status: ('A' for Active; 'I' for Inactive)
REMARK    1  A    between atoms: C2_2  and  N1_4 
REMARK    2  A    between atoms: C7_8  and  C8_9 
REMARK    3  A    between atoms: C8_9  and  N3_14 
REMARK    4  A    between atoms: N2_10  and  O1_12 
ROOT
HETATM    1  C8  UNL     1      -4.471   2.676  14.831  1.00  0.00     0.109 C 
HETATM    2  N2  UNL     1      -3.235   2.943  15.086  1.00  0.00    -0.256 N 
ATOM      3  H2  UNL     1      -2.669   3.452  14.408  1.00  0.00     0.195 HD
ENDROOT
BRANCH   1   4
HETATM    4  C7  UNL     1      -5.018   3.138  13.530  1.00  0.00     0.083 C 
HETATM    5  C6  UNL     1      -4.794   2.162  12.422  1.00  0.00     0.016 C 
HETATM    6  C5  UNL     1      -4.535   2.753  11.081  1.00  0.00     0.031 C 
HETATM    7  C4  UNL     1      -3.716   4.026  11.178  1.00  0.00     0.273 C 
HETATM    8  N1  UNL     1      -4.570   4.967  11.922  1.00  0.00     0.093 N 
HETATM    9  C12 UNL     1      -4.542   4.520  13.292  1.00  0.00     0.285 C 
BRANCH   8  10
HETATM   10  C2  UNL     1      -3.965   6.298  11.903  1.00  0.00     0.215 C 
HETATM   11  C1  UNL     1      -4.915   7.350  11.433  1.00  0.00     0.042 C 
HETATM   12  C3  UNL     1      -3.593   6.606  13.348  1.00  0.00     0.042 C 
ENDBRANCH   8  10
ENDBRANCH   1   4
BRANCH   1  13
HETATM   13  N3  UNL     1      -5.264   1.958  15.780  1.00  0.00    -0.339 N 
HETATM   14  C9  UNL     1      -6.304   2.577  16.501  1.00  0.00     0.076 C 
HETATM   15  C10 UNL     1      -6.427   2.000  17.873  1.00  0.00     0.120 C 
HETATM   16  S1  UNL     1      -6.153   0.224  17.480  1.00  0.00    -0.144 SA
HETATM   17  C11 UNL     1      -5.050   0.572  16.051  1.00  0.00     0.203 C 
ENDBRANCH   1  13
BRANCH   2  18
HETATM   18  O1  UNL     1      -2.687   2.536  16.271  1.00  0.00    -0.288 OA
ATOM     19  H1  UNL     1      -2.555   1.609  16.433  1.00  0.00     0.244 HD
ENDBRANCH   2  18
TORSDOF 4
ENDMDL
