MODEL 1
REMARK VINA RESULT: -7.180807824      0.000      0.000
REMARK  3 active torsions:
REMARK  status: ('A' for Active; 'I' for Inactive)
REMARK    1  A    between atoms: C2_2  and  C5_6 
REMARK    2  A    between atoms: C7_8  and  C8_9 
REMARK    3  A    between atoms: C7_8  and  N3_17 
ROOT
HETATM    1  C1  UNL     1      -7.685   1.750  16.438  1.00  0.00     0.031 C 
HETATM    2  C2  UNL     1      -6.224   1.561  16.884  1.00  0.00     0.048 C 
HETATM    3  C3  UNL     1      -6.256   1.957  18.382  1.00  0.00     0.031 C 
HETATM    4  C4  UNL     1      -5.787   0.208  16.756  1.00  0.00     0.069 C 
HETATM    5  N1  UNL     1      -5.450  -0.892  16.675  1.00  0.00    -0.196 NA
ENDROOT
BRANCH   2   6
HETATM    6  C5  UNL     1      -5.410   2.576  16.215  1.00  0.00     0.040 A 
HETATM    7  C6  UNL     1      -3.889   2.245  16.268  1.00  0.00     0.043 A 
HETATM    8  C7  UNL     1      -4.625   2.573  15.012  1.00  0.00     0.064 A 
BRANCH   8   9
HETATM    9  C8  UNL     1      -4.354   3.955  14.370  1.00  0.00     0.019 C 
HETATM   10  C9  UNL     1      -5.563   4.857  14.505  1.00  0.00     0.034 C 
HETATM   11  C10 UNL     1      -5.363   6.012  13.546  1.00  0.00     0.232 C 
HETATM   12  N2  UNL     1      -3.975   6.307  13.395  1.00  0.00    -0.075 N 
HETATM   13  C11 UNL     1      -3.189   6.083  14.587  1.00  0.00     0.232 C 
ATOM     14  H22 UNL     1      -3.584   5.790  12.607  1.00  0.00     0.277 HD
ATOM     15  H21 UNL     1      -3.847   7.260  13.057  1.00  0.00     0.277 HD
HETATM   16  C12 UNL     1      -3.150   4.626  14.973  1.00  0.00     0.034 C 
ENDBRANCH   8   9
BRANCH   8  17
HETATM   17  N3  UNL     1      -4.583   1.542  14.007  1.00  0.00    -0.276 N 
HETATM   18  C13 UNL     1      -4.987   1.694  12.745  1.00  0.00     0.202 A 
HETATM   19  N4  UNL     1      -4.809   0.520  12.106  1.00  0.00    -0.346 N 
HETATM   20  C14 UNL     1      -4.293  -0.353  12.984  1.00  0.00     0.198 A 
ATOM     21  H4  UNL     1      -5.028   0.329  11.128  1.00  0.00     0.167 HD
HETATM   22  N5  UNL     1      -4.166   0.308  14.143  1.00  0.00    -0.292 N 
ATOM     23  H5  UNL     1      -3.798  -0.092  15.007  1.00  0.00     0.188 HD
ENDBRANCH   8  17
ENDBRANCH   2   6
TORSDOF 3
ENDMDL
MODEL 2
REMARK VINA RESULT: -6.715496654      1.374      4.720
REMARK  3 active torsions:
REMARK  status: ('A' for Active; 'I' for Inactive)
REMARK    1  A    between atoms: C2_2  and  C5_6 
REMARK    2  A    between atoms: C7_8  and  C8_9 
REMARK    3  A    between atoms: C7_8  and  N3_17 
ROOT
HETATM    1  C1  UNL     1      -1.956   4.258  15.216  1.00  0.00     0.031 C 
HETATM    2  C2  UNL     1      -3.220   4.685  14.451  1.00  0.00     0.048 C 
HETATM    3  C3  UNL     1      -3.365   6.185  14.813  1.00  0.00     0.031 C 
HETATM    4  C4  UNL     1      -3.074   4.546  13.038  1.00  0.00     0.069 C 
HETATM    5  N1  UNL     1      -2.939   4.458  11.896  1.00  0.00    -0.196 NA
ENDROOT
BRANCH   2   6
HETATM    6  C5  UNL     1      -4.368   4.011  15.058  1.00  0.00     0.040 A 
HETATM    7  C6  UNL     1      -5.701   4.324  14.315  1.00  0.00     0.043 A 
HETATM    8  C7  UNL     1      -5.227   2.943  14.624  1.00  0.00     0.064 A 
BRANCH   8   9
HETATM    9  C8  UNL     1      -5.971   2.169  15.738  1.00  0.00     0.019 C 
HETATM   10  C9  UNL     1      -4.991   1.438  16.632  1.00  0.00     0.034 C 
HETATM   11  C10 UNL     1      -5.788   0.429  17.431  1.00  0.00     0.232 C 
HETATM   12  N2  UNL     1      -7.111   0.909  17.671  1.00  0.00    -0.075 N 
HETATM   13  C11 UNL     1      -7.200   2.342  17.833  1.00  0.00     0.232 C 
ATOM     14  H22 UNL     1      -7.743   0.592  16.936  1.00  0.00     0.277 HD
ATOM     15  H21 UNL     1      -7.524   0.432  18.472  1.00  0.00     0.277 HD
HETATM   16  C12 UNL     1      -6.834   3.078  16.570  1.00  0.00     0.034 C 
ENDBRANCH   8   9
BRANCH   8  17
HETATM   17  N3  UNL     1      -5.045   2.101  13.470  1.00  0.00    -0.276 N 
HETATM   18  C13 UNL     1      -4.439   0.913  13.485  1.00  0.00     0.202 A 
HETATM   19  N4  UNL     1      -4.447   0.425  12.227  1.00  0.00    -0.346 N 
HETATM   20  C14 UNL     1      -5.061   1.322  11.441  1.00  0.00     0.198 A 
ATOM     21  H4  UNL     1      -4.055  -0.467  11.926  1.00  0.00     0.167 HD
HETATM   22  N5  UNL     1      -5.417   2.341  12.237  1.00  0.00    -0.292 N 
ATOM     23  H5  UNL     1      -5.905   3.181  11.927  1.00  0.00     0.188 HD
ENDBRANCH   8  17
ENDBRANCH   2   6
TORSDOF 3
ENDMDL
MODEL 3
REMARK VINA RESULT: -6.444916131      1.548      5.095
REMARK  3 active torsions:
REMARK  status: ('A' for Active; 'I' for Inactive)
REMARK    1  A    between atoms: C2_2  and  C5_6 
REMARK    2  A    between atoms: C7_8  and  C8_9 
REMARK    3  A    between atoms: C7_8  and  N3_17 
ROOT
HETATM    1  C1  UNL     1      -1.985   5.392  14.362  1.00  0.00     0.031 C 
HETATM    2  C2  UNL     1      -3.379   6.042  14.393  1.00  0.00     0.048 C 
HETATM    3  C3  UNL     1      -3.257   7.091  15.528  1.00  0.00     0.031 C 
HETATM    4  C4  UNL     1      -3.701   6.699  13.168  1.00  0.00     0.069 C 
HETATM    5  N1  UNL     1      -3.942   7.251  12.184  1.00  0.00    -0.196 NA
ENDROOT
BRANCH   2   6
HETATM    6  C5  UNL     1      -4.336   5.042  14.869  1.00  0.00     0.040 A 
HETATM    7  C6  UNL     1      -5.760   5.254  14.272  1.00  0.00     0.043 A 
HETATM    8  C7  UNL     1      -5.025   3.955  14.229  1.00  0.00     0.064 A 
BRANCH   8   9
HETATM    9  C8  UNL     1      -5.526   2.823  15.157  1.00  0.00     0.019 C 
HETATM   10  C9  UNL     1      -4.388   2.261  15.983  1.00  0.00     0.034 C 
HETATM   11  C10 UNL     1      -4.868   0.946  16.560  1.00  0.00     0.232 C 
HETATM   12  N2  UNL     1      -6.275   0.981  16.790  1.00  0.00    -0.075 N 
HETATM   13  C11 UNL     1      -6.780   2.280  17.173  1.00  0.00     0.232 C 
ATOM     14  H22 UNL     1      -6.779   0.627  15.977  1.00  0.00     0.277 HD
ATOM     15  H21 UNL     1      -6.542   0.277  17.478  1.00  0.00     0.277 HD
HETATM   16  C12 UNL     1      -6.628   3.293  16.067  1.00  0.00     0.034 C 
ENDBRANCH   8   9
BRANCH   8  17
HETATM   17  N3  UNL     1      -4.793   3.444  12.902  1.00  0.00    -0.276 N 
HETATM   18  C13 UNL     1      -4.960   2.171  12.539  1.00  0.00     0.202 A 
HETATM   19  N4  UNL     1      -4.639   2.065  11.233  1.00  0.00    -0.346 N 
HETATM   20  C14 UNL     1      -4.273   3.280  10.799  1.00  0.00     0.198 A 
ATOM     21  H4  UNL     1      -4.668   1.212  10.675  1.00  0.00     0.167 HD
HETATM   22  N5  UNL     1      -4.380   4.105  11.850  1.00  0.00    -0.292 N 
ATOM     23  H5  UNL     1      -4.169   5.103  11.833  1.00  0.00     0.188 HD
ENDBRANCH   8  17
ENDBRANCH   2   6
TORSDOF 3
ENDMDL
MODEL 4
REMARK VINA RESULT: -6.361108416      0.897      1.102
REMARK  3 active torsions:
REMARK  status: ('A' for Active; 'I' for Inactive)
REMARK    1  A    between atoms: C2_2  and  C5_6 
REMARK    2  A    between atoms: C7_8  and  C8_9 
REMARK    3  A    between atoms: C7_8  and  N3_17 
ROOT
HETATM    1  C1  UNL     1      -7.494   2.220  15.684  1.00  0.00     0.031 C 
HETATM    2  C2  UNL     1      -6.220   2.008  16.521  1.00  0.00     0.048 C 
HETATM    3  C3  UNL     1      -6.577   2.660  17.882  1.00  0.00     0.031 C 
HETATM    4  C4  UNL     1      -5.921   0.626  16.716  1.00  0.00     0.069 C 
HETATM    5  N1  UNL     1      -5.700  -0.492  16.893  1.00  0.00    -0.196 NA
ENDROOT
BRANCH   2   6
HETATM    6  C5  UNL     1      -5.157   2.832  15.946  1.00  0.00     0.040 A 
HETATM    7  C6  UNL     1      -3.771   2.121  15.983  1.00  0.00     0.043 A 
HETATM    8  C7  UNL     1      -4.363   2.724  14.753  1.00  0.00     0.064 A 
BRANCH   8   9
HETATM    9  C8  UNL     1      -3.733   4.037  14.230  1.00  0.00     0.019 C 
HETATM   10  C9  UNL     1      -4.698   5.194  14.380  1.00  0.00     0.034 C 
HETATM   11  C10 UNL     1      -4.171   6.325  13.522  1.00  0.00     0.232 C 
HETATM   12  N2  UNL     1      -2.746   6.284  13.455  1.00  0.00    -0.075 N 
HETATM   13  C11 UNL     1      -2.111   5.803  14.661  1.00  0.00     0.232 C 
ATOM     14  H22 UNL     1      -2.442   5.740  12.649  1.00  0.00     0.277 HD
ATOM     15  H21 UNL     1      -2.375   7.198  13.197  1.00  0.00     0.277 HD
HETATM   16  C12 UNL     1      -2.443   4.358  14.936  1.00  0.00     0.034 C 
ENDBRANCH   8   9
BRANCH   8  17
HETATM   17  N3  UNL     1      -4.555   1.798  13.666  1.00  0.00    -0.276 N 
HETATM   18  C13 UNL     1      -4.258   0.499  13.713  1.00  0.00     0.202 A 
HETATM   19  N4  UNL     1      -4.560  -0.042  12.515  1.00  0.00    -0.346 N 
HETATM   20  C14 UNL     1      -5.044   0.934  11.733  1.00  0.00     0.198 A 
ATOM     21  H4  UNL     1      -4.442  -1.020  12.250  1.00  0.00     0.167 HD
HETATM   22  N5  UNL     1      -5.028   2.053  12.472  1.00  0.00    -0.292 N 
ATOM     23  H5  UNL     1      -5.338   2.970  12.149  1.00  0.00     0.188 HD
ENDBRANCH   8  17
ENDBRANCH   2   6
TORSDOF 3
ENDMDL
MODEL 5
REMARK VINA RESULT: -6.302492119      0.697      1.289
REMARK  3 active torsions:
REMARK  status: ('A' for Active; 'I' for Inactive)
REMARK    1  A    between atoms: C2_2  and  C5_6 
REMARK    2  A    between atoms: C7_8  and  C8_9 
REMARK    3  A    between atoms: C7_8  and  N3_17 
ROOT
HETATM    1  C1  UNL     1      -7.557   2.088  16.367  1.00  0.00     0.031 C 
HETATM    2  C2  UNL     1      -6.157   1.708  16.880  1.00  0.00     0.048 C 
HETATM    3  C3  UNL     1      -6.265   1.937  18.409  1.00  0.00     0.031 C 
HETATM    4  C4  UNL     1      -5.835   0.341  16.623  1.00  0.00     0.069 C 
HETATM    5  N1  UNL     1      -5.593  -0.771  16.436  1.00  0.00    -0.196 NA
ENDROOT
BRANCH   2   6
HETATM    6  C5  UNL     1      -5.207   2.706  16.388  1.00  0.00     0.040 A 
HETATM    7  C6  UNL     1      -3.748   2.162  16.339  1.00  0.00     0.043 A 
HETATM    8  C7  UNL     1      -4.429   2.817  15.184  1.00  0.00     0.064 A 
BRANCH   8   9
HETATM    9  C8  UNL     1      -3.965   4.242  14.800  1.00  0.00     0.019 C 
HETATM   10  C9  UNL     1      -2.717   4.189  13.944  1.00  0.00     0.034 C 
HETATM   11  C10 UNL     1      -2.126   5.584  13.934  1.00  0.00     0.232 C 
HETATM   12  N2  UNL     1      -3.155   6.566  14.048  1.00  0.00    -0.075 N 
HETATM   13  C11 UNL     1      -4.399   6.196  13.413  1.00  0.00     0.232 C 
ATOM     14  H22 UNL     1      -3.310   6.809  15.026  1.00  0.00     0.277 HD
ATOM     15  H21 UNL     1      -2.829   7.466  13.696  1.00  0.00     0.277 HD
HETATM   16  C12 UNL     1      -5.042   5.007  14.080  1.00  0.00     0.034 C 
ENDBRANCH   8   9
BRANCH   8  17
HETATM   17  N3  UNL     1      -4.534   1.995  14.006  1.00  0.00    -0.276 N 
HETATM   18  C13 UNL     1      -5.180   2.343  12.892  1.00  0.00     0.202 A 
HETATM   19  N4  UNL     1      -5.075   1.324  12.014  1.00  0.00    -0.346 N 
HETATM   20  C14 UNL     1      -4.361   0.350  12.597  1.00  0.00     0.198 A 
ATOM     21  H4  UNL     1      -5.468   1.299  11.073  1.00  0.00     0.167 HD
HETATM   22  N5  UNL     1      -4.044   0.795  13.821  1.00  0.00    -0.292 N 
ATOM     23  H5  UNL     1      -3.501   0.273  14.509  1.00  0.00     0.188 HD
ENDBRANCH   8  17
ENDBRANCH   2   6
TORSDOF 3
ENDMDL
