MODEL 1
REMARK VINA RESULT: -6.809276708      0.000      0.000
REMARK  6 active torsions:
REMARK  status: ('A' for Active; 'I' for Inactive)
REMARK    1  A    between atoms: C2_2  and  N1_3 
REMARK    2  A    between atoms: C2_2  and  N7_29 
REMARK    3  A    between atoms: N1_3  and  C3_5 
REMARK    4  A    between atoms: C4_8  and  C5_9 
REMARK    5  A    between atoms: C12_18  and  N4_19 
REMARK    6  A    between atoms: N4_19  and  C14_21 
ROOT
HETATM    1  C3  UNL     1      -2.687   4.531  13.969  1.00  0.00     0.682 A 
HETATM    2  N2  UNL     1      -3.585   4.042  14.849  1.00  0.00    -0.189 N 
ATOM      3  H2  UNL     1      -3.820   4.611  15.662  1.00  0.00     0.184 HD
HETATM    4  C4  UNL     1      -4.188   2.848  14.718  1.00  0.00     0.090 A 
HETATM    5  C11 UNL     1      -3.823   2.116  13.584  1.00  0.00     0.122 A 
HETATM    6  N3  UNL     1      -4.216   0.938  13.167  1.00  0.00    -0.185 N 
ATOM      7  H3  UNL     1      -4.894   0.340  13.640  1.00  0.00     0.184 HD
HETATM    8  C12 UNL     1      -3.576   0.636  12.000  1.00  0.00     0.684 A 
HETATM    9  N5  UNL     1      -2.773   1.671  11.709  1.00  0.00    -0.170 N 
HETATM   10  C17 UNL     1      -1.885   1.856  10.592  1.00  0.00     0.177 C 
HETATM   11  C18 UNL     1      -2.908   2.621  12.691  1.00  0.00     0.168 A 
HETATM   12  N6  UNL     1      -2.336   3.830  12.879  1.00  0.00    -0.174 N 
ATOM     13  H6  UNL     1      -1.657   4.199  12.213  1.00  0.00     0.186 HD
ENDROOT
BRANCH   1  14
HETATM   14  N1  UNL     1      -2.208   5.664  14.230  1.00  0.00    -0.194 N 
ATOM     15  H1  UNL     1      -1.292   5.621  14.676  1.00  0.00     0.180 HD
BRANCH  14  16
HETATM   16  C2  UNL     1      -2.668   6.975  14.035  1.00  0.00     0.331 C 
HETATM   17  C1  UNL     1      -2.076   8.033  14.893  1.00  0.00     0.066 C 
BRANCH  16  18
HETATM   18  N7  UNL     1      -2.555   7.292  12.601  1.00  0.00     0.102 N 
HETATM   19  C19 UNL     1      -1.905   8.566  12.393  1.00  0.00     0.312 C 
HETATM   20  C20 UNL     1      -3.936   7.358  12.112  1.00  0.00     0.312 C 
ENDBRANCH  16  18
ENDBRANCH  14  16
ENDBRANCH   1  14
BRANCH   4  21
HETATM   21  C5  UNL     1      -5.159   2.344  15.687  1.00  0.00    -0.006 A 
HETATM   22  C6  UNL     1      -6.329   3.042  15.898  1.00  0.00     0.014 A 
HETATM   23  C7  UNL     1      -7.233   2.546  16.819  1.00  0.00     0.001 A 
HETATM   24  C8  UNL     1      -6.957   1.382  17.502  1.00  0.00     0.000 A 
HETATM   25  C9  UNL     1      -5.789   0.679  17.295  1.00  0.00     0.001 A 
HETATM   26  C10 UNL     1      -4.872   1.158  16.378  1.00  0.00     0.014 A 
ENDBRANCH   4  21
BRANCH   8  27
HETATM   27  N4  UNL     1      -3.788  -0.571  11.307  1.00  0.00    -0.218 N 
HETATM   28  C13 UNL     1      -4.670  -0.658  10.122  1.00  0.00     0.169 C 
BRANCH  27  29
HETATM   29  C14 UNL     1      -3.180  -1.813  11.677  1.00  0.00     0.093 C 
HETATM   30  C15 UNL     1      -3.798  -3.072  11.236  1.00  0.00     0.032 C 
HETATM   31  C16 UNL     1      -1.714  -1.824  11.209  1.00  0.00     0.032 C 
ENDBRANCH  27  29
ENDBRANCH   8  27
TORSDOF 6
ENDMDL
MODEL 2
REMARK VINA RESULT: -6.671014721      3.307      6.343
REMARK  6 active torsions:
REMARK  status: ('A' for Active; 'I' for Inactive)
REMARK    1  A    between atoms: C2_2  and  N1_3 
REMARK    2  A    between atoms: C2_2  and  N7_29 
REMARK    3  A    between atoms: N1_3  and  C3_5 
REMARK    4  A    between atoms: C4_8  and  C5_9 
REMARK    5  A    between atoms: C12_18  and  N4_19 
REMARK    6  A    between atoms: N4_19  and  C14_21 
ROOT
HETATM    1  C3  UNL     1      -0.134   5.178  12.020  1.00  0.00     0.682 A 
HETATM    2  N2  UNL     1      -0.889   4.259  12.657  1.00  0.00    -0.189 N 
ATOM      3  H2  UNL     1      -0.412   3.521  13.174  1.00  0.00     0.184 HD
HETATM    4  C4  UNL     1      -2.233   4.258  12.649  1.00  0.00     0.090 A 
HETATM    5  C11 UNL     1      -2.826   5.296  11.922  1.00  0.00     0.122 A 
HETATM    6  N3  UNL     1      -4.088   5.578  11.715  1.00  0.00    -0.185 N 
ATOM      7  H3  UNL     1      -4.879   5.048  12.080  1.00  0.00     0.184 HD
HETATM    8  C12 UNL     1      -4.179   6.694  10.935  1.00  0.00     0.684 A 
HETATM    9  N5  UNL     1      -2.926   7.093  10.666  1.00  0.00    -0.170 N 
HETATM   10  C17 UNL     1      -2.468   8.212   9.886  1.00  0.00     0.177 C 
HETATM   11  C18 UNL     1      -2.051   6.229  11.277  1.00  0.00     0.168 A 
HETATM   12  N6  UNL     1      -0.702   6.175  11.322  1.00  0.00    -0.174 N 
ATOM     13  H6  UNL     1      -0.131   6.871  10.841  1.00  0.00     0.186 HD
ENDROOT
BRANCH   1  14
HETATM   14  N1  UNL     1       1.113   5.045  12.120  1.00  0.00    -0.194 N 
ATOM     15  H1  UNL     1       1.493   5.447  12.976  1.00  0.00     0.180 HD
BRANCH  14  16
HETATM   16  C2  UNL     1       2.090   4.461  11.301  1.00  0.00     0.331 C 
HETATM   17  C1  UNL     1       1.644   3.940   9.984  1.00  0.00     0.066 C 
BRANCH  16  18
HETATM   18  N7  UNL     1       3.209   5.411  11.174  1.00  0.00     0.102 N 
HETATM   19  C19 UNL     1       4.063   5.073  10.059  1.00  0.00     0.312 C 
HETATM   20  C20 UNL     1       3.963   5.285  12.426  1.00  0.00     0.312 C 
ENDBRANCH  16  18
ENDBRANCH  14  16
ENDBRANCH   1  14
BRANCH   4  21
HETATM   21  C5  UNL     1      -3.026   3.250  13.349  1.00  0.00    -0.006 A 
HETATM   22  C6  UNL     1      -3.467   2.140  12.662  1.00  0.00     0.014 A 
HETATM   23  C7  UNL     1      -4.216   1.199  13.344  1.00  0.00     0.001 A 
HETATM   24  C8  UNL     1      -4.507   1.381  14.679  1.00  0.00     0.000 A 
HETATM   25  C9  UNL     1      -4.068   2.490  15.372  1.00  0.00     0.001 A 
HETATM   26  C10 UNL     1      -3.317   3.442  14.707  1.00  0.00     0.014 A 
ENDBRANCH   4  21
BRANCH   8  27
HETATM   27  N4  UNL     1      -5.412   7.245  10.536  1.00  0.00    -0.218 N 
HETATM   28  C13 UNL     1      -6.129   6.785   9.326  1.00  0.00     0.169 C 
BRANCH  27  29
HETATM   29  C14 UNL     1      -6.080   8.289  11.252  1.00  0.00     0.093 C 
HETATM   30  C15 UNL     1      -6.258   9.598  10.607  1.00  0.00     0.032 C 
HETATM   31  C16 UNL     1      -7.468   7.796  11.698  1.00  0.00     0.032 C 
ENDBRANCH  27  29
ENDBRANCH   8  27
TORSDOF 6
ENDMDL
MODEL 3
REMARK VINA RESULT: -6.645648278      3.331      6.349
REMARK  6 active torsions:
REMARK  status: ('A' for Active; 'I' for Inactive)
REMARK    1  A    between atoms: C2_2  and  N1_3 
REMARK    2  A    between atoms: C2_2  and  N7_29 
REMARK    3  A    between atoms: N1_3  and  C3_5 
REMARK    4  A    between atoms: C4_8  and  C5_9 
REMARK    5  A    between atoms: C12_18  and  N4_19 
REMARK    6  A    between atoms: N4_19  and  C14_21 
ROOT
HETATM    1  C3  UNL     1       0.188   4.216  11.560  1.00  0.00     0.682 A 
HETATM    2  N2  UNL     1      -0.527   3.075  11.653  1.00  0.00    -0.189 N 
ATOM      3  H2  UNL     1      -0.022   2.206  11.822  1.00  0.00     0.184 HD
HETATM    4  C4  UNL     1      -1.864   3.018  11.537  1.00  0.00     0.090 A 
HETATM    5  C11 UNL     1      -2.497   4.244  11.307  1.00  0.00     0.122 A 
HETATM    6  N3  UNL     1      -3.765   4.532  11.148  1.00  0.00    -0.185 N 
ATOM      7  H3  UNL     1      -4.530   3.859  11.171  1.00  0.00     0.184 HD
HETATM    8  C12 UNL     1      -3.900   5.875  10.946  1.00  0.00     0.684 A 
HETATM    9  N5  UNL     1      -2.669   6.408  10.987  1.00  0.00    -0.170 N 
HETATM   10  C17 UNL     1      -2.259   7.779  10.833  1.00  0.00     0.177 C 
HETATM   11  C18 UNL     1      -1.763   5.402  11.214  1.00  0.00     0.168 A 
HETATM   12  N6  UNL     1      -0.418   5.395  11.340  1.00  0.00    -0.174 N 
ATOM     13  H6  UNL     1       0.121   6.257  11.270  1.00  0.00     0.186 HD
ENDROOT
BRANCH   1  14
HETATM   14  N1  UNL     1       1.434   4.109  11.690  1.00  0.00    -0.194 N 
ATOM     15  H1  UNL     1       1.715   3.772  12.610  1.00  0.00     0.180 HD
BRANCH  14  16
HETATM   16  C2  UNL     1       2.519   4.355  10.835  1.00  0.00     0.331 C 
HETATM   17  C1  UNL     1       2.274   4.221   9.377  1.00  0.00     0.066 C 
BRANCH  16  18
HETATM   18  N7  UNL     1       3.089   5.668  11.186  1.00  0.00     0.102 N 
HETATM   19  C19 UNL     1       3.999   6.136  10.166  1.00  0.00     0.312 C 
HETATM   20  C20 UNL     1       3.823   5.446  12.436  1.00  0.00     0.312 C 
ENDBRANCH  16  18
ENDBRANCH  14  16
ENDBRANCH   1  14
BRANCH   4  21
HETATM   21  C5  UNL     1      -2.612   1.767  11.644  1.00  0.00    -0.006 A 
HETATM   22  C6  UNL     1      -2.262   0.699  10.847  1.00  0.00     0.014 A 
HETATM   23  C7  UNL     1      -2.984  -0.474  10.965  1.00  0.00     0.001 A 
HETATM   24  C8  UNL     1      -4.026  -0.558  11.862  1.00  0.00     0.000 A 
HETATM   25  C9  UNL     1      -4.381   0.507  12.663  1.00  0.00     0.001 A 
HETATM   26  C10 UNL     1      -3.671   1.689  12.560  1.00  0.00     0.014 A 
ENDBRANCH   4  21
BRANCH   8  27
HETATM   27  N4  UNL     1      -5.150   6.491  10.739  1.00  0.00    -0.218 N 
HETATM   28  C13 UNL     1      -5.840   6.456   9.431  1.00  0.00     0.169 C 
BRANCH  27  29
HETATM   29  C14 UNL     1      -5.861   7.200  11.759  1.00  0.00     0.093 C 
HETATM   30  C15 UNL     1      -7.149   7.825  11.429  1.00  0.00     0.032 C 
HETATM   31  C16 UNL     1      -6.088   6.270  12.963  1.00  0.00     0.032 C 
ENDBRANCH  27  29
ENDBRANCH   8  27
TORSDOF 6
ENDMDL
MODEL 4
REMARK VINA RESULT: -6.619697516      3.159      6.322
REMARK  6 active torsions:
REMARK  status: ('A' for Active; 'I' for Inactive)
REMARK    1  A    between atoms: C2_2  and  N1_3 
REMARK    2  A    between atoms: C2_2  and  N7_29 
REMARK    3  A    between atoms: N1_3  and  C3_5 
REMARK    4  A    between atoms: C4_8  and  C5_9 
REMARK    5  A    between atoms: C12_18  and  N4_19 
REMARK    6  A    between atoms: N4_19  and  C14_21 
ROOT
HETATM    1  C3  UNL     1      -0.020   4.161  11.721  1.00  0.00     0.682 A 
HETATM    2  N2  UNL     1      -0.693   2.992  11.683  1.00  0.00    -0.189 N 
ATOM      3  H2  UNL     1      -0.159   2.135  11.538  1.00  0.00     0.184 HD
HETATM    4  C4  UNL     1      -2.025   2.890  11.826  1.00  0.00     0.090 A 
HETATM    5  C11 UNL     1      -2.699   4.100  12.022  1.00  0.00     0.122 A 
HETATM    6  N3  UNL     1      -3.974   4.348  12.191  1.00  0.00    -0.185 N 
ATOM      7  H3  UNL     1      -4.714   3.647  12.207  1.00  0.00     0.184 HD
HETATM    8  C12 UNL     1      -4.155   5.692  12.342  1.00  0.00     0.684 A 
HETATM    9  N5  UNL     1      -2.946   6.268  12.262  1.00  0.00    -0.170 N 
HETATM   10  C17 UNL     1      -2.584   7.657  12.355  1.00  0.00     0.177 C 
HETATM   11  C18 UNL     1      -2.007   5.287  12.060  1.00  0.00     0.168 A 
HETATM   12  N6  UNL     1      -0.665   5.323  11.909  1.00  0.00    -0.174 N 
ATOM     13  H6  UNL     1      -0.157   6.207  11.938  1.00  0.00     0.186 HD
ENDROOT
BRANCH   1  14
HETATM   14  N1  UNL     1       1.227   4.094  11.570  1.00  0.00    -0.194 N 
ATOM     15  H1  UNL     1       1.732   3.969  12.447  1.00  0.00     0.180 HD
BRANCH  14  16
HETATM   16  C2  UNL     1       2.069   4.156  10.450  1.00  0.00     0.331 C 
HETATM   17  C1  UNL     1       1.419   4.157   9.115  1.00  0.00     0.066 C 
BRANCH  16  18
HETATM   18  N7  UNL     1       2.983   5.298  10.627  1.00  0.00     0.102 N 
HETATM   19  C19 UNL     1       4.123   5.203   9.744  1.00  0.00     0.312 C 
HETATM   20  C20 UNL     1       3.432   5.219  12.020  1.00  0.00     0.312 C 
ENDBRANCH  16  18
ENDBRANCH  14  16
ENDBRANCH   1  14
BRANCH   4  21
HETATM   21  C5  UNL     1      -2.728   1.610  11.782  1.00  0.00    -0.006 A 
HETATM   22  C6  UNL     1      -3.801   1.399  12.621  1.00  0.00     0.014 A 
HETATM   23  C7  UNL     1      -4.452   0.180  12.563  1.00  0.00     0.001 A 
HETATM   24  C8  UNL     1      -4.025  -0.791  11.683  1.00  0.00     0.000 A 
HETATM   25  C9  UNL     1      -2.952  -0.586  10.841  1.00  0.00     0.001 A 
HETATM   26  C10 UNL     1      -2.289   0.627  10.884  1.00  0.00     0.014 A 
ENDBRANCH   4  21
BRANCH   8  27
HETATM   27  N4  UNL     1      -5.425   6.270  12.539  1.00  0.00    -0.218 N 
HETATM   28  C13 UNL     1      -6.306   5.880  13.662  1.00  0.00     0.169 C 
BRANCH  27  29
HETATM   29  C14 UNL     1      -5.977   7.276  11.683  1.00  0.00     0.093 C 
HETATM   30  C15 UNL     1      -5.910   7.091  10.227  1.00  0.00     0.032 C 
HETATM   31  C16 UNL     1      -7.451   7.512  12.057  1.00  0.00     0.032 C 
ENDBRANCH  27  29
ENDBRANCH   8  27
TORSDOF 6
ENDMDL
MODEL 5
REMARK VINA RESULT: -6.608682935      3.248      6.243
REMARK  6 active torsions:
REMARK  status: ('A' for Active; 'I' for Inactive)
REMARK    1  A    between atoms: C2_2  and  N1_3 
REMARK    2  A    between atoms: C2_2  and  N7_29 
REMARK    3  A    between atoms: N1_3  and  C3_5 
REMARK    4  A    between atoms: C4_8  and  C5_9 
REMARK    5  A    between atoms: C12_18  and  N4_19 
REMARK    6  A    between atoms: N4_19  and  C14_21 
ROOT
HETATM    1  C3  UNL     1       0.021   4.161  11.722  1.00  0.00     0.682 A 
HETATM    2  N2  UNL     1      -0.652   2.993  11.684  1.00  0.00    -0.189 N 
ATOM      3  H2  UNL     1      -0.119   2.136  11.536  1.00  0.00     0.184 HD
HETATM    4  C4  UNL     1      -1.984   2.891  11.828  1.00  0.00     0.090 A 
HETATM    5  C11 UNL     1      -2.657   4.102  12.027  1.00  0.00     0.122 A 
HETATM    6  N3  UNL     1      -3.932   4.350  12.198  1.00  0.00    -0.185 N 
ATOM      7  H3  UNL     1      -4.673   3.649  12.214  1.00  0.00     0.184 HD
HETATM    8  C12 UNL     1      -4.113   5.694  12.351  1.00  0.00     0.684 A 
HETATM    9  N5  UNL     1      -2.903   6.269  12.270  1.00  0.00    -0.170 N 
HETATM   10  C17 UNL     1      -2.540   7.658  12.365  1.00  0.00     0.177 C 
HETATM   11  C18 UNL     1      -1.965   5.287  12.065  1.00  0.00     0.168 A 
HETATM   12  N6  UNL     1      -0.623   5.324  11.913  1.00  0.00    -0.174 N 
ATOM     13  H6  UNL     1      -0.114   6.207  11.943  1.00  0.00     0.186 HD
ENDROOT
BRANCH   1  14
HETATM   14  N1  UNL     1       1.268   4.094  11.570  1.00  0.00    -0.194 N 
ATOM     15  H1  UNL     1       1.652   3.176  11.793  1.00  0.00     0.180 HD
BRANCH  14  16
HETATM   16  C2  UNL     1       2.241   5.016  11.157  1.00  0.00     0.331 C 
HETATM   17  C1  UNL     1       3.404   5.219  12.059  1.00  0.00     0.066 C 
BRANCH  16  18
HETATM   18  N7  UNL     1       2.653   4.665   9.787  1.00  0.00     0.102 N 
HETATM   19  C19 UNL     1       4.075   4.844   9.601  1.00  0.00     0.312 C 
HETATM   20  C20 UNL     1       1.923   5.593   8.917  1.00  0.00     0.312 C 
ENDBRANCH  16  18
ENDBRANCH  14  16
ENDBRANCH   1  14
BRANCH   4  21
HETATM   21  C5  UNL     1      -2.688   1.611  11.783  1.00  0.00    -0.006 A 
HETATM   22  C6  UNL     1      -3.801   1.424  12.574  1.00  0.00     0.014 A 
HETATM   23  C7  UNL     1      -4.451   0.205  12.516  1.00  0.00     0.001 A 
HETATM   24  C8  UNL     1      -3.985  -0.789  11.683  1.00  0.00     0.000 A 
HETATM   25  C9  UNL     1      -2.872  -0.607  10.889  1.00  0.00     0.001 A 
HETATM   26  C10 UNL     1      -2.208   0.605  10.933  1.00  0.00     0.014 A 
ENDBRANCH   4  21
BRANCH   8  27
HETATM   27  N4  UNL     1      -5.381   6.272  12.551  1.00  0.00    -0.218 N 
HETATM   28  C13 UNL     1      -6.251   5.899  13.688  1.00  0.00     0.169 C 
BRANCH  27  29
HETATM   29  C14 UNL     1      -5.944   7.263  11.683  1.00  0.00     0.093 C 
HETATM   30  C15 UNL     1      -5.864   7.068  10.229  1.00  0.00     0.032 C 
HETATM   31  C16 UNL     1      -7.424   7.476  12.045  1.00  0.00     0.032 C 
ENDBRANCH  27  29
ENDBRANCH   8  27
TORSDOF 6
ENDMDL
