MODEL 1
REMARK VINA RESULT: -8.267213535      0.000      0.000
REMARK  5 active torsions:
REMARK  status: ('A' for Active; 'I' for Inactive)
REMARK    1  A    between atoms: O1_2  and  C2_3 
REMARK    2  A    between atoms: C6_9  and  C7_10 
REMARK    3  A    between atoms: C7_10  and  C12_18 
REMARK       I    between atoms: N2_11  and  C8_13 
REMARK    4  A    between atoms: C8_13  and  C9_15 
REMARK       I    between atoms: C12_18  and  N3_20 
REMARK    5  A    between atoms: N3_20  and  C13_22 
ROOT
HETATM    1  C7  UNL     1      -4.014   2.756  14.070  1.00  0.00     0.130 C 
HETATM    2  N2  UNL     1      -5.066   2.332  14.620  1.00  0.00    -0.320 N 
ATOM      3  H2  UNL     1      -5.364   1.460  14.185  1.00  0.00     0.169 HD
HETATM    4  C8  UNL     1      -5.924   2.679  15.614  1.00  0.00     0.225 C 
HETATM    5  O2  UNL     1      -6.679   3.704  15.497  1.00  0.00    -0.273 OA
ENDROOT
BRANCH   1   6
HETATM    6  C6  UNL     1      -3.498   1.921  12.981  1.00  0.00     0.067 A 
HETATM    7  N1  UNL     1      -2.482   2.437  12.225  1.00  0.00    -0.358 N 
HETATM    8  C4  UNL     1      -1.906   1.801  11.200  1.00  0.00     0.008 A 
ATOM      9  H1  UNL     1      -2.141   3.370  12.459  1.00  0.00     0.166 HD
HETATM   10  C3  UNL     1      -2.372   0.537  10.886  1.00  0.00     0.061 A 
HETATM   11  C5  UNL     1      -0.804   2.414  10.415  1.00  0.00     0.068 C 
HETATM   12  C2  UNL     1      -3.391  -0.043  11.604  1.00  0.00     0.072 A 
HETATM   13  C18 UNL     1      -3.958   0.679  12.675  1.00  0.00     0.068 A 
BRANCH  12  14
HETATM   14  O1  UNL     1      -3.890  -1.298  11.332  1.00  0.00    -0.356 OA
HETATM   15  C1  UNL     1      -3.069  -2.443  11.369  1.00  0.00     0.210 C 
ENDBRANCH  12  14
ENDBRANCH   1   6
BRANCH   1  16
HETATM   16  C12 UNL     1      -3.374   3.976  14.484  1.00  0.00     0.276 C 
HETATM   17  O3  UNL     1      -2.198   4.130  14.866  1.00  0.00    -0.266 OA
HETATM   18  N3  UNL     1      -4.138   5.205  14.476  1.00  0.00    -0.302 N 
ATOM     19  H3  UNL     1      -5.118   5.238  14.758  1.00  0.00     0.171 HD
BRANCH  18  20
HETATM   20  C13 UNL     1      -3.487   6.277  14.080  1.00  0.00     0.152 A 
HETATM   21  N4  UNL     1      -2.868   7.185  14.833  1.00  0.00    -0.339 N 
HETATM   22  C14 UNL     1      -2.274   8.184  14.247  1.00  0.00     0.020 A 
ATOM     23  H4  UNL     1      -2.858   7.098  15.849  1.00  0.00     0.168 HD
HETATM   24  C15 UNL     1      -1.541   9.269  15.022  1.00  0.00     0.069 C 
HETATM   25  C16 UNL     1      -2.324   8.241  12.877  1.00  0.00     0.004 A 
HETATM   26  C17 UNL     1      -1.723   9.285  11.972  1.00  0.00     0.058 C 
HETATM   27  S1  UNL     1      -3.228   6.845  12.496  1.00  0.00    -0.057 SA
ENDBRANCH  18  20
ENDBRANCH   1  16
BRANCH   4  28
HETATM   28  C9  UNL     1      -6.026   1.880  16.876  1.00  0.00     0.070 C 
HETATM   29  C10 UNL     1      -5.011   0.772  16.845  1.00  0.00     0.019 C 
HETATM   30  C11 UNL     1      -7.398   1.347  17.104  1.00  0.00     0.019 C 
ENDBRANCH   4  28
TORSDOF 5
ENDMDL
MODEL 2
REMARK VINA RESULT: -7.754188269      1.106      2.088
REMARK  5 active torsions:
REMARK  status: ('A' for Active; 'I' for Inactive)
REMARK    1  A    between atoms: O1_2  and  C2_3 
REMARK    2  A    between atoms: C6_9  and  C7_10 
REMARK    3  A    between atoms: C7_10  and  C12_18 
REMARK       I    between atoms: N2_11  and  C8_13 
REMARK    4  A    between atoms: C8_13  and  C9_15 
REMARK       I    between atoms: C12_18  and  N3_20 
REMARK    5  A    between atoms: N3_20  and  C13_22 
ROOT
HETATM    1  C7  UNL     1      -3.972   2.861  13.993  1.00  0.00     0.130 C 
HETATM    2  N2  UNL     1      -5.010   2.399  14.539  1.00  0.00    -0.320 N 
ATOM      3  H2  UNL     1      -5.303   1.542  14.070  1.00  0.00     0.169 HD
HETATM    4  C8  UNL     1      -5.859   2.692  15.559  1.00  0.00     0.225 C 
HETATM    5  O2  UNL     1      -6.629   3.710  15.496  1.00  0.00    -0.273 OA
ENDROOT
BRANCH   1   6
HETATM    6  C6  UNL     1      -3.461   2.080  12.862  1.00  0.00     0.067 A 
HETATM    7  N1  UNL     1      -3.925   0.801  12.726  1.00  0.00    -0.358 N 
HETATM    8  C4  UNL     1      -3.556  -0.035  11.750  1.00  0.00     0.008 A 
ATOM      9  H1  UNL     1      -4.597   0.462  13.414  1.00  0.00     0.166 HD
HETATM   10  C3  UNL     1      -2.644   0.428  10.819  1.00  0.00     0.061 A 
HETATM   11  C5  UNL     1      -4.096  -1.416  11.652  1.00  0.00     0.068 C 
HETATM   12  C2  UNL     1      -2.136   1.704  10.896  1.00  0.00     0.072 A 
HETATM   13  C18 UNL     1      -2.565   2.538  11.949  1.00  0.00     0.068 A 
BRANCH  12  14
HETATM   14  O1  UNL     1      -1.227   2.213   9.994  1.00  0.00    -0.356 OA
HETATM   15  C1  UNL     1      -0.571   3.439  10.220  1.00  0.00     0.210 C 
ENDBRANCH  12  14
ENDBRANCH   1   6
BRANCH   1  16
HETATM   16  C12 UNL     1      -3.343   4.072  14.449  1.00  0.00     0.276 C 
HETATM   17  O3  UNL     1      -2.182   4.214  14.877  1.00  0.00    -0.266 OA
HETATM   18  N3  UNL     1      -4.102   5.304  14.434  1.00  0.00    -0.302 N 
ATOM     19  H3  UNL     1      -5.091   5.337  14.681  1.00  0.00     0.171 HD
BRANCH  18  20
HETATM   20  C13 UNL     1      -3.433   6.379  14.080  1.00  0.00     0.152 A 
HETATM   21  N4  UNL     1      -2.817   7.258  14.868  1.00  0.00    -0.339 N 
HETATM   22  C14 UNL     1      -2.202   8.267  14.321  1.00  0.00     0.020 A 
ATOM     23  H4  UNL     1      -2.826   7.143  15.882  1.00  0.00     0.168 HD
HETATM   24  C15 UNL     1      -1.471   9.322  15.139  1.00  0.00     0.069 C 
HETATM   25  C16 UNL     1      -2.228   8.362  12.953  1.00  0.00     0.004 A 
HETATM   26  C17 UNL     1      -1.600   9.425  12.088  1.00  0.00     0.058 C 
HETATM   27  S1  UNL     1      -3.140   6.988  12.517  1.00  0.00    -0.057 SA
ENDBRANCH  18  20
ENDBRANCH   1  16
BRANCH   4  28
HETATM   28  C9  UNL     1      -5.932   1.838  16.786  1.00  0.00     0.070 C 
HETATM   29  C10 UNL     1      -5.091   0.609  16.587  1.00  0.00     0.019 C 
HETATM   30  C11 UNL     1      -7.331   1.479  17.149  1.00  0.00     0.019 C 
ENDBRANCH   4  28
TORSDOF 5
ENDMDL
MODEL 3
REMARK VINA RESULT: -7.309571163      2.719      5.250
REMARK  5 active torsions:
REMARK  status: ('A' for Active; 'I' for Inactive)
REMARK    1  A    between atoms: O1_2  and  C2_3 
REMARK    2  A    between atoms: C6_9  and  C7_10 
REMARK    3  A    between atoms: C7_10  and  C12_18 
REMARK       I    between atoms: N2_11  and  C8_13 
REMARK    4  A    between atoms: C8_13  and  C9_15 
REMARK       I    between atoms: C12_18  and  N3_20 
REMARK    5  A    between atoms: N3_20  and  C13_22 
ROOT
HETATM    1  C7  UNL     1      -3.856   2.219  12.333  1.00  0.00     0.130 C 
HETATM    2  N2  UNL     1      -3.251   1.128  12.156  1.00  0.00    -0.320 N 
ATOM      3  H2  UNL     1      -3.309   0.553  12.996  1.00  0.00     0.169 HD
HETATM    4  C8  UNL     1      -2.546   0.482  11.191  1.00  0.00     0.225 C 
HETATM    5  O2  UNL     1      -1.398   0.907  10.825  1.00  0.00    -0.273 OA
ENDROOT
BRANCH   1   6
HETATM    6  C6  UNL     1      -4.471   2.386  13.653  1.00  0.00     0.067 A 
HETATM    7  N1  UNL     1      -5.163   3.544  13.878  1.00  0.00    -0.358 N 
HETATM    8  C4  UNL     1      -5.778   3.844  15.027  1.00  0.00     0.008 A 
ATOM      9  H1  UNL     1      -5.213   4.224  13.120  1.00  0.00     0.166 HD
HETATM   10  C3  UNL     1      -5.707   2.920  16.053  1.00  0.00     0.061 A 
HETATM   11  C5  UNL     1      -6.517   5.120  15.213  1.00  0.00     0.068 C 
HETATM   12  C2  UNL     1      -5.027   1.735  15.896  1.00  0.00     0.072 A 
HETATM   13  C18 UNL     1      -4.399   1.476  14.660  1.00  0.00     0.068 A 
BRANCH  12  14
HETATM   14  O1  UNL     1      -4.928   0.781  16.886  1.00  0.00    -0.356 OA
HETATM   15  C1  UNL     1      -6.059   0.338  17.601  1.00  0.00     0.210 C 
ENDBRANCH  12  14
ENDBRANCH   1   6
BRANCH   1  16
HETATM   16  C12 UNL     1      -3.930   3.227  11.309  1.00  0.00     0.276 C 
HETATM   17  O3  UNL     1      -4.665   3.242  10.304  1.00  0.00    -0.266 OA
HETATM   18  N3  UNL     1      -3.068   4.387  11.404  1.00  0.00    -0.302 N 
ATOM     19  H3  UNL     1      -2.103   4.322  11.730  1.00  0.00     0.171 HD
BRANCH  18  20
HETATM   20  C13 UNL     1      -3.610   5.528  11.042  1.00  0.00     0.152 A 
HETATM   21  N4  UNL     1      -4.773   6.045  11.434  1.00  0.00    -0.339 N 
HETATM   22  C14 UNL     1      -5.138   7.200  10.958  1.00  0.00     0.020 A 
ATOM     23  H4  UNL     1      -5.367   5.545  12.095  1.00  0.00     0.168 HD
HETATM   24  C15 UNL     1      -6.448   7.869  11.346  1.00  0.00     0.069 C 
HETATM   25  C16 UNL     1      -4.292   7.820  10.073  1.00  0.00     0.004 A 
HETATM   26  C17 UNL     1      -4.484   9.148   9.386  1.00  0.00     0.058 C 
HETATM   27  S1  UNL     1      -3.006   6.704   9.968  1.00  0.00    -0.057 SA
ENDBRANCH  18  20
ENDBRANCH   1  16
BRANCH   4  28
HETATM   28  C9  UNL     1      -3.077  -0.750  10.525  1.00  0.00     0.070 C 
HETATM   29  C10 UNL     1      -4.537  -0.560  10.222  1.00  0.00     0.019 C 
HETATM   30  C11 UNL     1      -2.850  -1.979  11.334  1.00  0.00     0.019 C 
ENDBRANCH   4  28
TORSDOF 5
ENDMDL
MODEL 4
REMARK VINA RESULT: -7.163962330      3.506      5.415
REMARK  5 active torsions:
REMARK  status: ('A' for Active; 'I' for Inactive)
REMARK    1  A    between atoms: O1_2  and  C2_3 
REMARK    2  A    between atoms: C6_9  and  C7_10 
REMARK    3  A    between atoms: C7_10  and  C12_18 
REMARK       I    between atoms: N2_11  and  C8_13 
REMARK    4  A    between atoms: C8_13  and  C9_15 
REMARK       I    between atoms: C12_18  and  N3_20 
REMARK    5  A    between atoms: N3_20  and  C13_22 
ROOT
HETATM    1  C7  UNL     1      -3.803   3.939  13.035  1.00  0.00     0.130 C 
HETATM    2  N2  UNL     1      -3.260   4.761  13.821  1.00  0.00    -0.320 N 
ATOM      3  H2  UNL     1      -3.055   4.313  14.714  1.00  0.00     0.169 HD
HETATM    4  C8  UNL     1      -2.864   6.061  13.847  1.00  0.00     0.225 C 
HETATM    5  O2  UNL     1      -3.724   7.006  13.828  1.00  0.00    -0.273 OA
ENDROOT
BRANCH   1   6
HETATM    6  C6  UNL     1      -3.997   2.592  13.577  1.00  0.00     0.067 A 
HETATM    7  N1  UNL     1      -4.013   1.556  12.684  1.00  0.00    -0.358 N 
HETATM    8  C4  UNL     1      -4.179   0.272  13.021  1.00  0.00     0.008 A 
ATOM      9  H1  UNL     1      -3.889   1.777  11.696  1.00  0.00     0.166 HD
HETATM   10  C3  UNL     1      -4.347  -0.023  14.361  1.00  0.00     0.061 A 
HETATM   11  C5  UNL     1      -4.187  -0.812  12.004  1.00  0.00     0.068 C 
HETATM   12  C2  UNL     1      -4.342   0.969  15.313  1.00  0.00     0.072 A 
HETATM   13  C18 UNL     1      -4.161   2.304  14.896  1.00  0.00     0.068 A 
BRANCH  12  14
HETATM   14  O1  UNL     1      -4.504   0.728  16.660  1.00  0.00    -0.356 OA
HETATM   15  C1  UNL     1      -5.779   0.712  17.259  1.00  0.00     0.210 C 
ENDBRANCH  12  14
ENDBRANCH   1   6
BRANCH   1  16
HETATM   16  C12 UNL     1      -4.205   4.307  11.704  1.00  0.00     0.276 C 
HETATM   17  O3  UNL     1      -4.780   3.598  10.856  1.00  0.00    -0.266 OA
HETATM   18  N3  UNL     1      -3.935   5.651  11.237  1.00  0.00    -0.302 N 
ATOM     19  H3  UNL     1      -3.071   6.143  11.465  1.00  0.00     0.171 HD
BRANCH  18  20
HETATM   20  C13 UNL     1      -4.878   6.196  10.500  1.00  0.00     0.152 A 
HETATM   21  N4  UNL     1      -5.130   5.992   9.208  1.00  0.00    -0.339 N 
HETATM   22  C14 UNL     1      -6.118   6.633   8.654  1.00  0.00     0.020 A 
ATOM     23  H4  UNL     1      -4.560   5.344   8.663  1.00  0.00     0.168 HD
HETATM   24  C15 UNL     1      -6.483   6.465   7.186  1.00  0.00     0.069 C 
HETATM   25  C16 UNL     1      -6.845   7.488   9.443  1.00  0.00     0.004 A 
HETATM   26  C17 UNL     1      -8.023   8.339   9.044  1.00  0.00     0.058 C 
HETATM   27  S1  UNL     1      -6.067   7.327  10.953  1.00  0.00    -0.057 SA
ENDBRANCH  18  20
ENDBRANCH   1  16
BRANCH   4  28
HETATM   28  C9  UNL     1      -1.416   6.438  13.904  1.00  0.00     0.070 C 
HETATM   29  C10 UNL     1      -1.296   7.893  14.257  1.00  0.00     0.019 C 
HETATM   30  C11 UNL     1      -0.696   6.129  12.637  1.00  0.00     0.019 C 
ENDBRANCH   4  28
TORSDOF 5
ENDMDL
MODEL 5
REMARK VINA RESULT: -7.092334891      2.727      6.086
REMARK  5 active torsions:
REMARK  status: ('A' for Active; 'I' for Inactive)
REMARK    1  A    between atoms: O1_2  and  C2_3 
REMARK    2  A    between atoms: C6_9  and  C7_10 
REMARK    3  A    between atoms: C7_10  and  C12_18 
REMARK       I    between atoms: N2_11  and  C8_13 
REMARK    4  A    between atoms: C8_13  and  C9_15 
REMARK       I    between atoms: C12_18  and  N3_20 
REMARK    5  A    between atoms: N3_20  and  C13_22 
ROOT
HETATM    1  C7  UNL     1      -2.553   2.631  11.614  1.00  0.00     0.130 C 
HETATM    2  N2  UNL     1      -2.739   1.635  10.866  1.00  0.00    -0.320 N 
ATOM      3  H2  UNL     1      -1.974   1.549  10.197  1.00  0.00     0.169 HD
HETATM    4  C8  UNL     1      -3.644   0.639  10.675  1.00  0.00     0.225 C 
HETATM    5  O2  UNL     1      -4.813   0.897  10.227  1.00  0.00    -0.273 OA
ENDROOT
BRANCH   1   6
HETATM    6  C6  UNL     1      -1.329   3.392  11.350  1.00  0.00     0.067 A 
HETATM    7  N1  UNL     1      -1.235   4.638  11.905  1.00  0.00    -0.358 N 
HETATM    8  C4  UNL     1      -0.185   5.454  11.757  1.00  0.00     0.008 A 
ATOM      9  H1  UNL     1      -2.019   4.968  12.469  1.00  0.00     0.166 HD
HETATM   10  C3  UNL     1       0.873   5.003  10.991  1.00  0.00     0.061 A 
HETATM   11  C5  UNL     1      -0.141   6.799  12.386  1.00  0.00     0.068 C 
HETATM   12  C2  UNL     1       0.846   3.760  10.403  1.00  0.00     0.072 A 
HETATM   13  C18 UNL     1      -0.289   2.947  10.596  1.00  0.00     0.068 A 
BRANCH  12  14
HETATM   14  O1  UNL     1       1.875   3.264   9.631  1.00  0.00    -0.356 OA
HETATM   15  C1  UNL     1       2.811   4.118   9.012  1.00  0.00     0.210 C 
ENDBRANCH  12  14
ENDBRANCH   1   6
BRANCH   1  16
HETATM   16  C12 UNL     1      -3.485   2.993  12.650  1.00  0.00     0.276 C 
HETATM   17  O3  UNL     1      -4.651   3.409  12.515  1.00  0.00    -0.266 OA
HETATM   18  N3  UNL     1      -3.073   2.882  14.033  1.00  0.00    -0.302 N 
ATOM     19  H3  UNL     1      -2.131   3.126  14.341  1.00  0.00     0.171 HD
BRANCH  18  20
HETATM   20  C13 UNL     1      -3.991   2.447  14.866  1.00  0.00     0.152 A 
HETATM   21  N4  UNL     1      -5.076   3.087  15.299  1.00  0.00    -0.339 N 
HETATM   22  C14 UNL     1      -5.872   2.480  16.131  1.00  0.00     0.020 A 
ATOM     23  H4  UNL     1      -5.280   4.036  14.984  1.00  0.00     0.168 HD
HETATM   24  C15 UNL     1      -7.134   3.129  16.680  1.00  0.00     0.069 C 
HETATM   25  C16 UNL     1      -5.540   1.205  16.514  1.00  0.00     0.004 A 
HETATM   26  C17 UNL     1      -6.288   0.299  17.457  1.00  0.00     0.058 C 
HETATM   27  S1  UNL     1      -4.091   0.940  15.654  1.00  0.00    -0.057 SA
ENDBRANCH  18  20
ENDBRANCH   1  16
BRANCH   4  28
HETATM   28  C9  UNL     1      -3.311  -0.790  10.972  1.00  0.00     0.070 C 
HETATM   29  C10 UNL     1      -4.197  -1.286  12.080  1.00  0.00     0.019 C 
HETATM   30  C11 UNL     1      -1.873  -0.983  11.305  1.00  0.00     0.019 C 
ENDBRANCH   4  28
TORSDOF 5
ENDMDL
