MODEL 1
REMARK VINA RESULT: -7.785380770      0.000      0.000
REMARK  4 active torsions:
REMARK  status: ('A' for Active; 'I' for Inactive)
REMARK    1  A    between atoms: C3_3  and  N1_4 
REMARK    2  A    between atoms: C9_12  and  N3_13 
REMARK    3  A    between atoms: N4_16  and  C12_17 
REMARK    4  A    between atoms: C12_17  and  C13_18 
ROOT
HETATM    1  C1  UNL     1      -6.769  11.020   8.926  1.00  0.00     0.051 C 
HETATM    2  C2  UNL     1      -6.414   9.567   9.086  1.00  0.00    -0.027 A 
HETATM    3  C3  UNL     1      -7.116   8.676   8.304  1.00  0.00     0.044 A 
HETATM    4  C6  UNL     1      -6.798   7.344   8.446  1.00  0.00    -0.005 A 
HETATM    5  C7  UNL     1      -7.535   6.346   7.633  1.00  0.00     0.053 C 
HETATM    6  C8  UNL     1      -5.815   6.931   9.342  1.00  0.00     0.085 A 
HETATM    7  N2  UNL     1      -5.375   5.680   9.636  1.00  0.00    -0.189 N 
ATOM      8  H2  UNL     1      -5.701   4.808   9.220  1.00  0.00     0.184 HD
HETATM    9  C9  UNL     1      -4.418   5.812  10.590  1.00  0.00     0.681 A 
HETATM   10  N5  UNL     1      -4.291   7.120  10.857  1.00  0.00    -0.189 N 
ATOM     11  H5  UNL     1      -3.639   7.508  11.539  1.00  0.00     0.184 HD
HETATM   12  C20 UNL     1      -5.138   7.854  10.105  1.00  0.00     0.083 A 
HETATM   13  C21 UNL     1      -5.439   9.178   9.976  1.00  0.00    -0.024 A 
HETATM   14  C22 UNL     1      -4.711  10.191  10.781  1.00  0.00     0.051 C 
ENDROOT
BRANCH   9  15
HETATM   15  N3  UNL     1      -3.774   4.669  11.129  1.00  0.00    -0.214 N 
HETATM   16  C10 UNL     1      -2.716   4.841  12.075  1.00  0.00     0.161 C 
HETATM   17  C11 UNL     1      -2.596   3.629  13.006  1.00  0.00     0.142 C 
HETATM   18  N4  UNL     1      -3.679   2.756  12.875  1.00  0.00    -0.389 N 
HETATM   19  C18 UNL     1      -3.933   2.249  11.568  1.00  0.00     0.142 C 
HETATM   20  C19 UNL     1      -4.259   3.390  10.634  1.00  0.00     0.161 C 
BRANCH  18  21
HETATM   21  C12 UNL     1      -4.712   2.657  13.796  1.00  0.00     0.069 C 
BRANCH  21  22
HETATM   22  C13 UNL     1      -4.465   1.943  15.073  1.00  0.00     0.011 C 
HETATM   23  C14 UNL     1      -3.313   2.408  15.902  1.00  0.00     0.023 C 
HETATM   24  C15 UNL     1      -5.726   2.014  15.972  1.00  0.00     0.043 C 
HETATM   25  C16 UNL     1      -5.617   0.713  16.712  1.00  0.00     0.168 C 
HETATM   26  O1  UNL     1      -5.198  -0.181  15.763  1.00  0.00    -0.390 OA
HETATM   27  C17 UNL     1      -4.347   0.441  14.886  1.00  0.00     0.182 C 
ENDBRANCH  21  22
ENDBRANCH  18  21
ENDBRANCH   9  15
BRANCH   3  28
HETATM   28  N1  UNL     1      -8.144   9.036   7.405  1.00  0.00    -0.389 N 
HETATM   29  C4  UNL     1      -9.523   8.936   7.852  1.00  0.00     0.149 C 
HETATM   30  C5  UNL     1      -7.916   9.507   6.059  1.00  0.00     0.149 C 
ENDBRANCH   3  28
TORSDOF 4
ENDMDL
MODEL 2
REMARK VINA RESULT: -7.350095495      0.815      2.371
REMARK  4 active torsions:
REMARK  status: ('A' for Active; 'I' for Inactive)
REMARK    1  A    between atoms: C3_3  and  N1_4 
REMARK    2  A    between atoms: C9_12  and  N3_13 
REMARK    3  A    between atoms: N4_16  and  C12_17 
REMARK    4  A    between atoms: C12_17  and  C13_18 
ROOT
HETATM    1  C1  UNL     1      -7.991   9.279   7.399  1.00  0.00     0.051 C 
HETATM    2  C2  UNL     1      -6.946   8.699   8.312  1.00  0.00    -0.027 A 
HETATM    3  C3  UNL     1      -6.092   9.598   8.913  1.00  0.00     0.044 A 
HETATM    4  C6  UNL     1      -5.131   9.075   9.750  1.00  0.00    -0.005 A 
HETATM    5  C7  UNL     1      -4.182  10.002  10.411  1.00  0.00     0.053 C 
HETATM    6  C8  UNL     1      -5.037   7.702   9.965  1.00  0.00     0.085 A 
HETATM    7  N2  UNL     1      -4.161   6.998  10.729  1.00  0.00    -0.189 N 
ATOM      8  H2  UNL     1      -3.407   7.383  11.299  1.00  0.00     0.184 HD
HETATM    9  C9  UNL     1      -4.479   5.687  10.588  1.00  0.00     0.681 A 
HETATM   10  N5  UNL     1      -5.528   5.611   9.756  1.00  0.00    -0.189 N 
ATOM     11  H5  UNL     1      -5.977   4.741   9.472  1.00  0.00     0.184 HD
HETATM   12  C20 UNL     1      -5.910   6.838   9.344  1.00  0.00     0.083 A 
HETATM   13  C21 UNL     1      -6.869   7.340   8.514  1.00  0.00    -0.024 A 
HETATM   14  C22 UNL     1      -7.828   6.427   7.844  1.00  0.00     0.051 C 
ENDROOT
BRANCH   9  15
HETATM   15  N3  UNL     1      -3.723   4.685  11.251  1.00  0.00    -0.214 N 
HETATM   16  C10 UNL     1      -2.809   5.064  12.283  1.00  0.00     0.161 C 
HETATM   17  C11 UNL     1      -2.599   3.927  13.288  1.00  0.00     0.142 C 
HETATM   18  N4  UNL     1      -3.513   2.886  13.105  1.00  0.00    -0.389 N 
HETATM   19  C18 UNL     1      -3.547   2.292  11.811  1.00  0.00     0.142 C 
HETATM   20  C19 UNL     1      -3.949   3.325  10.786  1.00  0.00     0.161 C 
BRANCH  18  21
HETATM   21  C12 UNL     1      -4.607   2.660  13.926  1.00  0.00     0.069 C 
BRANCH  21  22
HETATM   22  C13 UNL     1      -4.408   1.914  15.194  1.00  0.00     0.011 C 
HETATM   23  C14 UNL     1      -3.255   2.321  16.050  1.00  0.00     0.023 C 
HETATM   24  C15 UNL     1      -5.681   2.014  16.072  1.00  0.00     0.043 C 
HETATM   25  C16 UNL     1      -5.632   0.697  16.789  1.00  0.00     0.168 C 
HETATM   26  O1  UNL     1      -5.229  -0.194  15.830  1.00  0.00    -0.390 OA
HETATM   27  C17 UNL     1      -4.342   0.412  14.980  1.00  0.00     0.182 C 
ENDBRANCH  21  22
ENDBRANCH  18  21
ENDBRANCH   9  15
BRANCH   3  28
HETATM   28  N1  UNL     1      -6.122  10.994   8.704  1.00  0.00    -0.389 N 
HETATM   29  C4  UNL     1      -5.373  11.544   7.587  1.00  0.00     0.149 C 
HETATM   30  C5  UNL     1      -6.856  11.923   9.531  1.00  0.00     0.149 C 
ENDBRANCH   3  28
TORSDOF 4
ENDMDL
MODEL 3
REMARK VINA RESULT: -7.312261171      5.215      7.877
REMARK  4 active torsions:
REMARK  status: ('A' for Active; 'I' for Inactive)
REMARK    1  A    between atoms: C3_3  and  N1_4 
REMARK    2  A    between atoms: C9_12  and  N3_13 
REMARK    3  A    between atoms: N4_16  and  C12_17 
REMARK    4  A    between atoms: C12_17  and  C13_18 
ROOT
HETATM    1  C1  UNL     1       5.422   6.098  10.425  1.00  0.00     0.051 C 
HETATM    2  C2  UNL     1       4.132   5.409  10.076  1.00  0.00    -0.027 A 
HETATM    3  C3  UNL     1       3.964   5.057   8.753  1.00  0.00     0.044 A 
HETATM    4  C6  UNL     1       2.784   4.428   8.425  1.00  0.00    -0.005 A 
HETATM    5  C7  UNL     1       2.554   4.040   7.013  1.00  0.00     0.053 C 
HETATM    6  C8  UNL     1       1.816   4.168   9.392  1.00  0.00     0.085 A 
HETATM    7  N2  UNL     1       0.597   3.581   9.268  1.00  0.00    -0.189 N 
ATOM      8  H2  UNL     1       0.185   3.212   8.411  1.00  0.00     0.184 HD
HETATM    9  C9  UNL     1       0.031   3.582  10.501  1.00  0.00     0.681 A 
HETATM   10  N5  UNL     1       0.899   4.157  11.345  1.00  0.00    -0.189 N 
ATOM     11  H5  UNL     1       0.732   4.290  12.343  1.00  0.00     0.184 HD
HETATM   12  C20 UNL     1       2.023   4.537  10.702  1.00  0.00     0.083 A 
HETATM   13  C21 UNL     1       3.187   5.160  11.044  1.00  0.00    -0.024 A 
HETATM   14  C22 UNL     1       3.435   5.554  12.453  1.00  0.00     0.051 C 
ENDROOT
BRANCH   9  15
HETATM   15  N3  UNL     1      -1.271   3.051  10.698  1.00  0.00    -0.214 N 
HETATM   16  C10 UNL     1      -1.423   1.665  11.012  1.00  0.00     0.161 C 
HETATM   17  C11 UNL     1      -2.708   1.410  11.807  1.00  0.00     0.142 C 
HETATM   18  N4  UNL     1      -3.303   2.597  12.242  1.00  0.00    -0.389 N 
HETATM   19  C18 UNL     1      -3.623   3.553  11.235  1.00  0.00     0.142 C 
HETATM   20  C19 UNL     1      -2.361   4.002  10.539  1.00  0.00     0.161 C 
BRANCH  18  21
HETATM   21  C12 UNL     1      -3.250   3.059  13.548  1.00  0.00     0.069 C 
BRANCH  21  22
HETATM   22  C13 UNL     1      -4.129   2.430  14.565  1.00  0.00     0.011 C 
HETATM   23  C14 UNL     1      -5.446   3.083  14.825  1.00  0.00     0.023 C 
HETATM   24  C15 UNL     1      -4.423   0.959  14.175  1.00  0.00     0.043 C 
HETATM   25  C16 UNL     1      -4.568   0.332  15.530  1.00  0.00     0.168 C 
HETATM   26  O1  UNL     1      -3.584   0.918  16.280  1.00  0.00    -0.390 OA
HETATM   27  C17 UNL     1      -3.425   2.223  15.894  1.00  0.00     0.182 C 
ENDBRANCH  21  22
ENDBRANCH  18  21
ENDBRANCH   9  15
BRANCH   3  28
HETATM   28  N1  UNL     1       4.897   5.326   7.729  1.00  0.00    -0.389 N 
HETATM   29  C4  UNL     1       4.803   6.589   7.018  1.00  0.00     0.149 C 
HETATM   30  C5  UNL     1       5.954   4.423   7.337  1.00  0.00     0.149 C 
ENDBRANCH   3  28
TORSDOF 4
ENDMDL
MODEL 4
REMARK VINA RESULT: -7.149435685      2.195      3.673
REMARK  4 active torsions:
REMARK  status: ('A' for Active; 'I' for Inactive)
REMARK    1  A    between atoms: C3_3  and  N1_4 
REMARK    2  A    between atoms: C9_12  and  N3_13 
REMARK    3  A    between atoms: N4_16  and  C12_17 
REMARK    4  A    between atoms: C12_17  and  C13_18 
ROOT
HETATM    1  C1  UNL     1      -8.820  10.602   7.500  1.00  0.00     0.051 C 
HETATM    2  C2  UNL     1      -7.837  10.105   8.523  1.00  0.00    -0.027 A 
HETATM    3  C3  UNL     1      -6.968  11.040   9.043  1.00  0.00     0.044 A 
HETATM    4  C6  UNL     1      -6.063  10.592   9.979  1.00  0.00    -0.005 A 
HETATM    5  C7  UNL     1      -5.101  11.560  10.559  1.00  0.00     0.053 C 
HETATM    6  C8  UNL     1      -6.037   9.256  10.370  1.00  0.00     0.085 A 
HETATM    7  N2  UNL     1      -5.221   8.623  11.253  1.00  0.00    -0.189 N 
ATOM      8  H2  UNL     1      -4.474   9.048  11.803  1.00  0.00     0.184 HD
HETATM    9  C9  UNL     1      -5.589   7.317  11.265  1.00  0.00     0.681 A 
HETATM   10  N5  UNL     1      -6.608   7.175  10.406  1.00  0.00    -0.189 N 
ATOM     11  H5  UNL     1      -7.083   6.293  10.215  1.00  0.00     0.184 HD
HETATM   12  C20 UNL     1      -6.922   8.353   9.826  1.00  0.00     0.083 A 
HETATM   13  C21 UNL     1      -7.826   8.781   8.899  1.00  0.00    -0.024 A 
HETATM   14  C22 UNL     1      -8.797   7.826   8.308  1.00  0.00     0.051 C 
ENDROOT
BRANCH   9  15
HETATM   15  N3  UNL     1      -4.903   6.381  12.082  1.00  0.00    -0.214 N 
HETATM   16  C10 UNL     1      -5.577   5.797  13.199  1.00  0.00     0.161 C 
HETATM   17  C11 UNL     1      -5.002   4.419  13.541  1.00  0.00     0.142 C 
HETATM   18  N4  UNL     1      -4.130   3.952  12.554  1.00  0.00    -0.389 N 
HETATM   19  C18 UNL     1      -3.025   4.792  12.234  1.00  0.00     0.142 C 
HETATM   20  C19 UNL     1      -3.526   6.110  11.695  1.00  0.00     0.161 C 
BRANCH  18  21
HETATM   21  C12 UNL     1      -4.456   2.969  11.632  1.00  0.00     0.069 C 
BRANCH  21  22
HETATM   22  C13 UNL     1      -3.988   1.581  11.870  1.00  0.00     0.011 C 
HETATM   23  C14 UNL     1      -4.076   1.063  13.267  1.00  0.00     0.023 C 
HETATM   24  C15 UNL     1      -4.776   0.595  10.971  1.00  0.00     0.043 C 
HETATM   25  C16 UNL     1      -3.739  -0.464  10.740  1.00  0.00     0.168 C 
HETATM   26  O1  UNL     1      -2.576   0.235  10.558  1.00  0.00    -0.390 OA
HETATM   27  C17 UNL     1      -2.577   1.348  11.359  1.00  0.00     0.182 C 
ENDBRANCH  21  22
ENDBRANCH  18  21
ENDBRANCH   9  15
BRANCH   3  28
HETATM   28  N1  UNL     1      -6.930  12.398   8.658  1.00  0.00    -0.389 N 
HETATM   29  C4  UNL     1      -7.740  13.351   9.398  1.00  0.00     0.149 C 
HETATM   30  C5  UNL     1      -6.131  12.912   7.571  1.00  0.00     0.149 C 
ENDBRANCH   3  28
TORSDOF 4
ENDMDL
MODEL 5
REMARK VINA RESULT: -7.113883493      1.444      2.172
REMARK  4 active torsions:
REMARK  status: ('A' for Active; 'I' for Inactive)
REMARK    1  A    between atoms: C3_3  and  N1_4 
REMARK    2  A    between atoms: C9_12  and  N3_13 
REMARK    3  A    between atoms: N4_16  and  C12_17 
REMARK    4  A    between atoms: C12_17  and  C13_18 
ROOT
HETATM    1  C1  UNL     1      -5.453   9.071   6.381  1.00  0.00     0.051 C 
HETATM    2  C2  UNL     1      -5.368   8.127   7.549  1.00  0.00    -0.027 A 
HETATM    3  C3  UNL     1      -6.102   8.466   8.665  1.00  0.00     0.044 A 
HETATM    4  C6  UNL     1      -6.028   7.607   9.739  1.00  0.00    -0.005 A 
HETATM    5  C7  UNL     1      -6.792   7.936  10.966  1.00  0.00     0.053 C 
HETATM    6  C8  UNL     1      -5.244   6.458   9.686  1.00  0.00     0.085 A 
HETATM    7  N2  UNL     1      -5.028   5.507  10.633  1.00  0.00    -0.189 N 
ATOM      8  H2  UNL     1      -5.433   5.478  11.568  1.00  0.00     0.184 HD
HETATM    9  C9  UNL     1      -4.169   4.604  10.096  1.00  0.00     0.681 A 
HETATM   10  N5  UNL     1      -3.880   5.009   8.852  1.00  0.00    -0.189 N 
ATOM     11  H5  UNL     1      -3.254   4.516   8.215  1.00  0.00     0.184 HD
HETATM   12  C20 UNL     1      -4.525   6.156   8.552  1.00  0.00     0.083 A 
HETATM   13  C21 UNL     1      -4.589   6.995   7.479  1.00  0.00    -0.024 A 
HETATM   14  C22 UNL     1      -3.831   6.682   6.241  1.00  0.00     0.051 C 
ENDROOT
BRANCH   9  15
HETATM   15  N3  UNL     1      -3.726   3.490  10.855  1.00  0.00    -0.214 N 
HETATM   16  C10 UNL     1      -2.542   3.606  11.648  1.00  0.00     0.161 C 
HETATM   17  C11 UNL     1      -2.571   2.644  12.840  1.00  0.00     0.142 C 
HETATM   18  N4  UNL     1      -3.827   2.057  13.013  1.00  0.00    -0.389 N 
HETATM   19  C18 UNL     1      -4.354   1.346  11.896  1.00  0.00     0.142 C 
HETATM   20  C19 UNL     1      -4.541   2.291  10.733  1.00  0.00     0.161 C 
BRANCH  18  21
HETATM   21  C12 UNL     1      -4.726   2.423  14.002  1.00  0.00     0.069 C 
BRANCH  21  22
HETATM   22  C13 UNL     1      -4.570   1.846  15.360  1.00  0.00     0.011 C 
HETATM   23  C14 UNL     1      -3.422   2.333  16.180  1.00  0.00     0.023 C 
HETATM   24  C15 UNL     1      -5.855   2.092  16.191  1.00  0.00     0.043 C 
HETATM   25  C16 UNL     1      -5.855   0.880  17.075  1.00  0.00     0.168 C 
HETATM   26  O1  UNL     1      -5.460  -0.139  16.250  1.00  0.00    -0.390 OA
HETATM   27  C17 UNL     1      -4.541   0.328  15.346  1.00  0.00     0.182 C 
ENDBRANCH  21  22
ENDBRANCH  18  21
ENDBRANCH   9  15
BRANCH   3  28
HETATM   28  N1  UNL     1      -6.886   9.634   8.783  1.00  0.00    -0.389 N 
HETATM   29  C4  UNL     1      -6.310  10.794   9.442  1.00  0.00     0.149 C 
HETATM   30  C5  UNL     1      -8.236   9.759   8.285  1.00  0.00     0.149 C 
ENDBRANCH   3  28
TORSDOF 4
ENDMDL
