MODEL 1
REMARK VINA RESULT: -8.768983535      0.000      0.000
REMARK  5 active torsions:
REMARK  status: ('A' for Active; 'I' for Inactive)
REMARK    1  A    between atoms: C2_2  and  C3_3 
REMARK    2  A    between atoms: C6_6  and  N1_7 
REMARK       I    between atoms: N1_7  and  C7_9 
REMARK    3  A    between atoms: C7_9  and  C8_11 
REMARK    4  A    between atoms: C8_11  and  N2_12 
REMARK    5  A    between atoms: C10_17  and  C11_18 
ROOT
HETATM    1  N2  UNL     1      -1.652   3.056  11.463  1.00  0.00    -0.265 N 
HETATM    2  N3  UNL     1      -1.353   3.457  12.700  1.00  0.00    -0.019 NA
HETATM    3  N4  UNL     1      -0.230   4.157  12.686  1.00  0.00    -0.281 N 
ATOM      4  H4  UNL     1       0.218   4.578  13.500  1.00  0.00     0.184 HD
HETATM    5  C9  UNL     1       0.225   4.222  11.421  1.00  0.00     0.087 A 
HETATM    6  C10 UNL     1       1.337   4.816  10.832  1.00  0.00     0.027 A 
HETATM    7  C16 UNL     1       1.558   4.714   9.456  1.00  0.00    -0.047 A 
HETATM    8  C17 UNL     1       2.750   5.362   8.896  1.00  0.00     0.049 C 
HETATM    9  C18 UNL     1       0.640   4.010   8.705  1.00  0.00     0.010 A 
HETATM   10  C19 UNL     1      -0.477   3.414   9.292  1.00  0.00     0.034 A 
HETATM   11  C20 UNL     1      -0.680   3.523  10.651  1.00  0.00     0.078 A 
ENDROOT
BRANCH   1  12
HETATM   12  C8  UNL     1      -2.817   2.269  11.120  1.00  0.00     0.250 C 
BRANCH  12  13
HETATM   13  C7  UNL     1      -4.035   2.998  11.540  1.00  0.00     0.242 C 
HETATM   14  N1  UNL     1      -4.075   3.742  12.768  1.00  0.00    -0.312 N 
ATOM     15  H1  UNL     1      -3.778   4.718  12.772  1.00  0.00     0.170 HD
HETATM   16  O1  UNL     1      -5.054   2.963  10.804  1.00  0.00    -0.271 OA
BRANCH  14  17
HETATM   17  C6  UNL     1      -4.474   3.205  13.852  1.00  0.00     0.107 A 
HETATM   18  C5  UNL     1      -5.730   3.521  14.327  1.00  0.00     0.049 A 
HETATM   19  C4  UNL     1      -6.121   2.920  15.502  1.00  0.00     0.012 A 
HETATM   20  C3  UNL     1      -5.323   2.046  16.186  1.00  0.00    -0.043 A 
HETATM   21  C21 UNL     1      -4.064   1.761  15.663  1.00  0.00     0.096 A 
HETATM   22  N6  UNL     1      -3.668   2.347  14.507  1.00  0.00    -0.352 N 
ATOM     23  H6  UNL     1      -2.745   2.135  14.127  1.00  0.00     0.166 HD
BRANCH  20  24
HETATM   24  C2  UNL     1      -5.786   1.424  17.445  1.00  0.00     0.035 C 
HETATM   25  C1  UNL     1      -7.230   0.997  17.225  1.00  0.00     0.010 C 
ENDBRANCH  20  24
ENDBRANCH  14  17
ENDBRANCH  12  13
ENDBRANCH   1  12
BRANCH   6  26
HETATM   26  C11 UNL     1       2.297   5.556  11.648  1.00  0.00     0.045 A 
HETATM   27  C12 UNL     1       2.115   6.915  11.821  1.00  0.00     0.030 A 
HETATM   28  C13 UNL     1       2.992   7.669  12.581  1.00  0.00     0.004 A 
HETATM   29  C14 UNL     1       4.073   7.059  13.186  1.00  0.00     0.017 A 
HETATM   30  C15 UNL     1       4.219   5.701  12.989  1.00  0.00     0.088 A 
HETATM   31  N5  UNL     1       3.354   4.985  12.244  1.00  0.00    -0.365 N 
ATOM     32  H5  UNL     1       3.507   3.983  12.130  1.00  0.00     0.165 HD
ENDBRANCH   6  26
TORSDOF 5
ENDMDL
MODEL 2
REMARK VINA RESULT: -8.737334073      3.911      6.476
REMARK  5 active torsions:
REMARK  status: ('A' for Active; 'I' for Inactive)
REMARK    1  A    between atoms: C2_2  and  C3_3 
REMARK    2  A    between atoms: C6_6  and  N1_7 
REMARK       I    between atoms: N1_7  and  C7_9 
REMARK    3  A    between atoms: C7_9  and  C8_11 
REMARK    4  A    between atoms: C8_11  and  N2_12 
REMARK    5  A    between atoms: C10_17  and  C11_18 
ROOT
HETATM    1  N2  UNL     1      -2.962   4.217  10.774  1.00  0.00    -0.265 N 
HETATM    2  N3  UNL     1      -3.048   4.170   9.443  1.00  0.00    -0.019 NA
HETATM    3  N4  UNL     1      -3.945   5.047   9.020  1.00  0.00    -0.281 N 
ATOM      4  H4  UNL     1      -4.201   5.212   8.046  1.00  0.00     0.184 HD
HETATM    5  C9  UNL     1      -4.463   5.686  10.085  1.00  0.00     0.087 A 
HETATM    6  C10 UNL     1      -5.421   6.684  10.230  1.00  0.00     0.027 A 
HETATM    7  C16 UNL     1      -5.767   7.166  11.496  1.00  0.00    -0.047 A 
HETATM    8  C17 UNL     1      -6.785   8.219  11.582  1.00  0.00     0.049 C 
HETATM    9  C18 UNL     1      -5.127   6.622  12.591  1.00  0.00     0.010 A 
HETATM   10  C19 UNL     1      -4.166   5.620  12.449  1.00  0.00     0.034 A 
HETATM   11  C20 UNL     1      -3.837   5.156  11.193  1.00  0.00     0.078 A 
ENDROOT
BRANCH   1  12
HETATM   12  C8  UNL     1      -2.076   3.389  11.563  1.00  0.00     0.250 C 
BRANCH  12  13
HETATM   13  C7  UNL     1      -2.684   2.049  11.726  1.00  0.00     0.242 C 
HETATM   14  N1  UNL     1      -4.069   1.893  12.074  1.00  0.00    -0.312 N 
ATOM     15  H1  UNL     1      -4.771   1.860  11.335  1.00  0.00     0.170 HD
HETATM   16  O1  UNL     1      -1.971   1.027  11.555  1.00  0.00    -0.271 OA
BRANCH  14  17
HETATM   17  C6  UNL     1      -4.437   1.797  13.290  1.00  0.00     0.107 A 
HETATM   18  C5  UNL     1      -5.200   2.808  13.836  1.00  0.00     0.049 A 
HETATM   19  C4  UNL     1      -5.576   2.665  15.152  1.00  0.00     0.012 A 
HETATM   20  C3  UNL     1      -5.223   1.580  15.907  1.00  0.00    -0.043 A 
HETATM   21  C21 UNL     1      -4.451   0.588  15.307  1.00  0.00     0.096 A 
HETATM   22  N6  UNL     1      -4.076   0.718  14.012  1.00  0.00    -0.352 N 
ATOM     23  H6  UNL     1      -3.511  -0.012  13.577  1.00  0.00     0.166 HD
BRANCH  20  24
HETATM   24  C2  UNL     1      -5.649   1.469  17.318  1.00  0.00     0.035 C 
HETATM   25  C1  UNL     1      -7.124   1.094  17.309  1.00  0.00     0.010 C 
ENDBRANCH  20  24
ENDBRANCH  14  17
ENDBRANCH  12  13
ENDBRANCH   1  12
BRANCH   6  26
HETATM   26  C11 UNL     1      -6.085   7.246   9.057  1.00  0.00     0.045 A 
HETATM   27  C12 UNL     1      -7.300   6.719   8.662  1.00  0.00     0.030 A 
HETATM   28  C13 UNL     1      -7.975   7.210   7.558  1.00  0.00     0.004 A 
HETATM   29  C14 UNL     1      -7.433   8.250   6.831  1.00  0.00     0.017 A 
HETATM   30  C15 UNL     1      -6.220   8.749   7.258  1.00  0.00     0.088 A 
HETATM   31  N5  UNL     1      -5.578   8.257   8.335  1.00  0.00    -0.365 N 
ATOM     32  H5  UNL     1      -4.682   8.662   8.608  1.00  0.00     0.165 HD
ENDBRANCH   6  26
TORSDOF 5
ENDMDL
MODEL 3
REMARK VINA RESULT: -8.546609102      3.516      5.322
REMARK  5 active torsions:
REMARK  status: ('A' for Active; 'I' for Inactive)
REMARK    1  A    between atoms: C2_2  and  C3_3 
REMARK    2  A    between atoms: C6_6  and  N1_7 
REMARK       I    between atoms: N1_7  and  C7_9 
REMARK    3  A    between atoms: C7_9  and  C8_11 
REMARK    4  A    between atoms: C8_11  and  N2_12 
REMARK    5  A    between atoms: C10_17  and  C11_18 
ROOT
HETATM    1  N2  UNL     1      -2.611   3.047  10.995  1.00  0.00    -0.265 N 
HETATM    2  N3  UNL     1      -3.578   3.302  10.111  1.00  0.00    -0.019 NA
HETATM    3  N4  UNL     1      -4.086   4.504  10.335  1.00  0.00    -0.281 N 
ATOM      4  H4  UNL     1      -4.838   4.940   9.801  1.00  0.00     0.184 HD
HETATM    5  C9  UNL     1      -3.448   5.056  11.382  1.00  0.00     0.087 A 
HETATM    6  C10 UNL     1      -3.565   6.277  12.040  1.00  0.00     0.027 A 
HETATM    7  C16 UNL     1      -2.743   6.584  13.129  1.00  0.00    -0.047 A 
HETATM    8  C17 UNL     1      -2.917   7.888  13.781  1.00  0.00     0.049 C 
HETATM    9  C18 UNL     1      -1.817   5.642  13.526  1.00  0.00     0.010 A 
HETATM   10  C19 UNL     1      -1.697   4.417  12.868  1.00  0.00     0.034 A 
HETATM   11  C20 UNL     1      -2.515   4.129  11.796  1.00  0.00     0.078 A 
ENDROOT
BRANCH   1  12
HETATM   12  C8  UNL     1      -1.846   1.820  11.035  1.00  0.00     0.250 C 
BRANCH  12  13
HETATM   13  C7  UNL     1      -2.743   0.702  11.404  1.00  0.00     0.242 C 
HETATM   14  N1  UNL     1      -4.096   0.937  11.826  1.00  0.00    -0.312 N 
ATOM     15  H1  UNL     1      -4.837   0.986  11.127  1.00  0.00     0.170 HD
HETATM   16  O1  UNL     1      -2.309  -0.477  11.346  1.00  0.00    -0.271 OA
BRANCH  14  17
HETATM   17  C6  UNL     1      -4.387   1.085  13.057  1.00  0.00     0.107 A 
HETATM   18  C5  UNL     1      -4.870   2.304  13.484  1.00  0.00     0.049 A 
HETATM   19  C4  UNL     1      -5.172   2.421  14.823  1.00  0.00     0.012 A 
HETATM   20  C3  UNL     1      -5.009   1.393  15.708  1.00  0.00    -0.043 A 
HETATM   21  C21 UNL     1      -4.518   0.182  15.225  1.00  0.00     0.096 A 
HETATM   22  N6  UNL     1      -4.218   0.055  13.910  1.00  0.00    -0.352 N 
ATOM     23  H6  UNL     1      -3.859  -0.833  13.561  1.00  0.00     0.166 HD
BRANCH  20  24
HETATM   24  C2  UNL     1      -5.347   1.565  17.138  1.00  0.00     0.035 C 
HETATM   25  C1  UNL     1      -6.820   1.217  17.292  1.00  0.00     0.010 C 
ENDBRANCH  20  24
ENDBRANCH  14  17
ENDBRANCH  12  13
ENDBRANCH   1  12
BRANCH   6  26
HETATM   26  C11 UNL     1      -4.553   7.260  11.603  1.00  0.00     0.045 A 
HETATM   27  C12 UNL     1      -5.875   7.083  11.966  1.00  0.00     0.030 A 
HETATM   28  C13 UNL     1      -6.854   7.981  11.580  1.00  0.00     0.004 A 
HETATM   29  C14 UNL     1      -6.514   9.080  10.818  1.00  0.00     0.017 A 
HETATM   30  C15 UNL     1      -5.184   9.221  10.477  1.00  0.00     0.088 A 
HETATM   31  N5  UNL     1      -4.245   8.335  10.862  1.00  0.00    -0.365 N 
ATOM     32  H5  UNL     1      -3.275   8.486  10.583  1.00  0.00     0.165 HD
ENDBRANCH   6  26
TORSDOF 5
ENDMDL
MODEL 4
REMARK VINA RESULT: -8.199825730      4.227      6.439
REMARK  5 active torsions:
REMARK  status: ('A' for Active; 'I' for Inactive)
REMARK    1  A    between atoms: C2_2  and  C3_3 
REMARK    2  A    between atoms: C6_6  and  N1_7 
REMARK       I    between atoms: N1_7  and  C7_9 
REMARK    3  A    between atoms: C7_9  and  C8_11 
REMARK    4  A    between atoms: C8_11  and  N2_12 
REMARK    5  A    between atoms: C10_17  and  C11_18 
ROOT
HETATM    1  N2  UNL     1      -3.457   5.504  11.576  1.00  0.00    -0.265 N 
HETATM    2  N3  UNL     1      -4.466   6.128  12.188  1.00  0.00    -0.019 NA
HETATM    3  N4  UNL     1      -5.252   6.699  11.288  1.00  0.00    -0.281 N 
ATOM      4  H4  UNL     1      -6.094   7.239  11.492  1.00  0.00     0.184 HD
HETATM    5  C9  UNL     1      -4.758   6.451  10.061  1.00  0.00     0.087 A 
HETATM    6  C10 UNL     1      -5.166   6.798   8.777  1.00  0.00     0.027 A 
HETATM    7  C16 UNL     1      -4.434   6.388   7.658  1.00  0.00    -0.047 A 
HETATM    8  C17 UNL     1      -4.917   6.786   6.331  1.00  0.00     0.049 C 
HETATM    9  C18 UNL     1      -3.300   5.631   7.871  1.00  0.00     0.010 A 
HETATM   10  C19 UNL     1      -2.888   5.282   9.158  1.00  0.00     0.034 A 
HETATM   11  C20 UNL     1      -3.621   5.694  10.250  1.00  0.00     0.078 A 
ENDROOT
BRANCH   1  12
HETATM   12  C8  UNL     1      -2.412   4.777  12.263  1.00  0.00     0.250 C 
BRANCH  12  13
HETATM   13  C7  UNL     1      -2.719   3.330  12.218  1.00  0.00     0.242 C 
HETATM   14  N1  UNL     1      -4.052   2.841  12.434  1.00  0.00    -0.312 N 
ATOM     15  H1  UNL     1      -4.690   2.758  11.642  1.00  0.00     0.170 HD
HETATM   16  O1  UNL     1      -1.791   2.513  11.985  1.00  0.00    -0.271 OA
BRANCH  14  17
HETATM   17  C6  UNL     1      -4.453   2.510  13.597  1.00  0.00     0.107 A 
HETATM   18  C5  UNL     1      -5.468   3.237  14.183  1.00  0.00     0.049 A 
HETATM   19  C4  UNL     1      -5.870   2.845  15.440  1.00  0.00     0.012 A 
HETATM   20  C3  UNL     1      -5.308   1.788  16.099  1.00  0.00    -0.043 A 
HETATM   21  C21 UNL     1      -4.287   1.086  15.462  1.00  0.00     0.096 A 
HETATM   22  N6  UNL     1      -3.883   1.462  14.225  1.00  0.00    -0.352 N 
ATOM     23  H6  UNL     1      -3.135   0.946  13.762  1.00  0.00     0.166 HD
BRANCH  20  24
HETATM   24  C2  UNL     1      -5.773   1.403  17.449  1.00  0.00     0.035 C 
HETATM   25  C1  UNL     1      -7.233   0.997  17.317  1.00  0.00     0.010 C 
ENDBRANCH  20  24
ENDBRANCH  14  17
ENDBRANCH  12  13
ENDBRANCH   1  12
BRANCH   6  26
HETATM   26  C11 UNL     1      -6.370   7.600   8.576  1.00  0.00     0.045 A 
HETATM   27  C12 UNL     1      -7.591   6.958   8.482  1.00  0.00     0.030 A 
HETATM   28  C13 UNL     1      -8.764   7.665   8.291  1.00  0.00     0.004 A 
HETATM   29  C14 UNL     1      -8.726   9.042   8.193  1.00  0.00     0.017 A 
HETATM   30  C15 UNL     1      -7.489   9.644   8.292  1.00  0.00     0.088 A 
HETATM   31  N5  UNL     1      -6.357   8.937   8.478  1.00  0.00    -0.365 N 
ATOM     32  H5  UNL     1      -5.468   9.432   8.545  1.00  0.00     0.165 HD
ENDBRANCH   6  26
TORSDOF 5
ENDMDL
MODEL 5
REMARK VINA RESULT: -8.156870423      2.855      3.271
REMARK  5 active torsions:
REMARK  status: ('A' for Active; 'I' for Inactive)
REMARK    1  A    between atoms: C2_2  and  C3_3 
REMARK    2  A    between atoms: C6_6  and  N1_7 
REMARK       I    between atoms: N1_7  and  C7_9 
REMARK    3  A    between atoms: C7_9  and  C8_11 
REMARK    4  A    between atoms: C8_11  and  N2_12 
REMARK    5  A    between atoms: C10_17  and  C11_18 
ROOT
HETATM    1  N2  UNL     1      -2.036   3.705  11.818  1.00  0.00    -0.265 N 
HETATM    2  N3  UNL     1      -1.608   3.752  13.081  1.00  0.00    -0.019 NA
HETATM    3  N4  UNL     1      -1.384   5.008  13.432  1.00  0.00    -0.281 N 
ATOM      4  H4  UNL     1      -1.051   5.320  14.345  1.00  0.00     0.184 HD
HETATM    5  C9  UNL     1      -1.667   5.808  12.388  1.00  0.00     0.087 A 
HETATM    6  C10 UNL     1      -1.617   7.185  12.195  1.00  0.00     0.027 A 
HETATM    7  C16 UNL     1      -1.980   7.750  10.968  1.00  0.00    -0.047 A 
HETATM    8  C17 UNL     1      -1.904   9.209  10.828  1.00  0.00     0.049 C 
HETATM    9  C18 UNL     1      -2.390   6.900   9.962  1.00  0.00     0.010 A 
HETATM   10  C19 UNL     1      -2.442   5.518  10.153  1.00  0.00     0.034 A 
HETATM   11  C20 UNL     1      -2.080   4.977  11.368  1.00  0.00     0.078 A 
ENDROOT
BRANCH   1  12
HETATM   12  C8  UNL     1      -2.374   2.486  11.116  1.00  0.00     0.250 C 
BRANCH  12  13
HETATM   13  C7  UNL     1      -3.832   2.250  11.229  1.00  0.00     0.242 C 
HETATM   14  N1  UNL     1      -4.648   3.030  12.117  1.00  0.00    -0.312 N 
ATOM     15  H1  UNL     1      -5.057   3.904  11.784  1.00  0.00     0.170 HD
HETATM   16  O1  UNL     1      -4.363   1.348  10.532  1.00  0.00    -0.271 OA
BRANCH  14  17
HETATM   17  C6  UNL     1      -4.872   2.651  13.312  1.00  0.00     0.107 A 
HETATM   18  C5  UNL     1      -5.726   3.396  14.097  1.00  0.00     0.049 A 
HETATM   19  C4  UNL     1      -5.940   2.951  15.382  1.00  0.00     0.012 A 
HETATM   20  C3  UNL     1      -5.346   1.826  15.882  1.00  0.00    -0.043 A 
HETATM   21  C21 UNL     1      -4.492   1.110  15.048  1.00  0.00     0.096 A 
HETATM   22  N6  UNL     1      -4.274   1.538  13.781  1.00  0.00    -0.352 N 
ATOM     23  H6  UNL     1      -3.648   1.010  13.173  1.00  0.00     0.166 HD
BRANCH  20  24
HETATM   24  C2  UNL     1      -5.605   1.386  17.270  1.00  0.00     0.035 C 
HETATM   25  C1  UNL     1      -7.090   1.064  17.364  1.00  0.00     0.010 C 
ENDBRANCH  20  24
ENDBRANCH  14  17
ENDBRANCH  12  13
ENDBRANCH   1  12
BRANCH   6  26
HETATM   26  C11 UNL     1      -1.179   8.067  13.274  1.00  0.00     0.045 A 
HETATM   27  C12 UNL     1      -2.050   8.328  14.316  1.00  0.00     0.030 A 
HETATM   28  C13 UNL     1      -1.691   9.155  15.365  1.00  0.00     0.004 A 
HETATM   29  C14 UNL     1      -0.439   9.735  15.383  1.00  0.00     0.017 A 
HETATM   30  C15 UNL     1       0.401   9.449  14.326  1.00  0.00     0.088 A 
HETATM   31  N5  UNL     1       0.032   8.641  13.313  1.00  0.00    -0.365 N 
ATOM     32  H5  UNL     1       0.691   8.462  12.555  1.00  0.00     0.165 HD
ENDBRANCH   6  26
TORSDOF 5
ENDMDL
