MODEL 1
REMARK VINA RESULT: -6.764019955      0.000      0.000
REMARK  6 active torsions:
REMARK  status: ('A' for Active; 'I' for Inactive)
REMARK       I    between atoms: C1_4  and  N2_5 
REMARK       I    between atoms: C1_4  and  N4_12 
REMARK    1  A    between atoms: N2_5  and  C2_7 
REMARK    2  A    between atoms: C2_7  and  C3_8 
REMARK    3  A    between atoms: C3_8  and  C4_9 
REMARK    4  A    between atoms: N5_15  and  C7_16 
REMARK    5  A    between atoms: C7_16  and  C8_17 
REMARK       I    between atoms: C8_17  and  N6_19 
REMARK    6  A    between atoms: N6_19  and  N7_21 
ROOT
HETATM    1  N1  UNL     1      29.877  66.838  11.249  1.00  0.00    -0.235 N 
ATOM      2  H11 UNL     1      29.177  67.146  11.925  1.00  0.00     0.174 HD
ATOM      3  H12 UNL     1      30.802  67.266  11.228  1.00  0.00     0.174 HD
HETATM    4  C1  UNL     1      29.589  65.906  10.425  1.00  0.00     0.669 C 
HETATM    5  N2  UNL     1      30.556  65.479   9.491  1.00  0.00    -0.226 N 
ATOM      6  H2  UNL     1      30.509  64.534   9.110  1.00  0.00     0.177 HD
HETATM    7  N4  UNL     1      28.311  65.314  10.454  1.00  0.00    -0.215 N 
HETATM    8  C5  UNL     1      28.246  63.862  10.616  1.00  0.00     0.160 C 
HETATM    9  C6  UNL     1      27.375  63.635  11.834  1.00  0.00     0.137 C 
HETATM   10  N5  UNL     1      26.065  64.157  11.676  1.00  0.00    -0.401 N 
HETATM   11  C9  UNL     1      26.028  65.532  11.331  1.00  0.00     0.137 C 
HETATM   12  C10 UNL     1      27.052  65.993  10.341  1.00  0.00     0.160 C 
ENDROOT
BRANCH   5  13
HETATM   13  C2  UNL     1      31.602  66.358   9.075  1.00  0.00     0.147 C 
BRANCH  13  14
HETATM   14  C3  UNL     1      31.650  66.544   7.575  1.00  0.00     0.119 C 
BRANCH  14  15
HETATM   15  C4  UNL     1      30.323  66.328   6.950  1.00  0.00     0.232 C 
HETATM   16  N3  UNL     1      29.379  67.378   6.958  1.00  0.00    -0.062 NA
HETATM   17  O1  UNL     1      29.978  65.243   6.401  1.00  0.00    -0.277 OA
ENDBRANCH  14  15
ENDBRANCH  13  14
ENDBRANCH   5  13
BRANCH  10  18
HETATM   18  C7  UNL     1      25.095  63.332  11.063  1.00  0.00     0.221 C 
BRANCH  18  19
HETATM   19  C8  UNL     1      24.842  63.709   9.651  1.00  0.00     0.253 C 
HETATM   20  O2  UNL     1      25.520  63.216   8.737  1.00  0.00    -0.270 OA
HETATM   21  N6  UNL     1      23.821  64.642   9.294  1.00  0.00    -0.275 N 
ATOM     22  H6  UNL     1      23.246  65.064  10.024  1.00  0.00     0.189 HD
BRANCH  21  23
HETATM   23  N7  UNL     1      23.598  64.986   7.959  1.00  0.00    -0.343 N 
ATOM     24  H72 UNL     1      24.390  65.296   7.398  1.00  0.00     0.176 HD
ATOM     25  H71 UNL     1      22.664  64.929   7.553  1.00  0.00     0.176 HD
ENDBRANCH  21  23
ENDBRANCH  18  19
ENDBRANCH  10  18
TORSDOF 6
ENDMDL
MODEL 2
REMARK VINA RESULT: -6.719610823      3.778      7.700
REMARK  6 active torsions:
REMARK  status: ('A' for Active; 'I' for Inactive)
REMARK       I    between atoms: C1_4  and  N2_5 
REMARK       I    between atoms: C1_4  and  N4_12 
REMARK    1  A    between atoms: N2_5  and  C2_7 
REMARK    2  A    between atoms: C2_7  and  C3_8 
REMARK    3  A    between atoms: C3_8  and  C4_9 
REMARK    4  A    between atoms: N5_15  and  C7_16 
REMARK    5  A    between atoms: C7_16  and  C8_17 
REMARK       I    between atoms: C8_17  and  N6_19 
REMARK    6  A    between atoms: N6_19  and  N7_21 
ROOT
HETATM    1  N1  UNL     1      24.427  63.003  12.827  1.00  0.00    -0.235 N 
ATOM      2  H11 UNL     1      24.682  62.518  11.966  1.00  0.00     0.174 HD
ATOM      3  H12 UNL     1      23.799  62.567  13.502  1.00  0.00     0.174 HD
HETATM    4  C1  UNL     1      24.899  64.166  13.060  1.00  0.00     0.669 C 
HETATM    5  N2  UNL     1      24.546  64.836  14.249  1.00  0.00    -0.226 N 
ATOM      6  H2  UNL     1      25.170  65.545  14.636  1.00  0.00     0.177 HD
HETATM    7  N4  UNL     1      25.767  64.770  12.127  1.00  0.00    -0.215 N 
HETATM    8  C5  UNL     1      27.076  65.205  12.612  1.00  0.00     0.160 C 
HETATM    9  C6  UNL     1      28.083  64.508  11.721  1.00  0.00     0.137 C 
HETATM   10  N5  UNL     1      27.939  64.858  10.353  1.00  0.00    -0.401 N 
HETATM   11  C9  UNL     1      26.636  64.643   9.835  1.00  0.00     0.137 C 
HETATM   12  C10 UNL     1      25.498  65.004  10.738  1.00  0.00     0.160 C 
ENDROOT
BRANCH   5  13
HETATM   13  C2  UNL     1      23.321  64.532  14.918  1.00  0.00     0.147 C 
BRANCH  13  14
HETATM   14  C3  UNL     1      23.027  65.478  16.060  1.00  0.00     0.119 C 
BRANCH  14  15
HETATM   15  C4  UNL     1      23.563  64.973  17.347  1.00  0.00     0.232 C 
HETATM   16  N3  UNL     1      23.115  63.728  17.838  1.00  0.00    -0.062 NA
HETATM   17  O1  UNL     1      24.411  65.601  18.044  1.00  0.00    -0.277 OA
ENDBRANCH  14  15
ENDBRANCH  13  14
ENDBRANCH   5  13
BRANCH  10  18
HETATM   18  C7  UNL     1      28.613  66.012   9.891  1.00  0.00     0.221 C 
BRANCH  18  19
HETATM   19  C8  UNL     1      29.934  65.695   9.295  1.00  0.00     0.253 C 
HETATM   20  O2  UNL     1      30.023  65.369   8.102  1.00  0.00    -0.270 OA
HETATM   21  N6  UNL     1      31.137  65.752  10.063  1.00  0.00    -0.275 N 
ATOM     22  H6  UNL     1      31.094  66.018  11.048  1.00  0.00     0.189 HD
BRANCH  21  23
HETATM   23  N7  UNL     1      32.371  65.449   9.486  1.00  0.00    -0.343 N 
ATOM     24  H72 UNL     1      32.408  65.267   8.483  1.00  0.00     0.176 HD
ATOM     25  H71 UNL     1      33.219  65.410  10.052  1.00  0.00     0.176 HD
ENDBRANCH  21  23
ENDBRANCH  18  19
ENDBRANCH  10  18
TORSDOF 6
ENDMDL
MODEL 3
REMARK VINA RESULT: -6.489012935      5.091      7.463
REMARK  6 active torsions:
REMARK  status: ('A' for Active; 'I' for Inactive)
REMARK       I    between atoms: C1_4  and  N2_5 
REMARK       I    between atoms: C1_4  and  N4_12 
REMARK    1  A    between atoms: N2_5  and  C2_7 
REMARK    2  A    between atoms: C2_7  and  C3_8 
REMARK    3  A    between atoms: C3_8  and  C4_9 
REMARK    4  A    between atoms: N5_15  and  C7_16 
REMARK    5  A    between atoms: C7_16  and  C8_17 
REMARK       I    between atoms: C8_17  and  N6_19 
REMARK    6  A    between atoms: N6_19  and  N7_21 
ROOT
HETATM    1  N1  UNL     1      26.552  64.303  16.269  1.00  0.00    -0.235 N 
ATOM      2  H11 UNL     1      26.051  63.775  15.553  1.00  0.00     0.174 HD
ATOM      3  H12 UNL     1      26.432  64.080  17.257  1.00  0.00     0.174 HD
HETATM    4  C1  UNL     1      27.335  65.249  15.921  1.00  0.00     0.669 C 
HETATM    5  N2  UNL     1      28.027  65.979  16.911  1.00  0.00    -0.226 N 
ATOM      6  H2  UNL     1      28.905  66.443  16.676  1.00  0.00     0.177 HD
HETATM    7  N4  UNL     1      27.501  65.557  14.556  1.00  0.00    -0.215 N 
HETATM    8  C5  UNL     1      28.863  65.542  14.024  1.00  0.00     0.160 C 
HETATM    9  C6  UNL     1      28.826  64.572  12.861  1.00  0.00     0.137 C 
HETATM   10  N5  UNL     1      27.921  64.972  11.844  1.00  0.00    -0.401 N 
HETATM   11  C9  UNL     1      26.597  65.194  12.303  1.00  0.00     0.137 C 
HETATM   12  C10 UNL     1      26.463  65.887  13.623  1.00  0.00     0.160 C 
ENDROOT
BRANCH   5  13
HETATM   13  C2  UNL     1      27.510  66.073  18.238  1.00  0.00     0.147 C 
BRANCH  13  14
HETATM   14  C3  UNL     1      28.593  66.027  19.293  1.00  0.00     0.119 C 
BRANCH  14  15
HETATM   15  C4  UNL     1      29.892  66.515  18.772  1.00  0.00     0.232 C 
HETATM   16  N3  UNL     1      30.936  65.591  18.551  1.00  0.00    -0.062 NA
HETATM   17  O1  UNL     1      30.127  67.729  18.509  1.00  0.00    -0.277 OA
ENDBRANCH  14  15
ENDBRANCH  13  14
ENDBRANCH   5  13
BRANCH  10  18
HETATM   18  C7  UNL     1      28.394  65.855  10.847  1.00  0.00     0.221 C 
BRANCH  18  19
HETATM   19  C8  UNL     1      29.584  65.324  10.139  1.00  0.00     0.253 C 
HETATM   20  O2  UNL     1      29.511  64.269   9.490  1.00  0.00    -0.270 OA
HETATM   21  N6  UNL     1      30.843  65.998  10.177  1.00  0.00    -0.275 N 
ATOM     22  H6  UNL     1      30.933  66.868  10.702  1.00  0.00     0.189 HD
BRANCH  21  23
HETATM   23  N7  UNL     1      31.953  65.482   9.505  1.00  0.00    -0.343 N 
ATOM     24  H72 UNL     1      31.833  65.152   8.548  1.00  0.00     0.176 HD
ATOM     25  H71 UNL     1      32.865  65.435   9.960  1.00  0.00     0.176 HD
ENDBRANCH  21  23
ENDBRANCH  18  19
ENDBRANCH  10  18
TORSDOF 6
ENDMDL
MODEL 4
REMARK VINA RESULT: -6.401152060      1.743      2.149
REMARK  6 active torsions:
REMARK  status: ('A' for Active; 'I' for Inactive)
REMARK       I    between atoms: C1_4  and  N2_5 
REMARK       I    between atoms: C1_4  and  N4_12 
REMARK    1  A    between atoms: N2_5  and  C2_7 
REMARK    2  A    between atoms: C2_7  and  C3_8 
REMARK    3  A    between atoms: C3_8  and  C4_9 
REMARK    4  A    between atoms: N5_15  and  C7_16 
REMARK    5  A    between atoms: C7_16  and  C8_17 
REMARK       I    between atoms: C8_17  and  N6_19 
REMARK    6  A    between atoms: N6_19  and  N7_21 
ROOT
HETATM    1  N1  UNL     1      30.309  66.830  10.933  1.00  0.00    -0.235 N 
ATOM      2  H11 UNL     1      29.722  67.163  11.699  1.00  0.00     0.174 HD
ATOM      3  H12 UNL     1      31.256  67.187  10.811  1.00  0.00     0.174 HD
HETATM    4  C1  UNL     1      29.851  65.955  10.123  1.00  0.00     0.669 C 
HETATM    5  N2  UNL     1      30.663  65.494   9.066  1.00  0.00    -0.226 N 
ATOM      6  H2  UNL     1      30.495  64.571   8.665  1.00  0.00     0.177 HD
HETATM    7  N4  UNL     1      28.543  65.460  10.291  1.00  0.00    -0.215 N 
HETATM    8  C5  UNL     1      28.382  64.012  10.417  1.00  0.00     0.160 C 
HETATM    9  C6  UNL     1      27.649  63.804  11.725  1.00  0.00     0.137 C 
HETATM   10  N5  UNL     1      26.374  64.429  11.744  1.00  0.00    -0.401 N 
HETATM   11  C9  UNL     1      26.406  65.815  11.447  1.00  0.00     0.137 C 
HETATM   12  C10 UNL     1      27.337  66.236  10.353  1.00  0.00     0.160 C 
ENDROOT
BRANCH   5  13
HETATM   13  C2  UNL     1      31.717  66.307   8.551  1.00  0.00     0.147 C 
BRANCH  13  14
HETATM   14  C3  UNL     1      31.458  66.778   7.138  1.00  0.00     0.119 C 
BRANCH  14  15
HETATM   15  C4  UNL     1      30.131  66.339   6.645  1.00  0.00     0.232 C 
HETATM   16  N3  UNL     1      29.041  67.233   6.711  1.00  0.00    -0.062 NA
HETATM   17  O1  UNL     1      29.911  65.191   6.160  1.00  0.00    -0.277 OA
ENDBRANCH  14  15
ENDBRANCH  13  14
ENDBRANCH   5  13
BRANCH  10  18
HETATM   18  C7  UNL     1      25.275  63.704  11.230  1.00  0.00     0.221 C 
BRANCH  18  19
HETATM   19  C8  UNL     1      24.095  63.753  12.128  1.00  0.00     0.253 C 
HETATM   20  O2  UNL     1      23.187  64.574  11.928  1.00  0.00    -0.270 OA
HETATM   21  N6  UNL     1      23.962  62.868  13.241  1.00  0.00    -0.275 N 
ATOM     22  H6  UNL     1      24.694  62.182  13.429  1.00  0.00     0.189 HD
BRANCH  21  23
HETATM   23  N7  UNL     1      22.846  62.930  14.077  1.00  0.00    -0.343 N 
ATOM     24  H72 UNL     1      22.866  63.568  14.872  1.00  0.00     0.176 HD
ATOM     25  H71 UNL     1      22.025  62.351  13.898  1.00  0.00     0.176 HD
ENDBRANCH  21  23
ENDBRANCH  18  19
ENDBRANCH  10  18
TORSDOF 6
ENDMDL
MODEL 5
REMARK VINA RESULT: -6.355350737      2.796      4.202
REMARK  6 active torsions:
REMARK  status: ('A' for Active; 'I' for Inactive)
REMARK       I    between atoms: C1_4  and  N2_5 
REMARK       I    between atoms: C1_4  and  N4_12 
REMARK    1  A    between atoms: N2_5  and  C2_7 
REMARK    2  A    between atoms: C2_7  and  C3_8 
REMARK    3  A    between atoms: C3_8  and  C4_9 
REMARK    4  A    between atoms: N5_15  and  C7_16 
REMARK    5  A    between atoms: C7_16  and  C8_17 
REMARK       I    between atoms: C8_17  and  N6_19 
REMARK    6  A    between atoms: N6_19  and  N7_21 
ROOT
HETATM    1  N1  UNL     1      26.054  66.481   8.145  1.00  0.00    -0.235 N 
ATOM      2  H11 UNL     1      25.153  66.207   8.539  1.00  0.00     0.174 HD
ATOM      3  H12 UNL     1      26.100  67.026   7.284  1.00  0.00     0.174 HD
HETATM    4  C1  UNL     1      27.132  66.137   8.737  1.00  0.00     0.669 C 
HETATM    5  N2  UNL     1      28.376  66.515   8.192  1.00  0.00    -0.226 N 
ATOM      6  H2  UNL     1      29.190  66.601   8.801  1.00  0.00     0.177 HD
HETATM    7  N4  UNL     1      27.069  65.384   9.926  1.00  0.00    -0.215 N 
HETATM    8  C5  UNL     1      27.744  65.928  11.104  1.00  0.00     0.160 C 
HETATM    9  C6  UNL     1      26.677  66.006  12.175  1.00  0.00     0.137 C 
HETATM   10  N5  UNL     1      26.122  64.738  12.487  1.00  0.00    -0.401 N 
HETATM   11  C9  UNL     1      25.601  64.043  11.366  1.00  0.00     0.137 C 
HETATM   12  C10 UNL     1      26.405  64.125  10.106  1.00  0.00     0.160 C 
ENDROOT
BRANCH   5  13
HETATM   13  C2  UNL     1      28.508  66.780   6.795  1.00  0.00     0.147 C 
BRANCH  13  14
HETATM   14  C3  UNL     1      29.781  66.215   6.208  1.00  0.00     0.119 C 
BRANCH  14  15
HETATM   15  C4  UNL     1      30.986  66.870   6.771  1.00  0.00     0.232 C 
HETATM   16  N3  UNL     1      31.390  66.555   8.087  1.00  0.00    -0.062 NA
HETATM   17  O1  UNL     1      31.687  67.708   6.134  1.00  0.00    -0.277 OA
ENDBRANCH  14  15
ENDBRANCH  13  14
ENDBRANCH   5  13
BRANCH  10  18
HETATM   18  C7  UNL     1      26.776  63.951  13.463  1.00  0.00     0.221 C 
BRANCH  18  19
HETATM   19  C8  UNL     1      27.034  64.702  14.715  1.00  0.00     0.253 C 
HETATM   20  O2  UNL     1      26.099  65.002  15.472  1.00  0.00    -0.270 OA
HETATM   21  N6  UNL     1      28.353  65.103  15.092  1.00  0.00    -0.275 N 
ATOM     22  H6  UNL     1      29.142  64.869  14.489  1.00  0.00     0.189 HD
BRANCH  21  23
HETATM   23  N7  UNL     1      28.577  65.810  16.274  1.00  0.00    -0.343 N 
ATOM     24  H72 UNL     1      28.104  66.704  16.404  1.00  0.00     0.176 HD
ATOM     25  H71 UNL     1      29.199  65.444  16.994  1.00  0.00     0.176 HD
ENDBRANCH  21  23
ENDBRANCH  18  19
ENDBRANCH  10  18
TORSDOF 6
ENDMDL
