MODEL 1
REMARK VINA RESULT: -6.609081352      0.000      0.000
REMARK  8 active torsions:
REMARK  status: ('A' for Active; 'I' for Inactive)
REMARK    1  A    between atoms: C2_2  and  N1_3 
REMARK    2  A    between atoms: N1_3  and  C3_5 
REMARK    3  A    between atoms: C3_5  and  N2_7 
REMARK    4  A    between atoms: N2_7  and  N3_9 
REMARK       I    between atoms: N3_9  and  C4_11 
REMARK    5  A    between atoms: C4_11  and  C5_13 
REMARK    6  A    between atoms: C5_13  and  N4_14 
REMARK       I    between atoms: N4_14  and  C6_15 
REMARK    7  A    between atoms: C6_15  and  C7_17 
REMARK    8  A    between atoms: C7_17  and  C8_18 
ROOT
HETATM    1  N3  UNL     1      29.656  64.892  10.950  1.00  0.00    -0.262 N 
ATOM      2  H3  UNL     1      30.043  64.401  11.755  1.00  0.00     0.190 HD
HETATM    3  C4  UNL     1      28.367  64.580  10.500  1.00  0.00     0.288 C 
HETATM    4  O1  UNL     1      27.882  65.155   9.504  1.00  0.00    -0.264 OA
ENDROOT
BRANCH   1   5
HETATM    5  N2  UNL     1      30.409  65.860  10.310  1.00  0.00    -0.274 N 
ATOM      6  H2  UNL     1      30.551  66.707  10.860  1.00  0.00     0.189 HD
BRANCH   5   7
HETATM    7  C3  UNL     1      31.006  65.892   9.059  1.00  0.00     0.186 C 
HETATM    8  S1  UNL     1      32.633  66.385   9.035  1.00  0.00    -0.040 SA
BRANCH   7   9
HETATM    9  N1  UNL     1      30.455  65.573   7.833  1.00  0.00    -0.366 N 
ATOM     10  H1  UNL     1      30.083  64.626   7.756  1.00  0.00     0.161 HD
BRANCH   9  11
HETATM   11  C2  UNL     1      30.329  66.370   6.659  1.00  0.00     0.117 C 
HETATM   12  C1  UNL     1      28.865  66.596   6.285  1.00  0.00     0.026 C 
ENDBRANCH   9  11
ENDBRANCH   7   9
ENDBRANCH   5   7
ENDBRANCH   1   5
BRANCH   3  13
HETATM   13  C5  UNL     1      27.524  63.563  11.160  1.00  0.00     0.262 C 
BRANCH  13  14
HETATM   14  N4  UNL     1      26.782  62.749  10.329  1.00  0.00    -0.377 NA
HETATM   15  C6  UNL     1      26.061  61.935   9.507  1.00  0.00     0.299 C 
HETATM   16  O2  UNL     1      26.444  60.850   9.029  1.00  0.00    -0.257 OA
BRANCH  15  17
HETATM   17  C7  UNL     1      24.680  62.453   9.167  1.00  0.00     0.218 C 
BRANCH  17  18
HETATM   18  C8  UNL     1      24.644  63.833   8.700  1.00  0.00     0.240 C 
HETATM   19  N5  UNL     1      23.955  64.821   9.517  1.00  0.00    -0.062 NA
HETATM   20  O3  UNL     1      25.135  64.278   7.669  1.00  0.00    -0.276 OA
ENDBRANCH  17  18
ENDBRANCH  15  17
ENDBRANCH  13  14
ENDBRANCH   3  13
TORSDOF 8
ENDMDL
MODEL 2
REMARK VINA RESULT: -6.422684580      1.625      1.977
REMARK  8 active torsions:
REMARK  status: ('A' for Active; 'I' for Inactive)
REMARK    1  A    between atoms: C2_2  and  N1_3 
REMARK    2  A    between atoms: N1_3  and  C3_5 
REMARK    3  A    between atoms: C3_5  and  N2_7 
REMARK    4  A    between atoms: N2_7  and  N3_9 
REMARK       I    between atoms: N3_9  and  C4_11 
REMARK    5  A    between atoms: C4_11  and  C5_13 
REMARK    6  A    between atoms: C5_13  and  N4_14 
REMARK       I    between atoms: N4_14  and  C6_15 
REMARK    7  A    between atoms: C6_15  and  C7_17 
REMARK    8  A    between atoms: C7_17  and  C8_18 
ROOT
HETATM    1  N3  UNL     1      30.099  65.882  10.761  1.00  0.00    -0.262 N 
ATOM      2  H3  UNL     1      30.182  66.672  11.400  1.00  0.00     0.190 HD
HETATM    3  C4  UNL     1      28.953  65.078  10.796  1.00  0.00     0.288 C 
HETATM    4  O1  UNL     1      28.839  64.094  10.036  1.00  0.00    -0.264 OA
ENDROOT
BRANCH   1   5
HETATM    5  N2  UNL     1      31.119  65.612   9.867  1.00  0.00    -0.274 N 
ATOM      6  H2  UNL     1      31.916  65.127  10.279  1.00  0.00     0.189 HD
BRANCH   5   7
HETATM    7  C3  UNL     1      31.258  65.879   8.514  1.00  0.00     0.186 C 
HETATM    8  S1  UNL     1      32.651  66.753   8.078  1.00  0.00    -0.040 SA
BRANCH   7   9
HETATM    9  N1  UNL     1      30.419  65.526   7.474  1.00  0.00    -0.366 N 
ATOM     10  H1  UNL     1      30.034  64.583   7.528  1.00  0.00     0.161 HD
BRANCH   9  11
HETATM   11  C2  UNL     1      30.011  66.283   6.340  1.00  0.00     0.117 C 
HETATM   12  C1  UNL     1      28.558  66.743   6.461  1.00  0.00     0.026 C 
ENDBRANCH   9  11
ENDBRANCH   7   9
ENDBRANCH   5   7
ENDBRANCH   1   5
BRANCH   3  13
HETATM   13  C5  UNL     1      27.834  65.335  11.726  1.00  0.00     0.262 C 
BRANCH  13  14
HETATM   14  N4  UNL     1      26.701  64.567  11.550  1.00  0.00    -0.377 NA
HETATM   15  C6  UNL     1      25.584  63.804  11.393  1.00  0.00     0.299 C 
HETATM   16  O2  UNL     1      25.029  63.123  12.276  1.00  0.00    -0.257 OA
BRANCH  15  17
HETATM   17  C7  UNL     1      25.013  63.811   9.990  1.00  0.00     0.218 C 
BRANCH  17  18
HETATM   18  C8  UNL     1      25.136  62.546   9.275  1.00  0.00     0.240 C 
HETATM   19  N5  UNL     1      26.336  61.749   9.483  1.00  0.00    -0.062 NA
HETATM   20  O3  UNL     1      24.329  62.058   8.492  1.00  0.00    -0.276 OA
ENDBRANCH  17  18
ENDBRANCH  15  17
ENDBRANCH  13  14
ENDBRANCH   3  13
TORSDOF 8
ENDMDL
MODEL 3
REMARK VINA RESULT: -6.398725435      1.624      1.949
REMARK  8 active torsions:
REMARK  status: ('A' for Active; 'I' for Inactive)
REMARK    1  A    between atoms: C2_2  and  N1_3 
REMARK    2  A    between atoms: N1_3  and  C3_5 
REMARK    3  A    between atoms: C3_5  and  N2_7 
REMARK    4  A    between atoms: N2_7  and  N3_9 
REMARK       I    between atoms: N3_9  and  C4_11 
REMARK    5  A    between atoms: C4_11  and  C5_13 
REMARK    6  A    between atoms: C5_13  and  N4_14 
REMARK       I    between atoms: N4_14  and  C6_15 
REMARK    7  A    between atoms: C6_15  and  C7_17 
REMARK    8  A    between atoms: C7_17  and  C8_18 
ROOT
HETATM    1  N3  UNL     1      27.744  65.592   9.614  1.00  0.00    -0.262 N 
ATOM      2  H3  UNL     1      26.781  65.572   9.280  1.00  0.00     0.190 HD
HETATM    3  C4  UNL     1      28.140  64.729  10.645  1.00  0.00     0.288 C 
HETATM    4  O1  UNL     1      29.309  64.751  11.082  1.00  0.00    -0.264 OA
ENDROOT
BRANCH   1   5
HETATM    5  N2  UNL     1      28.649  66.469   9.046  1.00  0.00    -0.274 N 
ATOM      6  H2  UNL     1      28.510  67.443   9.317  1.00  0.00     0.189 HD
BRANCH   5   7
HETATM    7  C3  UNL     1      29.711  66.271   8.178  1.00  0.00     0.186 C 
HETATM    8  S1  UNL     1      29.440  66.742   6.566  1.00  0.00    -0.040 SA
BRANCH   7   9
HETATM    9  N1  UNL     1      30.960  65.745   8.450  1.00  0.00    -0.366 N 
ATOM     10  H1  UNL     1      31.054  64.742   8.286  1.00  0.00     0.161 HD
BRANCH   9  11
HETATM   11  C2  UNL     1      32.135  66.394   8.924  1.00  0.00     0.117 C 
HETATM   12  C1  UNL     1      33.017  66.877   7.773  1.00  0.00     0.026 C 
ENDBRANCH   9  11
ENDBRANCH   7   9
ENDBRANCH   5   7
ENDBRANCH   1   5
BRANCH   3  13
HETATM   13  C5  UNL     1      27.210  63.768  11.272  1.00  0.00     0.262 C 
BRANCH  13  14
HETATM   14  N4  UNL     1      26.498  62.954  10.414  1.00  0.00    -0.377 NA
HETATM   15  C6  UNL     1      25.808  62.139   9.568  1.00  0.00     0.299 C 
HETATM   16  O2  UNL     1      26.147  60.995   9.211  1.00  0.00    -0.257 OA
BRANCH  15  17
HETATM   17  C7  UNL     1      24.523  62.735   9.033  1.00  0.00     0.218 C 
BRANCH  17  18
HETATM   18  C8  UNL     1      24.644  64.101   8.538  1.00  0.00     0.240 C 
HETATM   19  N5  UNL     1      23.775  65.121   9.105  1.00  0.00    -0.062 NA
HETATM   20  O3  UNL     1      25.410  64.509   7.672  1.00  0.00    -0.276 OA
ENDBRANCH  17  18
ENDBRANCH  15  17
ENDBRANCH  13  14
ENDBRANCH   3  13
TORSDOF 8
ENDMDL
MODEL 4
REMARK VINA RESULT: -6.304997829      1.574      1.632
REMARK  8 active torsions:
REMARK  status: ('A' for Active; 'I' for Inactive)
REMARK    1  A    between atoms: C2_2  and  N1_3 
REMARK    2  A    between atoms: N1_3  and  C3_5 
REMARK    3  A    between atoms: C3_5  and  N2_7 
REMARK    4  A    between atoms: N2_7  and  N3_9 
REMARK       I    between atoms: N3_9  and  C4_11 
REMARK    5  A    between atoms: C4_11  and  C5_13 
REMARK    6  A    between atoms: C5_13  and  N4_14 
REMARK       I    between atoms: N4_14  and  C6_15 
REMARK    7  A    between atoms: C6_15  and  C7_17 
REMARK    8  A    between atoms: C7_17  and  C8_18 
ROOT
HETATM    1  N3  UNL     1      29.944  65.930  10.702  1.00  0.00    -0.262 N 
ATOM      2  H3  UNL     1      29.928  66.731  11.333  1.00  0.00     0.190 HD
HETATM    3  C4  UNL     1      28.850  65.056  10.662  1.00  0.00     0.288 C 
HETATM    4  O1  UNL     1      28.857  64.058   9.911  1.00  0.00    -0.264 OA
ENDROOT
BRANCH   1   5
HETATM    5  N2  UNL     1      31.044  65.716   9.891  1.00  0.00    -0.274 N 
ATOM      6  H2  UNL     1      31.856  65.343  10.383  1.00  0.00     0.189 HD
BRANCH   5   7
HETATM    7  C3  UNL     1      31.247  65.914   8.535  1.00  0.00     0.186 C 
HETATM    8  S1  UNL     1      32.669  66.750   8.120  1.00  0.00    -0.040 SA
BRANCH   7   9
HETATM    9  N1  UNL     1      30.450  65.519   7.477  1.00  0.00    -0.366 N 
ATOM     10  H1  UNL     1      30.093  64.565   7.535  1.00  0.00     0.161 HD
BRANCH   9  11
HETATM   11  C2  UNL     1      30.054  66.246   6.319  1.00  0.00     0.117 C 
HETATM   12  C1  UNL     1      28.610  66.736   6.427  1.00  0.00     0.026 C 
ENDBRANCH   9  11
ENDBRANCH   7   9
ENDBRANCH   5   7
ENDBRANCH   1   5
BRANCH   3  13
HETATM   13  C5  UNL     1      27.651  65.252  11.500  1.00  0.00     0.262 C 
BRANCH  13  14
HETATM   14  N4  UNL     1      26.590  64.402  11.262  1.00  0.00    -0.377 NA
HETATM   15  C6  UNL     1      25.540  63.562  11.044  1.00  0.00     0.299 C 
HETATM   16  O2  UNL     1      24.763  63.117  11.910  1.00  0.00    -0.257 OA
BRANCH  15  17
HETATM   17  C7  UNL     1      25.354  63.154   9.597  1.00  0.00     0.218 C 
BRANCH  17  18
HETATM   18  C8  UNL     1      24.847  64.208   8.727  1.00  0.00     0.240 C 
HETATM   19  N5  UNL     1      25.776  64.851   7.809  1.00  0.00    -0.062 NA
HETATM   20  O3  UNL     1      23.700  64.635   8.674  1.00  0.00    -0.276 OA
ENDBRANCH  17  18
ENDBRANCH  15  17
ENDBRANCH  13  14
ENDBRANCH   3  13
TORSDOF 8
ENDMDL
MODEL 5
REMARK VINA RESULT: -6.248269200      1.125      1.128
REMARK  8 active torsions:
REMARK  status: ('A' for Active; 'I' for Inactive)
REMARK    1  A    between atoms: C2_2  and  N1_3 
REMARK    2  A    between atoms: N1_3  and  C3_5 
REMARK    3  A    between atoms: C3_5  and  N2_7 
REMARK    4  A    between atoms: N2_7  and  N3_9 
REMARK       I    between atoms: N3_9  and  C4_11 
REMARK    5  A    between atoms: C4_11  and  C5_13 
REMARK    6  A    between atoms: C5_13  and  N4_14 
REMARK       I    between atoms: N4_14  and  C6_15 
REMARK    7  A    between atoms: C6_15  and  C7_17 
REMARK    8  A    between atoms: C7_17  and  C8_18 
ROOT
HETATM    1  N3  UNL     1      28.854  64.640  10.440  1.00  0.00    -0.262 N 
ATOM      2  H3  UNL     1      28.213  64.581   9.649  1.00  0.00     0.190 HD
HETATM    3  C4  UNL     1      28.457  64.160  11.694  1.00  0.00     0.288 C 
HETATM    4  O1  UNL     1      29.219  64.241  12.680  1.00  0.00    -0.264 OA
ENDROOT
BRANCH   1   5
HETATM    5  N2  UNL     1      30.109  65.195  10.266  1.00  0.00    -0.274 N 
ATOM      6  H2  UNL     1      30.769  64.973  11.012  1.00  0.00     0.189 HD
BRANCH   5   7
HETATM    7  C3  UNL     1      30.637  65.996   9.266  1.00  0.00     0.186 C 
HETATM    8  S1  UNL     1      32.335  66.079   9.210  1.00  0.00    -0.040 SA
BRANCH   7   9
HETATM    9  N1  UNL     1      29.966  66.732   8.307  1.00  0.00    -0.366 N 
ATOM     10  H1  UNL     1      29.195  67.301   8.657  1.00  0.00     0.161 HD
BRANCH   9  11
HETATM   11  C2  UNL     1      30.192  66.814   6.904  1.00  0.00     0.117 C 
HETATM   12  C1  UNL     1      28.922  66.512   6.109  1.00  0.00     0.026 C 
ENDBRANCH   9  11
ENDBRANCH   7   9
ENDBRANCH   5   7
ENDBRANCH   1   5
BRANCH   3  13
HETATM   13  C5  UNL     1      27.132  63.550  11.923  1.00  0.00     0.262 C 
BRANCH  13  14
HETATM   14  N4  UNL     1      26.537  62.947  10.833  1.00  0.00    -0.377 NA
HETATM   15  C6  UNL     1      25.964  62.342   9.755  1.00  0.00     0.299 C 
HETATM   16  O2  UNL     1      26.433  61.381   9.118  1.00  0.00    -0.257 OA
BRANCH  15  17
HETATM   17  C7  UNL     1      24.641  62.943   9.330  1.00  0.00     0.218 C 
BRANCH  17  18
HETATM   18  C8  UNL     1      24.748  64.203   8.604  1.00  0.00     0.240 C 
HETATM   19  N5  UNL     1      23.663  65.165   8.726  1.00  0.00    -0.062 NA
HETATM   20  O3  UNL     1      25.668  64.561   7.877  1.00  0.00    -0.276 OA
ENDBRANCH  17  18
ENDBRANCH  15  17
ENDBRANCH  13  14
ENDBRANCH   3  13
TORSDOF 8
ENDMDL
