MODEL 1
REMARK VINA RESULT: -7.346208318      0.000      0.000
REMARK  6 active torsions:
REMARK  status: ('A' for Active; 'I' for Inactive)
REMARK    1  A    between atoms: C2_2  and  N1_3 
REMARK    2  A    between atoms: C2_2  and  C3_7 
REMARK    3  A    between atoms: C2_2  and  C7_16 
REMARK    4  A    between atoms: C3_7  and  C4_8 
REMARK       I    between atoms: C4_8  and  N2_10 
REMARK    5  A    between atoms: C5_12  and  C6_13 
REMARK       I    between atoms: C7_16  and  N4_18 
REMARK    6  A    between atoms: N4_18  and  C8_20 
ROOT
HETATM    1  C1  UNL     1      28.294  66.962  11.873  1.00  0.00     0.057 C 
HETATM    2  C2  UNL     1      28.336  65.456  11.765  1.00  0.00     0.207 C 
ENDROOT
BRANCH   2   3
HETATM    3  N1  UNL     1      26.991  64.994  11.567  1.00  0.00    -0.061 N 
ATOM      4  H13 UNL     1      26.949  64.075  11.126  1.00  0.00     0.275 HD
ATOM      5  H12 UNL     1      26.525  64.746  12.440  1.00  0.00     0.275 HD
ATOM      6  H11 UNL     1      26.491  65.709  11.040  1.00  0.00     0.275 HD
ENDBRANCH   2   3
BRANCH   2   7
HETATM    7  C3  UNL     1      28.927  64.840  13.036  1.00  0.00     0.151 C 
BRANCH   7   8
HETATM    8  C4  UNL     1      28.053  63.785  13.575  1.00  0.00     0.224 C 
HETATM    9  O1  UNL     1      27.899  62.725  12.936  1.00  0.00    -0.273 OA
HETATM   10  N2  UNL     1      27.391  63.961  14.800  1.00  0.00    -0.332 N 
HETATM   11  C5  UNL     1      27.415  65.145  15.356  1.00  0.00     0.161 C 
ATOM     12  H2  UNL     1      26.904  63.184  15.246  1.00  0.00     0.168 HD
BRANCH  11  13
HETATM   13  C6  UNL     1      26.748  65.391  16.626  1.00  0.00     0.270 C 
HETATM   14  N3  UNL     1      25.497  64.805  16.877  1.00  0.00    -0.057 NA
HETATM   15  O2  UNL     1      27.330  66.133  17.466  1.00  0.00    -0.270 OA
ENDBRANCH  11  13
ENDBRANCH   7   8
ENDBRANCH   2   7
BRANCH   2  16
HETATM   16  C7  UNL     1      29.250  65.098  10.667  1.00  0.00     0.255 C 
HETATM   17  O3  UNL     1      29.007  64.036  10.035  1.00  0.00    -0.271 OA
HETATM   18  N4  UNL     1      30.375  65.880  10.291  1.00  0.00    -0.331 N 
ATOM     19  H4  UNL     1      30.558  66.738  10.813  1.00  0.00     0.164 HD
BRANCH  18  20
HETATM   20  C8  UNL     1      31.267  65.538   9.225  1.00  0.00     0.286 C 
HETATM   21  C9  UNL     1      32.306  66.620   8.974  1.00  0.00     0.054 C 
HETATM   22  C10 UNL     1      32.749  66.457   7.516  1.00  0.00     0.005 C 
HETATM   23  C11 UNL     1      31.618  67.046   6.680  1.00  0.00     0.028 C 
HETATM   24  C12 UNL     1      30.326  66.710   7.374  1.00  0.00     0.235 C 
HETATM   25  N5  UNL     1      30.470  65.421   8.009  1.00  0.00    -0.054 N 
ATOM     26  H52 UNL     1      30.852  64.723   7.371  1.00  0.00     0.279 HD
ATOM     27  H51 UNL     1      29.566  64.983   8.189  1.00  0.00     0.279 HD
ENDBRANCH  18  20
ENDBRANCH   2  16
TORSDOF 6
ENDMDL
MODEL 2
REMARK VINA RESULT: -7.162033571      2.534      4.089
REMARK  6 active torsions:
REMARK  status: ('A' for Active; 'I' for Inactive)
REMARK    1  A    between atoms: C2_2  and  N1_3 
REMARK    2  A    between atoms: C2_2  and  C3_7 
REMARK    3  A    between atoms: C2_2  and  C7_16 
REMARK    4  A    between atoms: C3_7  and  C4_8 
REMARK       I    between atoms: C4_8  and  N2_10 
REMARK    5  A    between atoms: C5_12  and  C6_13 
REMARK       I    between atoms: C7_16  and  N4_18 
REMARK    6  A    between atoms: N4_18  and  C8_20 
ROOT
HETATM    1  C1  UNL     1      29.106  65.454  13.084  1.00  0.00     0.057 C 
HETATM    2  C2  UNL     1      28.305  65.369  11.806  1.00  0.00     0.207 C 
ENDROOT
BRANCH   2   3
HETATM    3  N1  UNL     1      27.632  66.625  11.627  1.00  0.00    -0.061 N 
ATOM      4  H13 UNL     1      26.617  66.529  11.599  1.00  0.00     0.275 HD
ATOM      5  H12 UNL     1      27.688  67.224  12.451  1.00  0.00     0.275 HD
ATOM      6  H11 UNL     1      28.012  67.064  10.790  1.00  0.00     0.275 HD
ENDBRANCH   2   3
BRANCH   2   7
HETATM    7  C3  UNL     1      27.288  64.227  11.881  1.00  0.00     0.151 C 
BRANCH   7   8
HETATM    8  C4  UNL     1      25.917  64.742  12.029  1.00  0.00     0.224 C 
HETATM    9  O1  UNL     1      25.585  65.318  13.085  1.00  0.00    -0.273 OA
HETATM   10  N2  UNL     1      24.981  64.592  10.994  1.00  0.00    -0.332 N 
HETATM   11  C5  UNL     1      25.291  63.825   9.981  1.00  0.00     0.161 C 
ATOM     12  H2  UNL     1      24.081  65.071  11.031  1.00  0.00     0.168 HD
BRANCH  11  13
HETATM   13  C6  UNL     1      24.363  63.630   8.877  1.00  0.00     0.270 C 
HETATM   14  N3  UNL     1      24.324  62.391   8.216  1.00  0.00    -0.057 NA
HETATM   15  O2  UNL     1      23.619  64.596   8.551  1.00  0.00    -0.270 OA
ENDBRANCH  11  13
ENDBRANCH   7   8
ENDBRANCH   2   7
BRANCH   2  16
HETATM   16  C7  UNL     1      29.227  65.032  10.706  1.00  0.00     0.255 C 
HETATM   17  O3  UNL     1      28.995  63.977  10.060  1.00  0.00    -0.271 OA
HETATM   18  N4  UNL     1      30.346  65.828  10.345  1.00  0.00    -0.331 N 
ATOM     19  H4  UNL     1      30.520  66.681  10.879  1.00  0.00     0.164 HD
BRANCH  18  20
HETATM   20  C8  UNL     1      31.245  65.507   9.278  1.00  0.00     0.286 C 
HETATM   21  C9  UNL     1      32.275  66.601   9.045  1.00  0.00     0.054 C 
HETATM   22  C10 UNL     1      32.726  66.460   7.586  1.00  0.00     0.005 C 
HETATM   23  C11 UNL     1      31.593  67.050   6.754  1.00  0.00     0.028 C 
HETATM   24  C12 UNL     1      30.301  66.694   7.438  1.00  0.00     0.235 C 
HETATM   25  N5  UNL     1      30.453  65.398   8.058  1.00  0.00    -0.054 N 
ATOM     26  H52 UNL     1      30.844  64.712   7.413  1.00  0.00     0.279 HD
ATOM     27  H51 UNL     1      29.553  64.951   8.229  1.00  0.00     0.279 HD
ENDBRANCH  18  20
ENDBRANCH   2  16
TORSDOF 6
ENDMDL
MODEL 3
REMARK VINA RESULT: -7.117886417      2.751      4.402
REMARK  6 active torsions:
REMARK  status: ('A' for Active; 'I' for Inactive)
REMARK    1  A    between atoms: C2_2  and  N1_3 
REMARK    2  A    between atoms: C2_2  and  C3_7 
REMARK    3  A    between atoms: C2_2  and  C7_16 
REMARK    4  A    between atoms: C3_7  and  C4_8 
REMARK       I    between atoms: C4_8  and  N2_10 
REMARK    5  A    between atoms: C5_12  and  C6_13 
REMARK       I    between atoms: C7_16  and  N4_18 
REMARK    6  A    between atoms: N4_18  and  C8_20 
ROOT
HETATM    1  C1  UNL     1      29.157  64.515  13.149  1.00  0.00     0.057 C 
HETATM    2  C2  UNL     1      28.965  65.652  12.174  1.00  0.00     0.207 C 
ENDROOT
BRANCH   2   3
HETATM    3  N1  UNL     1      29.538  66.832  12.759  1.00  0.00    -0.061 N 
ATOM      4  H13 UNL     1      29.857  66.684  13.716  1.00  0.00     0.275 HD
ATOM      5  H12 UNL     1      30.440  67.078  12.352  1.00  0.00     0.275 HD
ATOM      6  H11 UNL     1      28.850  67.582  12.682  1.00  0.00     0.275 HD
ENDBRANCH   2   3
BRANCH   2   7
HETATM    7  C3  UNL     1      27.477  65.871  11.887  1.00  0.00     0.151 C 
BRANCH   7   8
HETATM    8  C4  UNL     1      27.281  66.846  10.802  1.00  0.00     0.224 C 
HETATM    9  O1  UNL     1      27.806  67.975  10.883  1.00  0.00    -0.273 OA
HETATM   10  N2  UNL     1      26.508  66.519   9.677  1.00  0.00    -0.332 N 
HETATM   11  C5  UNL     1      25.815  65.409   9.699  1.00  0.00     0.161 C 
ATOM     12  H2  UNL     1      26.487  67.131   8.862  1.00  0.00     0.168 HD
BRANCH  11  13
HETATM   13  C6  UNL     1      24.994  65.014   8.564  1.00  0.00     0.270 C 
HETATM   14  N3  UNL     1      23.596  65.096   8.658  1.00  0.00    -0.057 NA
HETATM   15  O2  UNL     1      25.581  64.606   7.523  1.00  0.00    -0.270 OA
ENDBRANCH  11  13
ENDBRANCH   7   8
ENDBRANCH   2   7
BRANCH   2  16
HETATM   16  C7  UNL     1      29.584  65.270  10.892  1.00  0.00     0.255 C 
HETATM   17  O3  UNL     1      29.092  64.283  10.285  1.00  0.00    -0.271 OA
HETATM   18  N4  UNL     1      30.691  65.950  10.319  1.00  0.00    -0.331 N 
ATOM     19  H4  UNL     1      31.077  66.748  10.824  1.00  0.00     0.164 HD
BRANCH  18  20
HETATM   20  C8  UNL     1      31.296  65.584   9.074  1.00  0.00     0.286 C 
HETATM   21  C9  UNL     1      32.292  66.627   8.590  1.00  0.00     0.054 C 
HETATM   22  C10 UNL     1      32.378  66.461   7.068  1.00  0.00     0.005 C 
HETATM   23  C11 UNL     1      31.109  67.102   6.518  1.00  0.00     0.028 C 
HETATM   24  C12 UNL     1      30.001  66.810   7.493  1.00  0.00     0.235 C 
HETATM   25  N5  UNL     1      30.235  65.510   8.077  1.00  0.00    -0.054 N 
ATOM     26  H52 UNL     1      30.431  64.804   7.367  1.00  0.00     0.279 HD
ATOM     27  H51 UNL     1      29.381  65.106   8.461  1.00  0.00     0.279 HD
ENDBRANCH  18  20
ENDBRANCH   2  16
TORSDOF 6
ENDMDL
MODEL 4
REMARK VINA RESULT: -6.818659586      2.375      3.943
REMARK  6 active torsions:
REMARK  status: ('A' for Active; 'I' for Inactive)
REMARK    1  A    between atoms: C2_2  and  N1_3 
REMARK    2  A    between atoms: C2_2  and  C3_7 
REMARK    3  A    between atoms: C2_2  and  C7_16 
REMARK    4  A    between atoms: C3_7  and  C4_8 
REMARK       I    between atoms: C4_8  and  N2_10 
REMARK    5  A    between atoms: C5_12  and  C6_13 
REMARK       I    between atoms: C7_16  and  N4_18 
REMARK    6  A    between atoms: N4_18  and  C8_20 
ROOT
HETATM    1  C1  UNL     1      28.504  64.509  12.762  1.00  0.00     0.057 C 
HETATM    2  C2  UNL     1      28.767  65.730  11.912  1.00  0.00     0.207 C 
ENDROOT
BRANCH   2   3
HETATM    3  N1  UNL     1      29.430  66.702  12.736  1.00  0.00    -0.061 N 
ATOM      4  H13 UNL     1      29.261  66.559  13.731  1.00  0.00     0.275 HD
ATOM      5  H12 UNL     1      30.443  66.581  12.752  1.00  0.00     0.275 HD
ATOM      6  H11 UNL     1      29.147  67.627  12.415  1.00  0.00     0.275 HD
ENDBRANCH   2   3
BRANCH   2   7
HETATM    7  C3  UNL     1      27.455  66.303  11.370  1.00  0.00     0.151 C 
BRANCH   7   8
HETATM    8  C4  UNL     1      26.290  65.659  11.998  1.00  0.00     0.224 C 
HETATM    9  O1  UNL     1      25.994  65.935  13.178  1.00  0.00    -0.273 OA
HETATM   10  N2  UNL     1      25.510  64.738  11.283  1.00  0.00    -0.332 N 
HETATM   11  C5  UNL     1      25.944  64.323  10.121  1.00  0.00     0.161 C 
ATOM     12  H2  UNL     1      24.624  64.400  11.660  1.00  0.00     0.168 HD
BRANCH  11  13
HETATM   13  C6  UNL     1      25.181  63.368   9.330  1.00  0.00     0.270 C 
HETATM   14  N3  UNL     1      23.961  63.762   8.758  1.00  0.00    -0.057 NA
HETATM   15  O2  UNL     1      25.654  62.206   9.189  1.00  0.00    -0.270 OA
ENDBRANCH  11  13
ENDBRANCH   7   8
ENDBRANCH   2   7
BRANCH   2  16
HETATM   16  C7  UNL     1      29.555  65.315  10.739  1.00  0.00     0.255 C 
HETATM   17  O3  UNL     1      29.208  64.255  10.155  1.00  0.00    -0.271 OA
HETATM   18  N4  UNL     1      30.670  66.041  10.242  1.00  0.00    -0.331 N 
ATOM     19  H4  UNL     1      30.939  66.897  10.727  1.00  0.00     0.164 HD
BRANCH  18  20
HETATM   20  C8  UNL     1      31.441  65.642   9.103  1.00  0.00     0.286 C 
HETATM   21  C9  UNL     1      32.448  66.704   8.690  1.00  0.00     0.054 C 
HETATM   22  C10 UNL     1      32.730  66.470   7.202  1.00  0.00     0.005 C 
HETATM   23  C11 UNL     1      31.516  67.026   6.467  1.00  0.00     0.028 C 
HETATM   24  C12 UNL     1      30.307  66.732   7.311  1.00  0.00     0.235 C 
HETATM   25  N5  UNL     1      30.516  65.473   7.988  1.00  0.00    -0.054 N 
ATOM     26  H52 UNL     1      30.826  64.744   7.346  1.00  0.00     0.279 HD
ATOM     27  H51 UNL     1      29.637  65.051   8.285  1.00  0.00     0.279 HD
ENDBRANCH  18  20
ENDBRANCH   2  16
TORSDOF 6
ENDMDL
MODEL 5
REMARK VINA RESULT: -6.737852801      3.070      4.212
REMARK  6 active torsions:
REMARK  status: ('A' for Active; 'I' for Inactive)
REMARK    1  A    between atoms: C2_2  and  N1_3 
REMARK    2  A    between atoms: C2_2  and  C3_7 
REMARK    3  A    between atoms: C2_2  and  C7_16 
REMARK    4  A    between atoms: C3_7  and  C4_8 
REMARK       I    between atoms: C4_8  and  N2_10 
REMARK    5  A    between atoms: C5_12  and  C6_13 
REMARK       I    between atoms: C7_16  and  N4_18 
REMARK    6  A    between atoms: N4_18  and  C8_20 
ROOT
HETATM    1  C1  UNL     1      27.541  67.755  11.655  1.00  0.00     0.057 C 
HETATM    2  C2  UNL     1      27.289  66.484  10.877  1.00  0.00     0.207 C 
ENDROOT
BRANCH   2   3
HETATM    3  N1  UNL     1      26.423  66.808   9.778  1.00  0.00    -0.061 N 
ATOM      4  H13 UNL     1      25.587  67.315  10.069  1.00  0.00     0.275 HD
ATOM      5  H12 UNL     1      26.811  67.527   9.167  1.00  0.00     0.275 HD
ATOM      6  H11 UNL     1      26.210  65.941   9.285  1.00  0.00     0.275 HD
ENDBRANCH   2   3
BRANCH   2   7
HETATM    7  C3  UNL     1      26.639  65.424  11.770  1.00  0.00     0.151 C 
BRANCH   7   8
HETATM    8  C4  UNL     1      25.241  65.181  11.380  1.00  0.00     0.224 C 
HETATM    9  O1  UNL     1      24.344  65.944  11.791  1.00  0.00    -0.273 OA
HETATM   10  N2  UNL     1      24.908  64.100  10.549  1.00  0.00    -0.332 N 
HETATM   11  C5  UNL     1      25.830  63.210  10.286  1.00  0.00     0.161 C 
ATOM     12  H2  UNL     1      23.970  64.011  10.159  1.00  0.00     0.168 HD
BRANCH  11  13
HETATM   13  C6  UNL     1      25.547  62.066   9.432  1.00  0.00     0.270 C 
HETATM   14  N3  UNL     1      24.352  62.030   8.695  1.00  0.00    -0.057 NA
HETATM   15  O2  UNL     1      26.400  61.137   9.386  1.00  0.00    -0.270 OA
ENDBRANCH  11  13
ENDBRANCH   7   8
ENDBRANCH   2   7
BRANCH   2  16
HETATM   16  C7  UNL     1      28.591  65.934  10.460  1.00  0.00     0.255 C 
HETATM   17  O3  UNL     1      29.180  65.167  11.267  1.00  0.00    -0.271 OA
HETATM   18  N4  UNL     1      29.204  66.222   9.212  1.00  0.00    -0.331 N 
ATOM     19  H4  UNL     1      28.713  66.845   8.569  1.00  0.00     0.164 HD
BRANCH  18  20
HETATM   20  C8  UNL     1      30.468  65.691   8.800  1.00  0.00     0.286 C 
HETATM   21  C9  UNL     1      31.623  66.614   9.155  1.00  0.00     0.054 C 
HETATM   22  C10 UNL     1      32.752  66.285   8.171  1.00  0.00     0.005 C 
HETATM   23  C11 UNL     1      32.346  66.941   6.856  1.00  0.00     0.028 C 
HETATM   24  C12 UNL     1      30.852  66.821   6.736  1.00  0.00     0.235 C 
HETATM   25  N5  UNL     1      30.442  65.578   7.347  1.00  0.00    -0.054 N 
ATOM     26  H52 UNL     1      31.001  64.791   7.018  1.00  0.00     0.279 HD
ATOM     27  H51 UNL     1      29.532  65.269   7.006  1.00  0.00     0.279 HD
ENDBRANCH  18  20
ENDBRANCH   2  16
TORSDOF 6
ENDMDL
