MODEL 1
REMARK VINA RESULT: -6.675278330      0.000      0.000
REMARK  8 active torsions:
REMARK  status: ('A' for Active; 'I' for Inactive)
REMARK    1  A    between atoms: C2_2  and  C5_5 
REMARK       I    between atoms: C5_5  and  N1_7 
REMARK    2  A    between atoms: C6_9  and  C7_10 
REMARK    3  A    between atoms: C6_9  and  N4_22 
REMARK    4  A    between atoms: C7_10  and  C8_11 
REMARK    5  A    between atoms: C8_11  and  C9_12 
REMARK    6  A    between atoms: C9_12  and  N2_13 
REMARK       I    between atoms: N2_13  and  C10_15 
REMARK    7  A    between atoms: C10_15  and  C11_17 
REMARK    8  A    between atoms: C11_17  and  N3_18 
ROOT
HETATM    1  C5  UNL     1      26.209  64.426  10.607  1.00  0.00     0.230 C 
HETATM    2  O1  UNL     1      27.045  64.371  11.560  1.00  0.00    -0.272 OA
HETATM    3  N1  UNL     1      26.460  64.929   9.328  1.00  0.00    -0.316 N 
ATOM      4  H1  UNL     1      25.968  64.460   8.568  1.00  0.00     0.170 HD
HETATM    5  C6  UNL     1      27.229  65.905   8.971  1.00  0.00     0.085 C 
ENDROOT
BRANCH   5   6
HETATM    6  C7  UNL     1      27.270  66.178   7.522  1.00  0.00     0.078 C 
BRANCH   6   7
HETATM    7  C8  UNL     1      28.468  66.798   6.935  1.00  0.00     0.027 C 
BRANCH   7   8
HETATM    8  C9  UNL     1      29.557  65.866   6.508  1.00  0.00     0.123 C 
BRANCH   8   9
HETATM    9  N2  UNL     1      30.744  65.921   7.334  1.00  0.00    -0.360 N 
HETATM   10  C10 UNL     1      31.807  66.804   7.140  1.00  0.00     0.243 C 
HETATM   11  O2  UNL     1      31.800  67.636   6.210  1.00  0.00    -0.272 OA
ATOM     12  H2  UNL     1      30.808  65.267   8.114  1.00  0.00     0.162 HD
BRANCH  10  13
HETATM   13  C11 UNL     1      32.994  66.762   8.067  1.00  0.00     0.331 C 
BRANCH  13  14
HETATM   14  N3  UNL     1      32.693  65.978   9.248  1.00  0.00    -0.071 N 
ATOM     15  H33 UNL     1      33.002  66.445  10.100  1.00  0.00     0.274 HD
ATOM     16  H32 UNL     1      31.692  65.954   9.441  1.00  0.00     0.274 HD
ATOM     17  H31 UNL     1      33.085  65.040   9.167  1.00  0.00     0.274 HD
ENDBRANCH  13  14
ENDBRANCH  10  13
ENDBRANCH   8   9
ENDBRANCH   7   8
ENDBRANCH   6   7
ENDBRANCH   5   6
BRANCH   5  18
HETATM   18  N4  UNL     1      27.935  66.563   9.979  1.00  0.00    -0.323 N 
HETATM   19  C12 UNL     1      29.048  66.396  10.510  1.00  0.00     0.202 C 
HETATM   20  N5  UNL     1      29.418  67.331  11.555  1.00  0.00    -0.066 NA
HETATM   21  N6  UNL     1      30.013  65.399  10.243  1.00  0.00    -0.066 NA
ATOM     22  H4  UNL     1      27.426  67.356  10.367  1.00  0.00     0.169 HD
ENDBRANCH   5  18
BRANCH   1  23
HETATM   23  C2  UNL     1      24.804  63.910  10.823  1.00  0.00     0.030 C 
HETATM   24  C1  UNL     1      23.859  64.999  10.420  1.00  0.00     0.025 C 
HETATM   25  C3  UNL     1      24.655  62.712   9.932  1.00  0.00     0.025 C 
HETATM   26  C4  UNL     1      24.615  63.485  12.260  1.00  0.00     0.025 C 
ENDBRANCH   1  23
TORSDOF 8
ENDMDL
MODEL 2
REMARK VINA RESULT: -6.381738165      2.534      4.319
REMARK  8 active torsions:
REMARK  status: ('A' for Active; 'I' for Inactive)
REMARK    1  A    between atoms: C2_2  and  C5_5 
REMARK       I    between atoms: C5_5  and  N1_7 
REMARK    2  A    between atoms: C6_9  and  C7_10 
REMARK    3  A    between atoms: C6_9  and  N4_22 
REMARK    4  A    between atoms: C7_10  and  C8_11 
REMARK    5  A    between atoms: C8_11  and  C9_12 
REMARK    6  A    between atoms: C9_12  and  N2_13 
REMARK       I    between atoms: N2_13  and  C10_15 
REMARK    7  A    between atoms: C10_15  and  C11_17 
REMARK    8  A    between atoms: C11_17  and  N3_18 
ROOT
HETATM    1  C5  UNL     1      23.776  64.860  12.229  1.00  0.00     0.230 C 
HETATM    2  O1  UNL     1      23.162  65.180  11.165  1.00  0.00    -0.272 OA
HETATM    3  N1  UNL     1      25.100  64.422  12.307  1.00  0.00    -0.316 N 
ATOM      4  H1  UNL     1      25.607  64.708  13.144  1.00  0.00     0.170 HD
HETATM    5  C6  UNL     1      25.774  63.705  11.469  1.00  0.00     0.085 C 
ENDROOT
BRANCH   5   6
HETATM    6  C7  UNL     1      27.168  63.420  11.860  1.00  0.00     0.078 C 
BRANCH   6   7
HETATM    7  C8  UNL     1      28.270  63.893  11.007  1.00  0.00     0.027 C 
BRANCH   7   8
HETATM    8  C9  UNL     1      28.670  65.324  11.170  1.00  0.00     0.123 C 
BRANCH   8   9
HETATM    9  N2  UNL     1      29.996  65.630  10.680  1.00  0.00    -0.360 N 
HETATM   10  C10 UNL     1      30.305  65.923   9.350  1.00  0.00     0.243 C 
HETATM   11  O2  UNL     1      29.423  65.944   8.468  1.00  0.00    -0.272 OA
ATOM     12  H2  UNL     1      30.761  65.632  11.355  1.00  0.00     0.162 HD
BRANCH  10  13
HETATM   13  C11 UNL     1      31.729  66.222   8.961  1.00  0.00     0.331 C 
BRANCH  13  14
HETATM   14  N3  UNL     1      32.649  65.376   9.695  1.00  0.00    -0.071 N 
ATOM     15  H33 UNL     1      32.241  64.465   9.903  1.00  0.00     0.274 HD
ATOM     16  H32 UNL     1      33.426  65.066   9.112  1.00  0.00     0.274 HD
ATOM     17  H31 UNL     1      32.975  65.846  10.540  1.00  0.00     0.274 HD
ENDBRANCH  13  14
ENDBRANCH  10  13
ENDBRANCH   8   9
ENDBRANCH   7   8
ENDBRANCH   6   7
ENDBRANCH   5   6
BRANCH   5  18
HETATM   18  N4  UNL     1      25.122  63.306  10.301  1.00  0.00    -0.323 N 
HETATM   19  C12 UNL     1      25.291  62.382   9.485  1.00  0.00     0.202 C 
HETATM   20  N5  UNL     1      24.362  62.317   8.373  1.00  0.00    -0.066 NA
HETATM   21  N6  UNL     1      26.286  61.379   9.480  1.00  0.00    -0.066 NA
ATOM     22  H4  UNL     1      24.331  63.904  10.065  1.00  0.00     0.169 HD
ENDBRANCH   5  18
BRANCH   1  23
HETATM   23  C2  UNL     1      23.055  64.948  13.556  1.00  0.00     0.030 C 
HETATM   24  C1  UNL     1      22.723  63.551  13.979  1.00  0.00     0.025 C 
HETATM   25  C3  UNL     1      24.017  65.586  14.514  1.00  0.00     0.025 C 
HETATM   26  C4  UNL     1      21.829  65.820  13.430  1.00  0.00     0.025 C 
ENDBRANCH   1  23
TORSDOF 8
ENDMDL
MODEL 3
REMARK VINA RESULT: -6.291001870      2.390      3.224
REMARK  8 active torsions:
REMARK  status: ('A' for Active; 'I' for Inactive)
REMARK    1  A    between atoms: C2_2  and  C5_5 
REMARK       I    between atoms: C5_5  and  N1_7 
REMARK    2  A    between atoms: C6_9  and  C7_10 
REMARK    3  A    between atoms: C6_9  and  N4_22 
REMARK    4  A    between atoms: C7_10  and  C8_11 
REMARK    5  A    between atoms: C8_11  and  C9_12 
REMARK    6  A    between atoms: C9_12  and  N2_13 
REMARK       I    between atoms: N2_13  and  C10_15 
REMARK    7  A    between atoms: C10_15  and  C11_17 
REMARK    8  A    between atoms: C11_17  and  N3_18 
ROOT
HETATM    1  C5  UNL     1      26.218  63.528   9.847  1.00  0.00     0.230 C 
HETATM    2  O1  UNL     1      26.682  62.347   9.884  1.00  0.00    -0.272 OA
HETATM    3  N1  UNL     1      26.878  64.679  10.284  1.00  0.00    -0.316 N 
ATOM      4  H1  UNL     1      26.682  65.526   9.750  1.00  0.00     0.170 HD
HETATM    5  C6  UNL     1      27.703  64.823  11.269  1.00  0.00     0.085 C 
ENDROOT
BRANCH   5   6
HETATM    6  C7  UNL     1      28.227  66.189  11.458  1.00  0.00     0.078 C 
BRANCH   6   7
HETATM    7  C8  UNL     1      29.496  66.573  10.820  1.00  0.00     0.027 C 
BRANCH   7   8
HETATM    8  C9  UNL     1      30.066  65.601   9.837  1.00  0.00     0.123 C 
BRANCH   8   9
HETATM    9  N2  UNL     1      30.902  66.205   8.822  1.00  0.00    -0.360 N 
HETATM   10  C10 UNL     1      30.592  66.251   7.461  1.00  0.00     0.243 C 
HETATM   11  O2  UNL     1      29.533  65.760   7.018  1.00  0.00    -0.272 OA
ATOM     12  H2  UNL     1      31.781  66.627   9.122  1.00  0.00     0.162 HD
BRANCH  10  13
HETATM   13  C11 UNL     1      31.547  66.905   6.497  1.00  0.00     0.331 C 
BRANCH  13  14
HETATM   14  N3  UNL     1      32.917  66.556   6.818  1.00  0.00    -0.071 N 
ATOM     15  H33 UNL     1      33.352  67.250   7.425  1.00  0.00     0.274 HD
ATOM     16  H32 UNL     1      32.966  65.753   7.443  1.00  0.00     0.274 HD
ATOM     17  H31 UNL     1      33.459  66.406   5.967  1.00  0.00     0.274 HD
ENDBRANCH  13  14
ENDBRANCH  10  13
ENDBRANCH   8   9
ENDBRANCH   7   8
ENDBRANCH   6   7
ENDBRANCH   5   6
BRANCH   5  18
HETATM   18  N4  UNL     1      28.012  63.685  12.015  1.00  0.00    -0.323 N 
HETATM   19  C12 UNL     1      27.822  63.343  13.196  1.00  0.00     0.202 C 
HETATM   20  N5  UNL     1      28.314  62.035  13.583  1.00  0.00    -0.066 NA
HETATM   21  N6  UNL     1      27.196  64.068  14.235  1.00  0.00    -0.066 NA
ATOM     22  H4  UNL     1      28.502  62.976  11.470  1.00  0.00     0.169 HD
ENDBRANCH   5  18
BRANCH   1  23
HETATM   23  C2  UNL     1      24.834  63.763   9.285  1.00  0.00     0.030 C 
HETATM   24  C1  UNL     1      24.259  62.426   8.935  1.00  0.00     0.025 C 
HETATM   25  C3  UNL     1      24.042  64.418  10.378  1.00  0.00     0.025 C 
HETATM   26  C4  UNL     1      24.900  64.692   8.096  1.00  0.00     0.025 C 
ENDBRANCH   1  23
TORSDOF 8
ENDMDL
MODEL 4
REMARK VINA RESULT: -6.250056320      1.694      3.024
REMARK  8 active torsions:
REMARK  status: ('A' for Active; 'I' for Inactive)
REMARK    1  A    between atoms: C2_2  and  C5_5 
REMARK       I    between atoms: C5_5  and  N1_7 
REMARK    2  A    between atoms: C6_9  and  C7_10 
REMARK    3  A    between atoms: C6_9  and  N4_22 
REMARK    4  A    between atoms: C7_10  and  C8_11 
REMARK    5  A    between atoms: C8_11  and  C9_12 
REMARK    6  A    between atoms: C9_12  and  N2_13 
REMARK       I    between atoms: N2_13  and  C10_15 
REMARK    7  A    between atoms: C10_15  and  C11_17 
REMARK    8  A    between atoms: C11_17  and  N3_18 
ROOT
HETATM    1  C5  UNL     1      27.006  65.263  11.896  1.00  0.00     0.230 C 
HETATM    2  O1  UNL     1      25.784  65.506  12.142  1.00  0.00    -0.272 OA
HETATM    3  N1  UNL     1      27.726  65.735  10.797  1.00  0.00    -0.316 N 
ATOM      4  H1  UNL     1      28.711  65.937  10.972  1.00  0.00     0.170 HD
HETATM    5  C6  UNL     1      27.322  65.954   9.588  1.00  0.00     0.085 C 
ENDROOT
BRANCH   5   6
HETATM    6  C7  UNL     1      28.352  66.460   8.661  1.00  0.00     0.078 C 
BRANCH   6   7
HETATM    7  C8  UNL     1      28.200  66.231   7.215  1.00  0.00     0.027 C 
BRANCH   7   8
HETATM    8  C9  UNL     1      29.463  66.060   6.433  1.00  0.00     0.123 C 
BRANCH   8   9
HETATM    9  N2  UNL     1      30.663  66.028   7.242  1.00  0.00    -0.360 N 
HETATM   10  C10 UNL     1      31.776  66.848   7.048  1.00  0.00     0.243 C 
HETATM   11  O2  UNL     1      31.806  67.696   6.133  1.00  0.00    -0.272 OA
ATOM     12  H2  UNL     1      30.698  65.357   8.010  1.00  0.00     0.162 HD
BRANCH  10  13
HETATM   13  C11 UNL     1      32.970  66.717   7.956  1.00  0.00     0.331 C 
BRANCH  13  14
HETATM   14  N3  UNL     1      32.607  66.041   9.185  1.00  0.00    -0.071 N 
ATOM     15  H33 UNL     1      33.326  65.381   9.481  1.00  0.00     0.274 HD
ATOM     16  H32 UNL     1      32.637  66.670   9.987  1.00  0.00     0.274 HD
ATOM     17  H31 UNL     1      31.696  65.590   9.093  1.00  0.00     0.274 HD
ENDBRANCH  13  14
ENDBRANCH  10  13
ENDBRANCH   8   9
ENDBRANCH   7   8
ENDBRANCH   6   7
ENDBRANCH   5   6
BRANCH   5  18
HETATM   18  N4  UNL     1      25.977  65.707   9.310  1.00  0.00    -0.323 N 
HETATM   19  C12 UNL     1      25.307  64.679   9.106  1.00  0.00     0.202 C 
HETATM   20  N5  UNL     1      23.892  64.864   8.848  1.00  0.00    -0.066 NA
HETATM   21  N6  UNL     1      25.741  63.335   9.074  1.00  0.00    -0.066 NA
ATOM     22  H4  UNL     1      25.419  66.560   9.266  1.00  0.00     0.169 HD
ENDBRANCH   5  18
BRANCH   1  23
HETATM   23  C2  UNL     1      27.796  64.395  12.850  1.00  0.00     0.030 C 
HETATM   24  C1  UNL     1      26.971  64.222  14.087  1.00  0.00     0.025 C 
HETATM   25  C3  UNL     1      28.001  63.083  12.152  1.00  0.00     0.025 C 
HETATM   26  C4  UNL     1      29.141  65.019  13.136  1.00  0.00     0.025 C 
ENDBRANCH   1  23
TORSDOF 8
ENDMDL
MODEL 5
REMARK VINA RESULT: -6.235529455      2.632      4.451
REMARK  8 active torsions:
REMARK  status: ('A' for Active; 'I' for Inactive)
REMARK    1  A    between atoms: C2_2  and  C5_5 
REMARK       I    between atoms: C5_5  and  N1_7 
REMARK    2  A    between atoms: C6_9  and  C7_10 
REMARK    3  A    between atoms: C6_9  and  N4_22 
REMARK    4  A    between atoms: C7_10  and  C8_11 
REMARK    5  A    between atoms: C8_11  and  C9_12 
REMARK    6  A    between atoms: C9_12  and  N2_13 
REMARK       I    between atoms: N2_13  and  C10_15 
REMARK    7  A    between atoms: C10_15  and  C11_17 
REMARK    8  A    between atoms: C11_17  and  N3_18 
ROOT
HETATM    1  C5  UNL     1      23.721  64.688  12.577  1.00  0.00     0.230 C 
HETATM    2  O1  UNL     1      23.407  64.737  11.348  1.00  0.00    -0.272 OA
HETATM    3  N1  UNL     1      25.006  64.487  13.084  1.00  0.00    -0.316 N 
ATOM      4  H1  UNL     1      25.216  64.977  13.953  1.00  0.00     0.170 HD
HETATM    5  C6  UNL     1      25.969  63.766  12.608  1.00  0.00     0.085 C 
ENDROOT
BRANCH   5   6
HETATM    6  C7  UNL     1      27.213  63.774  13.400  1.00  0.00     0.078 C 
BRANCH   6   7
HETATM    7  C8  UNL     1      28.512  63.817  12.708  1.00  0.00     0.027 C 
BRANCH   7   8
HETATM    8  C9  UNL     1      29.001  65.168  12.296  1.00  0.00     0.123 C 
BRANCH   8   9
HETATM    9  N2  UNL     1      29.986  65.145  11.237  1.00  0.00    -0.360 N 
HETATM   10  C10 UNL     1      29.999  66.014  10.144  1.00  0.00     0.243 C 
HETATM   11  O2  UNL     1      29.131  66.901  10.008  1.00  0.00    -0.272 OA
ATOM     12  H2  UNL     1      30.725  64.444  11.292  1.00  0.00     0.162 HD
BRANCH  10  13
HETATM   13  C11 UNL     1      31.078  65.889   9.100  1.00  0.00     0.331 C 
BRANCH  13  14
HETATM   14  N3  UNL     1      32.350  65.571   9.716  1.00  0.00    -0.071 N 
ATOM     15  H33 UNL     1      33.120  65.638   9.050  1.00  0.00     0.274 HD
ATOM     16  H32 UNL     1      32.648  66.297  10.367  1.00  0.00     0.274 HD
ATOM     17  H31 UNL     1      32.316  64.654  10.162  1.00  0.00     0.274 HD
ENDBRANCH  13  14
ENDBRANCH  10  13
ENDBRANCH   8   9
ENDBRANCH   7   8
ENDBRANCH   6   7
ENDBRANCH   5   6
BRANCH   5  18
HETATM   18  N4  UNL     1      25.729  63.092  11.410  1.00  0.00    -0.323 N 
HETATM   19  C12 UNL     1      26.008  63.315  10.218  1.00  0.00     0.202 C 
HETATM   20  N5  UNL     1      25.561  62.332   9.250  1.00  0.00    -0.066 NA
HETATM   21  N6  UNL     1      26.698  64.416   9.664  1.00  0.00    -0.066 NA
ATOM     22  H4  UNL     1      25.209  62.225  11.540  1.00  0.00     0.169 HD
ENDBRANCH   5  18
BRANCH   1  23
HETATM   23  C2  UNL     1      22.643  64.863  13.624  1.00  0.00     0.030 C 
HETATM   24  C1  UNL     1      23.111  65.918  14.577  1.00  0.00     0.025 C 
HETATM   25  C3  UNL     1      21.413  65.309  12.890  1.00  0.00     0.025 C 
HETATM   26  C4  UNL     1      22.361  63.549  14.312  1.00  0.00     0.025 C 
ENDBRANCH   1  23
TORSDOF 8
ENDMDL
