MODEL 1
REMARK VINA RESULT: -6.761483696      0.000      0.000
REMARK  6 active torsions:
REMARK  status: ('A' for Active; 'I' for Inactive)
REMARK    1  A    between atoms: C2_2  and  C3_3 
REMARK       I    between atoms: C3_3  and  N1_5 
REMARK    2  A    between atoms: N1_5  and  C4_7 
REMARK    3  A    between atoms: C4_7  and  C5_8 
REMARK    4  A    between atoms: C5_8  and  N2_9 
REMARK       I    between atoms: N2_9  and  C6_11 
REMARK    5  A    between atoms: C6_11  and  C7_13 
REMARK    6  A    between atoms: C7_13  and  N3_14 
REMARK       I    between atoms: N4_20  and  C10_21 
ROOT
HETATM    1  C5  UNL     1      28.577  65.973  12.403  1.00  0.00     0.068 C 
HETATM    2  C8  UNL     1      29.132  64.480  12.455  1.00  0.00     0.056 C 
HETATM    3  C9  UNL     1      28.029  63.493  12.396  1.00  0.00     0.130 C 
HETATM    4  N4  UNL     1      26.996  63.899  11.494  1.00  0.00    -0.336 N 
HETATM    5  C10 UNL     1      26.627  63.099  10.405  1.00  0.00     0.330 C 
HETATM    6  N5  UNL     1      27.285  61.860  10.182  1.00  0.00    -0.040 NA
HETATM    7  O3  UNL     1      25.725  63.410   9.580  1.00  0.00    -0.251 OA
HETATM    8  C11 UNL     1      26.355  65.188  11.782  1.00  0.00     0.130 C 
HETATM    9  C12 UNL     1      27.186  65.909  12.829  1.00  0.00     0.056 C 
ENDROOT
BRANCH   1  10
HETATM   10  C4  UNL     1      28.827  66.420  11.003  1.00  0.00     0.095 C 
BRANCH  10  11
HETATM   11  N1  UNL     1      30.138  66.397  10.515  1.00  0.00    -0.335 N 
HETATM   12  C3  UNL     1      30.787  65.960   9.364  1.00  0.00     0.244 C 
HETATM   13  O1  UNL     1      30.209  65.410   8.416  1.00  0.00    -0.268 OA
ATOM     14  H1  UNL     1      30.793  66.811  11.180  1.00  0.00     0.168 HD
BRANCH  12  15
HETATM   15  C2  UNL     1      32.242  66.131   9.198  1.00  0.00     0.064 C 
HETATM   16  C1  UNL     1      32.694  66.724   8.127  1.00  0.00     0.017 C 
ENDBRANCH  12  15
ENDBRANCH  10  11
ENDBRANCH   1  10
BRANCH   1  17
HETATM   17  N2  UNL     1      29.522  66.640  13.273  1.00  0.00    -0.346 N 
HETATM   18  C6  UNL     1      29.472  68.006  13.615  1.00  0.00     0.244 C 
HETATM   19  O2  UNL     1      28.602  68.813  13.209  1.00  0.00    -0.272 OA
ATOM     20  H2  UNL     1      30.278  66.081  13.668  1.00  0.00     0.163 HD
BRANCH  18  21
HETATM   21  C7  UNL     1      30.500  68.587  14.521  1.00  0.00     0.332 C 
BRANCH  21  22
HETATM   22  N3  UNL     1      31.799  68.676  13.932  1.00  0.00    -0.071 N 
ATOM     23  H33 UNL     1      31.795  69.333  13.152  1.00  0.00     0.274 HD
ATOM     24  H32 UNL     1      32.445  69.157  14.558  1.00  0.00     0.274 HD
ATOM     25  H31 UNL     1      32.181  67.776  13.644  1.00  0.00     0.274 HD
ENDBRANCH  21  22
ENDBRANCH  18  21
ENDBRANCH   1  17
TORSDOF 6
ENDMDL
MODEL 2
REMARK VINA RESULT: -6.676225437      1.975      4.848
REMARK  6 active torsions:
REMARK  status: ('A' for Active; 'I' for Inactive)
REMARK    1  A    between atoms: C2_2  and  C3_3 
REMARK       I    between atoms: C3_3  and  N1_5 
REMARK    2  A    between atoms: N1_5  and  C4_7 
REMARK    3  A    between atoms: C4_7  and  C5_8 
REMARK    4  A    between atoms: C5_8  and  N2_9 
REMARK       I    between atoms: N2_9  and  C6_11 
REMARK    5  A    between atoms: C6_11  and  C7_13 
REMARK    6  A    between atoms: C7_13  and  N3_14 
REMARK       I    between atoms: N4_20  and  C10_21 
ROOT
HETATM    1  C5  UNL     1      28.109  66.377  11.438  1.00  0.00     0.068 C 
HETATM    2  C8  UNL     1      28.822  67.781  11.681  1.00  0.00     0.056 C 
HETATM    3  C9  UNL     1      28.727  68.197  13.100  1.00  0.00     0.130 C 
HETATM    4  N4  UNL     1      28.883  67.090  13.992  1.00  0.00    -0.336 N 
HETATM    5  C10 UNL     1      29.900  67.071  14.955  1.00  0.00     0.330 C 
HETATM    6  N5  UNL     1      30.799  68.166  15.055  1.00  0.00    -0.040 NA
HETATM    7  O3  UNL     1      30.082  66.121  15.764  1.00  0.00    -0.251 OA
HETATM    8  C11 UNL     1      27.919  65.993  13.838  1.00  0.00     0.130 C 
HETATM    9  C12 UNL     1      27.167  66.200  12.535  1.00  0.00     0.056 C 
ENDROOT
BRANCH   1  10
HETATM   10  C4  UNL     1      29.227  65.396  11.355  1.00  0.00     0.095 C 
BRANCH  10  11
HETATM   11  N1  UNL     1      30.391  65.762  10.669  1.00  0.00    -0.335 N 
HETATM   12  C3  UNL     1      30.820  65.804   9.346  1.00  0.00     0.244 C 
HETATM   13  O1  UNL     1      30.123  65.451   8.385  1.00  0.00    -0.268 OA
ATOM     14  H1  UNL     1      31.118  66.083  11.310  1.00  0.00     0.168 HD
BRANCH  12  15
HETATM   15  C2  UNL     1      32.170  66.287   8.998  1.00  0.00     0.064 C 
HETATM   16  C1  UNL     1      32.376  66.797   7.815  1.00  0.00     0.017 C 
ENDBRANCH  12  15
ENDBRANCH  10  11
ENDBRANCH   1  10
BRANCH   1  17
HETATM   17  N2  UNL     1      27.571  66.576  10.109  1.00  0.00    -0.346 N 
HETATM   18  C6  UNL     1      26.834  65.615   9.389  1.00  0.00     0.244 C 
HETATM   19  O2  UNL     1      26.551  64.469   9.813  1.00  0.00    -0.272 OA
ATOM     20  H2  UNL     1      27.739  67.477   9.661  1.00  0.00     0.163 HD
BRANCH  18  21
HETATM   21  C7  UNL     1      26.330  65.929   8.025  1.00  0.00     0.332 C 
BRANCH  21  22
HETATM   22  N3  UNL     1      27.338  66.419   7.140  1.00  0.00    -0.071 N 
ATOM     23  H33 UNL     1      28.252  66.045   7.394  1.00  0.00     0.274 HD
ATOM     24  H32 UNL     1      27.235  66.003   6.214  1.00  0.00     0.274 HD
ATOM     25  H31 UNL     1      27.369  67.436   7.076  1.00  0.00     0.274 HD
ENDBRANCH  21  22
ENDBRANCH  18  21
ENDBRANCH   1  17
TORSDOF 6
ENDMDL
MODEL 3
REMARK VINA RESULT: -6.635743858      1.198      1.267
REMARK  6 active torsions:
REMARK  status: ('A' for Active; 'I' for Inactive)
REMARK    1  A    between atoms: C2_2  and  C3_3 
REMARK       I    between atoms: C3_3  and  N1_5 
REMARK    2  A    between atoms: N1_5  and  C4_7 
REMARK    3  A    between atoms: C4_7  and  C5_8 
REMARK    4  A    between atoms: C5_8  and  N2_9 
REMARK       I    between atoms: N2_9  and  C6_11 
REMARK    5  A    between atoms: C6_11  and  C7_13 
REMARK    6  A    between atoms: C7_13  and  N3_14 
REMARK       I    between atoms: N4_20  and  C10_21 
ROOT
HETATM    1  C5  UNL     1      27.940  65.928  11.319  1.00  0.00     0.068 C 
HETATM    2  C8  UNL     1      28.626  64.530  11.656  1.00  0.00     0.056 C 
HETATM    3  C9  UNL     1      27.619  63.451  11.781  1.00  0.00     0.130 C 
HETATM    4  N4  UNL     1      26.573  63.581  10.815  1.00  0.00    -0.336 N 
HETATM    5  C10 UNL     1      26.302  62.559   9.897  1.00  0.00     0.330 C 
HETATM    6  N5  UNL     1      27.074  61.367   9.916  1.00  0.00    -0.040 NA
HETATM    7  O3  UNL     1      25.393  62.623   9.025  1.00  0.00    -0.251 OA
HETATM    8  C11 UNL     1      25.811  64.836  10.850  1.00  0.00     0.130 C 
HETATM    9  C12 UNL     1      26.551  65.816  11.744  1.00  0.00     0.056 C 
ENDROOT
BRANCH   1  10
HETATM   10  C4  UNL     1      28.177  66.123   9.861  1.00  0.00     0.095 C 
BRANCH  10  11
HETATM   11  N1  UNL     1      29.486  66.351   9.418  1.00  0.00    -0.335 N 
HETATM   12  C3  UNL     1      30.199  66.194   8.234  1.00  0.00     0.244 C 
HETATM   13  O1  UNL     1      29.712  65.734   7.192  1.00  0.00    -0.268 OA
ATOM     14  H1  UNL     1      30.071  66.733  10.162  1.00  0.00     0.168 HD
BRANCH  12  15
HETATM   15  C2  UNL     1      31.621  66.579   8.145  1.00  0.00     0.064 C 
HETATM   16  C1  UNL     1      32.121  66.894   6.983  1.00  0.00     0.017 C 
ENDBRANCH  12  15
ENDBRANCH  10  11
ENDBRANCH   1  10
BRANCH   1  17
HETATM   17  N2  UNL     1      28.801  66.832  12.050  1.00  0.00    -0.346 N 
HETATM   18  C6  UNL     1      28.541  68.203  12.251  1.00  0.00     0.244 C 
HETATM   19  O2  UNL     1      27.529  68.807  11.821  1.00  0.00    -0.272 OA
ATOM     20  H2  UNL     1      29.659  66.450  12.449  1.00  0.00     0.163 HD
BRANCH  18  21
HETATM   21  C7  UNL     1      29.500  69.040  13.020  1.00  0.00     0.332 C 
BRANCH  21  22
HETATM   22  N3  UNL     1      30.601  68.305  13.557  1.00  0.00    -0.071 N 
ATOM     23  H33 UNL     1      30.271  67.496  14.083  1.00  0.00     0.274 HD
ATOM     24  H32 UNL     1      31.112  67.828  12.814  1.00  0.00     0.274 HD
ATOM     25  H31 UNL     1      31.234  68.870  14.123  1.00  0.00     0.274 HD
ENDBRANCH  21  22
ENDBRANCH  18  21
ENDBRANCH   1  17
TORSDOF 6
ENDMDL
MODEL 4
REMARK VINA RESULT: -6.481638129      1.787      1.973
REMARK  6 active torsions:
REMARK  status: ('A' for Active; 'I' for Inactive)
REMARK    1  A    between atoms: C2_2  and  C3_3 
REMARK       I    between atoms: C3_3  and  N1_5 
REMARK    2  A    between atoms: N1_5  and  C4_7 
REMARK    3  A    between atoms: C4_7  and  C5_8 
REMARK    4  A    between atoms: C5_8  and  N2_9 
REMARK       I    between atoms: N2_9  and  C6_11 
REMARK    5  A    between atoms: C6_11  and  C7_13 
REMARK    6  A    between atoms: C7_13  and  N3_14 
REMARK       I    between atoms: N4_20  and  C10_21 
ROOT
HETATM    1  C5  UNL     1      28.372  65.486  11.488  1.00  0.00     0.068 C 
HETATM    2  C8  UNL     1      27.393  64.380  12.086  1.00  0.00     0.056 C 
HETATM    3  C9  UNL     1      26.024  64.517  11.537  1.00  0.00     0.130 C 
HETATM    4  N4  UNL     1      26.037  64.863  10.150  1.00  0.00    -0.336 N 
HETATM    5  C10 UNL     1      25.418  64.049   9.193  1.00  0.00     0.330 C 
HETATM    6  N5  UNL     1      24.763  62.855   9.596  1.00  0.00    -0.040 NA
HETATM    7  O3  UNL     1      25.401  64.308   7.958  1.00  0.00    -0.251 OA
HETATM    8  C11 UNL     1      26.728  66.111   9.800  1.00  0.00     0.130 C 
HETATM    9  C12 UNL     1      27.524  66.569  11.010  1.00  0.00     0.056 C 
ENDROOT
BRANCH   1  10
HETATM   10  C4  UNL     1      29.174  64.764  10.460  1.00  0.00     0.095 C 
BRANCH  10  11
HETATM   11  N1  UNL     1      30.249  65.428   9.858  1.00  0.00    -0.335 N 
HETATM   12  C3  UNL     1      30.601  65.836   8.576  1.00  0.00     0.244 C 
HETATM   13  O1  UNL     1      29.904  65.632   7.572  1.00  0.00    -0.268 OA
ATOM     14  H1  UNL     1      30.963  65.681  10.542  1.00  0.00     0.168 HD
BRANCH  12  15
HETATM   15  C2  UNL     1      31.863  66.558   8.325  1.00  0.00     0.064 C 
HETATM   16  C1  UNL     1      32.155  66.924   7.108  1.00  0.00     0.017 C 
ENDBRANCH  12  15
ENDBRANCH  10  11
ENDBRANCH   1  10
BRANCH   1  17
HETATM   17  N2  UNL     1      29.218  65.744  12.634  1.00  0.00    -0.346 N 
HETATM   18  C6  UNL     1      28.810  66.431  13.794  1.00  0.00     0.244 C 
HETATM   19  O2  UNL     1      27.663  66.904  13.977  1.00  0.00    -0.272 OA
ATOM     20  H2  UNL     1      30.178  65.402  12.599  1.00  0.00     0.163 HD
BRANCH  18  21
HETATM   21  C7  UNL     1      29.768  66.640  14.913  1.00  0.00     0.332 C 
BRANCH  21  22
HETATM   22  N3  UNL     1      29.423  65.930  16.103  1.00  0.00    -0.071 N 
ATOM     23  H33 UNL     1      28.631  66.372  16.569  1.00  0.00     0.274 HD
ATOM     24  H32 UNL     1      29.005  65.027  15.876  1.00  0.00     0.274 HD
ATOM     25  H31 UNL     1      30.202  65.811  16.751  1.00  0.00     0.274 HD
ENDBRANCH  21  22
ENDBRANCH  18  21
ENDBRANCH   1  17
TORSDOF 6
ENDMDL
MODEL 5
REMARK VINA RESULT: -6.448516621      2.439      5.176
REMARK  6 active torsions:
REMARK  status: ('A' for Active; 'I' for Inactive)
REMARK    1  A    between atoms: C2_2  and  C3_3 
REMARK       I    between atoms: C3_3  and  N1_5 
REMARK    2  A    between atoms: N1_5  and  C4_7 
REMARK    3  A    between atoms: C4_7  and  C5_8 
REMARK    4  A    between atoms: C5_8  and  N2_9 
REMARK       I    between atoms: N2_9  and  C6_11 
REMARK    5  A    between atoms: C6_11  and  C7_13 
REMARK    6  A    between atoms: C7_13  and  N3_14 
REMARK       I    between atoms: N4_20  and  C10_21 
ROOT
HETATM    1  C5  UNL     1      28.084  66.327  10.176  1.00  0.00     0.068 C 
HETATM    2  C8  UNL     1      28.362  64.822  10.622  1.00  0.00     0.056 C 
HETATM    3  C9  UNL     1      28.838  64.754  12.023  1.00  0.00     0.130 C 
HETATM    4  N4  UNL     1      28.163  65.693  12.863  1.00  0.00    -0.336 N 
HETATM    5  C10 UNL     1      27.441  65.273  13.988  1.00  0.00     0.330 C 
HETATM    6  N5  UNL     1      27.373  63.891  14.309  1.00  0.00    -0.040 NA
HETATM    7  O3  UNL     1      26.828  66.059  14.761  1.00  0.00    -0.251 OA
HETATM    8  C11 UNL     1      28.276  67.106  12.478  1.00  0.00     0.130 C 
HETATM    9  C12 UNL     1      28.858  67.171  11.076  1.00  0.00     0.056 C 
ENDROOT
BRANCH   1  10
HETATM   10  C4  UNL     1      26.602  66.470  10.235  1.00  0.00     0.095 C 
BRANCH  10  11
HETATM   11  N1  UNL     1      25.808  65.349   9.967  1.00  0.00    -0.335 N 
HETATM   12  C3  UNL     1      25.440  64.610   8.848  1.00  0.00     0.244 C 
HETATM   13  O1  UNL     1      25.809  64.875   7.695  1.00  0.00    -0.268 OA
ATOM     14  H1  UNL     1      25.388  64.975  10.819  1.00  0.00     0.168 HD
BRANCH  12  15
HETATM   15  C2  UNL     1      24.562  63.430   8.969  1.00  0.00     0.064 C 
HETATM   16  C1  UNL     1      24.938  62.432   9.719  1.00  0.00     0.017 C 
ENDBRANCH  12  15
ENDBRANCH  10  11
ENDBRANCH   1  10
BRANCH   1  17
HETATM   17  N2  UNL     1      28.485  66.273   8.786  1.00  0.00    -0.346 N 
HETATM   18  C6  UNL     1      29.821  66.249   8.337  1.00  0.00     0.244 C 
HETATM   19  O2  UNL     1      30.827  66.271   9.086  1.00  0.00    -0.272 OA
ATOM     20  H2  UNL     1      27.748  66.250   8.081  1.00  0.00     0.163 HD
BRANCH  18  21
HETATM   21  C7  UNL     1      30.116  66.194   6.880  1.00  0.00     0.332 C 
BRANCH  21  22
HETATM   22  N3  UNL     1      31.091  67.148   6.456  1.00  0.00    -0.071 N 
ATOM     23  H33 UNL     1      31.715  67.392   7.226  1.00  0.00     0.274 HD
ATOM     24  H32 UNL     1      31.764  66.717   5.821  1.00  0.00     0.274 HD
ATOM     25  H31 UNL     1      30.689  67.987   6.038  1.00  0.00     0.274 HD
ENDBRANCH  21  22
ENDBRANCH  18  21
ENDBRANCH   1  17
TORSDOF 6
ENDMDL
