MODEL 1
REMARK VINA RESULT: -7.283699283      0.000      0.000
REMARK  9 active torsions:
REMARK  status: ('A' for Active; 'I' for Inactive)
REMARK    1  A    between atoms: C2_2  and  C3_3 
REMARK    2  A    between atoms: C3_3  and  C4_4 
REMARK    3  A    between atoms: C4_4  and  C5_5 
REMARK    4  A    between atoms: C5_5  and  C6_6 
REMARK    5  A    between atoms: C9_12  and  C10_13 
REMARK    6  A    between atoms: C9_12  and  C12_15 
REMARK    7  A    between atoms: C12_15  and  N3_19 
REMARK    8  A    between atoms: N3_19  and  O2_21 
REMARK    9  A    between atoms: O2_21  and  C13_22 
ROOT
HETATM    1  C5  UNL     1     -43.869  14.514 -21.172  1.00  0.00     0.144 C 
HETATM    2  C8  UNL     1     -43.384  15.759 -21.880  1.00  0.00     0.242 C 
HETATM    3  O1  UNL     1     -44.283  16.494 -22.326  1.00  0.00    -0.272 OA
HETATM    4  N1  UNL     1     -42.049  16.082 -22.034  1.00  0.00    -0.342 N 
ATOM      5  H1  UNL     1     -41.806  16.624 -22.863  1.00  0.00     0.163 HD
HETATM    6  C9  UNL     1     -40.959  15.735 -21.150  1.00  0.00     0.106 C 
HETATM    7  C18 UNL     1     -41.183  14.556 -20.282  1.00  0.00     0.180 C 
HETATM    8  S1  UNL     1     -42.487  13.500 -20.877  1.00  0.00     0.164 S 
HETATM    9  O3  UNL     1     -41.976  12.761 -22.043  1.00  0.00    -0.226 OA
HETATM   10  O4  UNL     1     -42.720  12.481 -19.790  1.00  0.00    -0.226 OA
ENDROOT
BRANCH   6  11
HETATM   11  C10 UNL     1     -39.657  15.675 -21.912  1.00  0.00     0.035 C 
HETATM   12  C11 UNL     1     -38.823  14.469 -21.664  1.00  0.00     0.008 C 
ENDBRANCH   6  11
BRANCH   6  13
HETATM   13  C12 UNL     1     -40.808  16.936 -20.249  1.00  0.00     0.141 C 
HETATM   14  N2  UNL     1     -40.789  18.137 -20.642  1.00  0.00    -0.284 N 
HETATM   15 CL1  UNL     1     -40.924  18.750 -22.236  1.00  0.00     0.012 Cl
ATOM     16  H2  UNL     1     -40.678  18.838 -19.909  1.00  0.00     0.182 HD
BRANCH  13  17
HETATM   17  N3  UNL     1     -40.704  16.740 -18.833  1.00  0.00    -0.251 N 
ATOM     18  H3  UNL     1     -41.350  16.118 -18.346  1.00  0.00     0.196 HD
BRANCH  17  19
HETATM   19  O2  UNL     1     -39.742  17.390 -18.160  1.00  0.00    -0.272 OA
BRANCH  19  20
HETATM   20  C13 UNL     1     -39.717  17.053 -16.807  1.00  0.00     0.178 C 
HETATM   21  C14 UNL     1     -38.637  17.762 -16.054  1.00  0.00     0.038 C 
HETATM   22  C15 UNL     1     -37.523  16.782 -15.751  1.00  0.00     0.030 C 
HETATM   23  C16 UNL     1     -38.013  15.643 -14.879  1.00  0.00     0.232 C 
HETATM   24  N4  UNL     1     -39.352  15.230 -15.244  1.00  0.00    -0.073 N 
HETATM   25  C17 UNL     1     -39.651  15.535 -16.631  1.00  0.00     0.266 C 
ATOM     26  H42 UNL     1     -39.505  14.242 -15.040  1.00  0.00     0.277 HD
ATOM     27  H41 UNL     1     -40.049  15.632 -14.617  1.00  0.00     0.277 HD
ENDBRANCH  19  20
ENDBRANCH  17  19
ENDBRANCH  13  17
ENDBRANCH   6  13
BRANCH   1  28
HETATM   28  C4  UNL     1     -45.024  13.911 -21.835  1.00  0.00     0.035 C 
BRANCH  28  29
HETATM   29  C3  UNL     1     -44.963  13.523 -23.256  1.00  0.00     0.002 C 
BRANCH  29  30
HETATM   30  C2  UNL     1     -46.232  13.143 -23.934  1.00  0.00    -0.004 C 
HETATM   31  C1  UNL     1     -47.292  13.092 -22.812  1.00  0.00     0.005 C 
ENDBRANCH  29  30
ENDBRANCH  28  29
ENDBRANCH   1  28
BRANCH   1  32
HETATM   32  C6  UNL     1     -44.343  15.067 -19.821  1.00  0.00     0.031 C 
HETATM   33  C7  UNL     1     -45.727  14.702 -19.452  1.00  0.00     0.007 C 
ENDBRANCH   1  32
TORSDOF 9
ENDMDL
MODEL 2
REMARK VINA RESULT: -7.147255921      3.030      3.983
REMARK  9 active torsions:
REMARK  status: ('A' for Active; 'I' for Inactive)
REMARK    1  A    between atoms: C2_2  and  C3_3 
REMARK    2  A    between atoms: C3_3  and  C4_4 
REMARK    3  A    between atoms: C4_4  and  C5_5 
REMARK    4  A    between atoms: C5_5  and  C6_6 
REMARK    5  A    between atoms: C9_12  and  C10_13 
REMARK    6  A    between atoms: C9_12  and  C12_15 
REMARK    7  A    between atoms: C12_15  and  N3_19 
REMARK    8  A    between atoms: N3_19  and  O2_21 
REMARK    9  A    between atoms: O2_21  and  C13_22 
ROOT
HETATM    1  C5  UNL     1     -41.429  17.447 -23.468  1.00  0.00     0.144 C 
HETATM    2  C8  UNL     1     -40.448  17.599 -22.328  1.00  0.00     0.242 C 
HETATM    3  O1  UNL     1     -40.155  18.773 -22.040  1.00  0.00    -0.272 OA
HETATM    4  N1  UNL     1     -39.902  16.532 -21.639  1.00  0.00    -0.342 N 
ATOM      5  H1  UNL     1     -38.970  16.673 -21.250  1.00  0.00     0.163 HD
HETATM    6  C9  UNL     1     -40.507  15.239 -21.410  1.00  0.00     0.106 C 
HETATM    7  C18 UNL     1     -41.562  14.842 -22.370  1.00  0.00     0.180 C 
HETATM    8  S1  UNL     1     -41.490  15.761 -23.893  1.00  0.00     0.164 S 
HETATM    9  O3  UNL     1     -40.349  15.257 -24.673  1.00  0.00    -0.226 OA
HETATM   10  O4  UNL     1     -42.734  15.387 -24.659  1.00  0.00    -0.226 OA
ENDROOT
BRANCH   6  11
HETATM   11  C10 UNL     1     -39.444  14.183 -21.222  1.00  0.00     0.035 C 
HETATM   12  C11 UNL     1     -39.479  13.057 -22.194  1.00  0.00     0.008 C 
ENDBRANCH   6  11
BRANCH   6  13
HETATM   13  C12 UNL     1     -41.155  15.362 -20.053  1.00  0.00     0.141 C 
HETATM   14  N2  UNL     1     -41.913  14.494 -19.532  1.00  0.00    -0.284 N 
HETATM   15 CL1  UNL     1     -42.415  12.984 -20.167  1.00  0.00     0.012 Cl
ATOM     16  H2  UNL     1     -42.275  14.724 -18.607  1.00  0.00     0.182 HD
BRANCH  13  17
HETATM   17  N3  UNL     1     -40.892  16.522 -19.254  1.00  0.00    -0.251 N 
ATOM     18  H3  UNL     1     -41.596  17.253 -19.152  1.00  0.00     0.196 HD
BRANCH  17  19
HETATM   19  O2  UNL     1     -39.703  16.628 -18.641  1.00  0.00    -0.272 OA
BRANCH  19  20
HETATM   20  C13 UNL     1     -39.806  16.525 -17.254  1.00  0.00     0.178 C 
HETATM   21  C14 UNL     1     -38.989  17.549 -16.534  1.00  0.00     0.038 C 
HETATM   22  C15 UNL     1     -37.769  16.878 -15.940  1.00  0.00     0.030 C 
HETATM   23  C16 UNL     1     -38.160  15.817 -14.931  1.00  0.00     0.232 C 
HETATM   24  N4  UNL     1     -39.337  15.087 -15.353  1.00  0.00    -0.073 N 
HETATM   25  C17 UNL     1     -39.490  15.099 -16.796  1.00  0.00     0.266 C 
ATOM     26  H42 UNL     1     -39.334  14.134 -14.988  1.00  0.00     0.277 HD
ATOM     27  H41 UNL     1     -40.176  15.433 -14.888  1.00  0.00     0.277 HD
ENDBRANCH  19  20
ENDBRANCH  17  19
ENDBRANCH  13  17
ENDBRANCH   6  13
BRANCH   1  28
HETATM   28  C4  UNL     1     -41.189  18.409 -24.542  1.00  0.00     0.035 C 
BRANCH  28  29
HETATM   29  C3  UNL     1     -41.396  18.032 -25.953  1.00  0.00     0.002 C 
BRANCH  29  30
HETATM   30  C2  UNL     1     -42.325  18.860 -26.770  1.00  0.00    -0.004 C 
HETATM   31  C1  UNL     1     -43.677  18.113 -26.728  1.00  0.00     0.005 C 
ENDBRANCH  29  30
ENDBRANCH  28  29
ENDBRANCH   1  28
BRANCH   1  32
HETATM   32  C6  UNL     1     -42.764  17.813 -22.804  1.00  0.00     0.031 C 
HETATM   33  C7  UNL     1     -43.260  19.170 -23.115  1.00  0.00     0.007 C 
ENDBRANCH   1  32
TORSDOF 9
ENDMDL
MODEL 3
REMARK VINA RESULT: -6.945369933      2.862      3.508
REMARK  9 active torsions:
REMARK  status: ('A' for Active; 'I' for Inactive)
REMARK    1  A    between atoms: C2_2  and  C3_3 
REMARK    2  A    between atoms: C3_3  and  C4_4 
REMARK    3  A    between atoms: C4_4  and  C5_5 
REMARK    4  A    between atoms: C5_5  and  C6_6 
REMARK    5  A    between atoms: C9_12  and  C10_13 
REMARK    6  A    between atoms: C9_12  and  C12_15 
REMARK    7  A    between atoms: C12_15  and  N3_19 
REMARK    8  A    between atoms: N3_19  and  O2_21 
REMARK    9  A    between atoms: O2_21  and  C13_22 
ROOT
HETATM    1  C5  UNL     1     -43.038  15.464 -22.090  1.00  0.00     0.144 C 
HETATM    2  C8  UNL     1     -41.690  15.687 -21.444  1.00  0.00     0.242 C 
HETATM    3  O1  UNL     1     -41.581  16.750 -20.808  1.00  0.00    -0.272 OA
HETATM    4  N1  UNL     1     -40.639  14.793 -21.535  1.00  0.00    -0.342 N 
ATOM      5  H1  UNL     1     -39.701  15.190 -21.496  1.00  0.00     0.163 HD
HETATM    6  C9  UNL     1     -40.724  13.357 -21.681  1.00  0.00     0.106 C 
HETATM    7  C18 UNL     1     -41.987  12.842 -22.258  1.00  0.00     0.180 C 
HETATM    8  S1  UNL     1     -42.899  14.087 -23.144  1.00  0.00     0.164 S 
HETATM    9  O3  UNL     1     -42.213  14.328 -24.423  1.00  0.00    -0.226 OA
HETATM   10  O4  UNL     1     -44.230  13.461 -23.481  1.00  0.00    -0.226 OA
ENDROOT
BRANCH   6  11
HETATM   11  C10 UNL     1     -39.492  12.821 -22.371  1.00  0.00     0.035 C 
HETATM   12  C11 UNL     1     -38.219  13.517 -22.046  1.00  0.00     0.008 C 
ENDBRANCH   6  11
BRANCH   6  13
HETATM   13  C12 UNL     1     -40.622  12.828 -20.272  1.00  0.00     0.141 C 
HETATM   14  N2  UNL     1     -40.658  11.605 -19.954  1.00  0.00    -0.284 N 
HETATM   15 CL1  UNL     1     -40.821  10.234 -20.969  1.00  0.00     0.012 Cl
ATOM     16  H2  UNL     1     -40.578  11.407 -18.957  1.00  0.00     0.182 HD
BRANCH  13  17
HETATM   17  N3  UNL     1     -40.443  13.750 -19.190  1.00  0.00    -0.251 N 
ATOM     18  H3  UNL     1     -41.142  14.468 -18.998  1.00  0.00     0.196 HD
BRANCH  17  19
HETATM   19  O2  UNL     1     -39.340  13.651 -18.432  1.00  0.00    -0.272 OA
BRANCH  19  20
HETATM   20  C13 UNL     1     -38.896  14.889 -17.971  1.00  0.00     0.178 C 
HETATM   21  C14 UNL     1     -38.214  14.802 -16.643  1.00  0.00     0.038 C 
HETATM   22  C15 UNL     1     -39.136  15.355 -15.577  1.00  0.00     0.030 C 
HETATM   23  C16 UNL     1     -39.457  16.815 -15.829  1.00  0.00     0.232 C 
HETATM   24  N4  UNL     1     -39.626  17.088 -17.241  1.00  0.00    -0.073 N 
HETATM   25  C17 UNL     1     -40.040  15.906 -17.973  1.00  0.00     0.266 C 
ATOM     26  H42 UNL     1     -40.270  17.864 -17.395  1.00  0.00     0.277 HD
ATOM     27  H41 UNL     1     -38.783  17.498 -17.644  1.00  0.00     0.277 HD
ENDBRANCH  19  20
ENDBRANCH  17  19
ENDBRANCH  13  17
ENDBRANCH   6  13
BRANCH   1  28
HETATM   28  C4  UNL     1     -43.598  16.693 -22.650  1.00  0.00     0.035 C 
BRANCH  28  29
HETATM   29  C3  UNL     1     -43.086  17.247 -23.916  1.00  0.00     0.002 C 
BRANCH  29  30
HETATM   30  C2  UNL     1     -44.073  17.635 -24.961  1.00  0.00    -0.004 C 
HETATM   31  C1  UNL     1     -45.245  16.642 -24.800  1.00  0.00     0.005 C 
ENDBRANCH  29  30
ENDBRANCH  28  29
ENDBRANCH   1  28
BRANCH   1  32
HETATM   32  C6  UNL     1     -43.911  15.055 -20.896  1.00  0.00     0.031 C 
HETATM   33  C7  UNL     1     -45.289  15.590 -20.923  1.00  0.00     0.007 C 
ENDBRANCH   1  32
TORSDOF 9
ENDMDL
MODEL 4
REMARK VINA RESULT: -6.868148803      2.465      3.328
REMARK  9 active torsions:
REMARK  status: ('A' for Active; 'I' for Inactive)
REMARK    1  A    between atoms: C2_2  and  C3_3 
REMARK    2  A    between atoms: C3_3  and  C4_4 
REMARK    3  A    between atoms: C4_4  and  C5_5 
REMARK    4  A    between atoms: C5_5  and  C6_6 
REMARK    5  A    between atoms: C9_12  and  C10_13 
REMARK    6  A    between atoms: C9_12  and  C12_15 
REMARK    7  A    between atoms: C12_15  and  N3_19 
REMARK    8  A    between atoms: N3_19  and  O2_21 
REMARK    9  A    between atoms: O2_21  and  C13_22 
ROOT
HETATM    1  C5  UNL     1     -43.458  16.833 -23.155  1.00  0.00     0.144 C 
HETATM    2  C8  UNL     1     -42.122  16.172 -23.406  1.00  0.00     0.242 C 
HETATM    3  O1  UNL     1     -41.473  16.641 -24.358  1.00  0.00    -0.272 OA
HETATM    4  N1  UNL     1     -41.632  15.124 -22.649  1.00  0.00    -0.342 N 
ATOM      5  H1  UNL     1     -41.013  14.470 -23.127  1.00  0.00     0.163 HD
HETATM    6  C9  UNL     1     -41.900  14.854 -21.254  1.00  0.00     0.106 C 
HETATM    7  C18 UNL     1     -43.149  15.436 -20.714  1.00  0.00     0.180 C 
HETATM    8  S1  UNL     1     -44.315  15.871 -21.987  1.00  0.00     0.164 S 
HETATM    9  O3  UNL     1     -44.913  14.627 -22.499  1.00  0.00    -0.226 OA
HETATM   10  O4  UNL     1     -45.421  16.626 -21.293  1.00  0.00    -0.226 OA
ENDROOT
BRANCH   6  11
HETATM   11  C10 UNL     1     -41.756  13.379 -20.963  1.00  0.00     0.035 C 
HETATM   12  C11 UNL     1     -42.457  12.893 -19.745  1.00  0.00     0.008 C 
ENDBRANCH   6  11
BRANCH   6  13
HETATM   13  C12 UNL     1     -40.749  15.494 -20.518  1.00  0.00     0.141 C 
HETATM   14  N2  UNL     1     -39.531  15.372 -20.835  1.00  0.00    -0.284 N 
HETATM   15 CL1  UNL     1     -38.838  14.492 -22.131  1.00  0.00     0.012 Cl
ATOM     16  H2  UNL     1     -38.869  15.866 -20.235  1.00  0.00     0.182 HD
BRANCH  13  17
HETATM   17  N3  UNL     1     -41.020  16.332 -19.388  1.00  0.00    -0.251 N 
ATOM     18  H3  UNL     1     -41.979  16.494 -19.079  1.00  0.00     0.196 HD
BRANCH  17  19
HETATM   19  O2  UNL     1     -39.989  16.900 -18.743  1.00  0.00    -0.272 OA
BRANCH  19  20
HETATM   20  C13 UNL     1     -40.016  16.651 -17.371  1.00  0.00     0.178 C 
HETATM   21  C14 UNL     1     -39.146  17.588 -16.596  1.00  0.00     0.038 C 
HETATM   22  C15 UNL     1     -37.903  16.849 -16.146  1.00  0.00     0.030 C 
HETATM   23  C16 UNL     1     -38.251  15.690 -15.233  1.00  0.00     0.232 C 
HETATM   24  N4  UNL     1     -39.460  15.017 -15.662  1.00  0.00    -0.073 N 
HETATM   25  C17 UNL     1     -39.694  15.183 -17.084  1.00  0.00     0.266 C 
ATOM     26  H42 UNL     1     -39.450  14.031 -15.399  1.00  0.00     0.277 HD
ATOM     27  H41 UNL     1     -40.267  15.319 -15.115  1.00  0.00     0.277 HD
ENDBRANCH  19  20
ENDBRANCH  17  19
ENDBRANCH  13  17
ENDBRANCH   6  13
BRANCH   1  28
HETATM   28  C4  UNL     1     -44.152  17.174 -24.396  1.00  0.00     0.035 C 
BRANCH  28  29
HETATM   29  C3  UNL     1     -44.648  16.117 -25.297  1.00  0.00     0.002 C 
BRANCH  29  30
HETATM   30  C2  UNL     1     -44.154  16.107 -26.702  1.00  0.00    -0.004 C 
HETATM   31  C1  UNL     1     -43.713  17.559 -26.988  1.00  0.00     0.005 C 
ENDBRANCH  29  30
ENDBRANCH  28  29
ENDBRANCH   1  28
BRANCH   1  32
HETATM   32  C6  UNL     1     -43.051  18.148 -22.473  1.00  0.00     0.031 C 
HETATM   33  C7  UNL     1     -43.338  19.368 -23.258  1.00  0.00     0.007 C 
ENDBRANCH   1  32
TORSDOF 9
ENDMDL
MODEL 5
REMARK VINA RESULT: -6.815348419      2.577      3.490
REMARK  9 active torsions:
REMARK  status: ('A' for Active; 'I' for Inactive)
REMARK    1  A    between atoms: C2_2  and  C3_3 
REMARK    2  A    between atoms: C3_3  and  C4_4 
REMARK    3  A    between atoms: C4_4  and  C5_5 
REMARK    4  A    between atoms: C5_5  and  C6_6 
REMARK    5  A    between atoms: C9_12  and  C10_13 
REMARK    6  A    between atoms: C9_12  and  C12_15 
REMARK    7  A    between atoms: C12_15  and  N3_19 
REMARK    8  A    between atoms: N3_19  and  O2_21 
REMARK    9  A    between atoms: O2_21  and  C13_22 
ROOT
HETATM    1  C5  UNL     1     -42.353  15.813 -22.313  1.00  0.00     0.144 C 
HETATM    2  C8  UNL     1     -41.127  16.312 -21.583  1.00  0.00     0.242 C 
HETATM    3  O1  UNL     1     -41.253  17.426 -21.045  1.00  0.00    -0.272 OA
HETATM    4  N1  UNL     1     -39.943  15.604 -21.503  1.00  0.00    -0.342 N 
ATOM      5  H1  UNL     1     -39.089  16.156 -21.425  1.00  0.00     0.163 HD
HETATM    6  C9  UNL     1     -39.782  14.167 -21.517  1.00  0.00     0.106 C 
HETATM    7  C18 UNL     1     -40.883  13.401 -22.142  1.00  0.00     0.180 C 
HETATM    8  S1  UNL     1     -41.895  14.398 -23.215  1.00  0.00     0.164 S 
HETATM    9  O3  UNL     1     -41.136  14.647 -24.451  1.00  0.00    -0.226 OA
HETATM   10  O4  UNL     1     -43.068  13.532 -23.598  1.00  0.00    -0.226 OA
ENDROOT
BRANCH   6  11
HETATM   11  C10 UNL     1     -38.419  13.792 -22.049  1.00  0.00     0.035 C 
HETATM   12  C11 UNL     1     -38.405  12.720 -23.080  1.00  0.00     0.008 C 
ENDBRANCH   6  11
BRANCH   6  13
HETATM   13  C12 UNL     1     -39.733  13.779 -20.060  1.00  0.00     0.141 C 
HETATM   14  N2  UNL     1     -40.338  12.791 -19.554  1.00  0.00    -0.284 N 
HETATM   15 CL1  UNL     1     -41.349  11.640 -20.321  1.00  0.00     0.012 Cl
ATOM     16  H2  UNL     1     -40.206  12.661 -18.550  1.00  0.00     0.182 HD
BRANCH  13  17
HETATM   17  N3  UNL     1     -38.928  14.548 -19.157  1.00  0.00    -0.251 N 
ATOM     18  H3  UNL     1     -38.039  14.182 -18.813  1.00  0.00     0.196 HD
BRANCH  17  19
HETATM   19  O2  UNL     1     -39.364  15.757 -18.772  1.00  0.00    -0.272 OA
BRANCH  19  20
HETATM   20  C13 UNL     1     -39.628  15.819 -17.405  1.00  0.00     0.178 C 
HETATM   21  C14 UNL     1     -39.280  17.144 -16.807  1.00  0.00     0.038 C 
HETATM   22  C15 UNL     1     -38.010  17.001 -15.994  1.00  0.00     0.030 C 
HETATM   23  C16 UNL     1     -38.194  16.022 -14.852  1.00  0.00     0.232 C 
HETATM   24  N4  UNL     1     -39.015  14.894 -15.244  1.00  0.00    -0.073 N 
HETATM   25  C17 UNL     1     -38.956  14.655 -16.673  1.00  0.00     0.266 C 
ATOM     26  H42 UNL     1     -38.770  14.056 -14.716  1.00  0.00     0.277 HD
ATOM     27  H41 UNL     1     -39.978  15.007 -14.926  1.00  0.00     0.277 HD
ENDBRANCH  19  20
ENDBRANCH  17  19
ENDBRANCH  13  17
ENDBRANCH   6  13
BRANCH   1  28
HETATM   28  C4  UNL     1     -43.047  16.881 -23.032  1.00  0.00     0.035 C 
BRANCH  28  29
HETATM   29  C3  UNL     1     -42.424  17.535 -24.197  1.00  0.00     0.002 C 
BRANCH  29  30
HETATM   30  C2  UNL     1     -42.832  18.930 -24.518  1.00  0.00    -0.004 C 
HETATM   31  C1  UNL     1     -43.227  19.559 -23.164  1.00  0.00     0.005 C 
ENDBRANCH  29  30
ENDBRANCH  28  29
ENDBRANCH   1  28
BRANCH   1  32
HETATM   32  C6  UNL     1     -43.261  15.361 -21.160  1.00  0.00     0.031 C 
HETATM   33  C7  UNL     1     -44.702  15.624 -21.365  1.00  0.00     0.007 C 
ENDBRANCH   1  32
TORSDOF 9
ENDMDL
