MODEL 1
REMARK VINA RESULT: -6.301402513      0.000      0.000
REMARK  4 active torsions:
REMARK  status: ('A' for Active; 'I' for Inactive)
REMARK    1  A    between atoms: O1_2  and  C2_3 
REMARK       I    between atoms: C2_3  and  N1_5 
REMARK    2  A    between atoms: N1_5  and  C3_7 
REMARK    3  A    between atoms: C10_14  and  O3_15 
REMARK    4  A    between atoms: C12_18  and  O4_19 
ROOT
HETATM    1  C3  UNL     1     -15.108  -4.354  29.936  1.00  0.00     0.099 C 
HETATM    2  C4  UNL     1     -13.837  -4.234  29.123  1.00  0.00     0.038 C 
HETATM    3  C5  UNL     1     -12.836  -3.559  29.996  1.00  0.00     0.013 C 
HETATM    4  C6  UNL     1     -12.641  -4.100  31.350  1.00  0.00    -0.018 C 
HETATM    5  C7  UNL     1     -12.284  -2.917  32.265  1.00  0.00     0.010 C 
HETATM    6  C8  UNL     1     -13.770  -4.818  31.983  1.00  0.00     0.013 C 
HETATM    7  C9  UNL     1     -14.841  -5.299  31.053  1.00  0.00     0.038 C 
HETATM    8  C10 UNL     1     -14.512  -6.674  30.545  1.00  0.00     0.126 C 
HETATM    9  C11 UNL     1     -13.357  -6.645  29.606  1.00  0.00     0.064 C 
HETATM   10  C12 UNL     1     -13.375  -5.561  28.583  1.00  0.00     0.126 C 
ENDROOT
BRANCH   1  11
HETATM   11  N1  UNL     1     -16.273  -4.619  29.178  1.00  0.00    -0.331 N 
HETATM   12  C2  UNL     1     -17.204  -3.598  28.839  1.00  0.00     0.360 C 
HETATM   13  O2  UNL     1     -16.989  -2.401  29.225  1.00  0.00    -0.239 OA
ATOM     14  H1  UNL     1     -16.452  -5.573  28.865  1.00  0.00     0.165 HD
BRANCH  12  15
HETATM   15  O1  UNL     1     -18.345  -3.811  28.107  1.00  0.00    -0.309 OA
HETATM   16  C1  UNL     1     -19.576  -3.186  28.455  1.00  0.00     0.215 C 
ENDBRANCH  12  15
ENDBRANCH   1  11
BRANCH  10  17
HETATM   17  O4  UNL     1     -14.059  -5.927  27.427  1.00  0.00    -0.395 OA
ATOM     18  H4  UNL     1     -14.025  -6.864  27.269  1.00  0.00     0.210 HD
ENDBRANCH  10  17
BRANCH   8  19
HETATM   19  O3  UNL     1     -15.644  -7.317  30.052  1.00  0.00    -0.395 OA
ATOM     20  H3  UNL     1     -15.489  -8.246  29.931  1.00  0.00     0.210 HD
ENDBRANCH   8  19
TORSDOF 4
ENDMDL
MODEL 2
REMARK VINA RESULT: -5.988559816      1.634      2.072
REMARK  4 active torsions:
REMARK  status: ('A' for Active; 'I' for Inactive)
REMARK    1  A    between atoms: O1_2  and  C2_3 
REMARK       I    between atoms: C2_3  and  N1_5 
REMARK    2  A    between atoms: N1_5  and  C3_7 
REMARK    3  A    between atoms: C10_14  and  O3_15 
REMARK    4  A    between atoms: C12_18  and  O4_19 
ROOT
HETATM    1  C3  UNL     1     -14.921  -4.429  30.605  1.00  0.00     0.099 C 
HETATM    2  C4  UNL     1     -13.957  -3.287  30.847  1.00  0.00     0.038 C 
HETATM    3  C5  UNL     1     -13.956  -3.036  32.315  1.00  0.00     0.013 C 
HETATM    4  C6  UNL     1     -13.760  -4.192  33.203  1.00  0.00    -0.018 C 
HETATM    5  C7  UNL     1     -14.559  -3.919  34.487  1.00  0.00     0.010 C 
HETATM    6  C8  UNL     1     -14.168  -5.527  32.709  1.00  0.00     0.013 C 
HETATM    7  C9  UNL     1     -14.339  -5.649  31.226  1.00  0.00     0.038 C 
HETATM    8  C10 UNL     1     -13.037  -6.028  30.580  1.00  0.00     0.126 C 
HETATM    9  C11 UNL     1     -12.058  -4.907  30.629  1.00  0.00     0.064 C 
HETATM   10  C12 UNL     1     -12.591  -3.561  30.276  1.00  0.00     0.126 C 
ENDROOT
BRANCH   1  11
HETATM   11  N1  UNL     1     -15.347  -4.571  29.263  1.00  0.00    -0.331 N 
HETATM   12  C2  UNL     1     -16.639  -4.163  28.832  1.00  0.00     0.360 C 
HETATM   13  O2  UNL     1     -17.448  -3.650  29.675  1.00  0.00    -0.239 OA
ATOM     14  H1  UNL     1     -14.707  -4.980  28.583  1.00  0.00     0.165 HD
BRANCH  12  15
HETATM   15  O1  UNL     1     -17.093  -4.283  27.543  1.00  0.00    -0.309 OA
HETATM   16  C1  UNL     1     -18.031  -3.360  26.998  1.00  0.00     0.215 C 
ENDBRANCH  12  15
ENDBRANCH   1  11
BRANCH  10  17
HETATM   17  O4  UNL     1     -12.528  -3.301  28.909  1.00  0.00    -0.395 OA
ATOM     18  H4  UNL     1     -12.446  -4.095  28.395  1.00  0.00     0.210 HD
ENDBRANCH  10  17
BRANCH   8  19
HETATM   19  O3  UNL     1     -13.237  -6.568  29.312  1.00  0.00    -0.395 OA
ATOM     20  H3  UNL     1     -13.614  -7.438  29.362  1.00  0.00     0.210 HD
ENDBRANCH   8  19
TORSDOF 4
ENDMDL
MODEL 3
REMARK VINA RESULT: -5.878430069      2.463      4.558
REMARK  4 active torsions:
REMARK  status: ('A' for Active; 'I' for Inactive)
REMARK    1  A    between atoms: O1_2  and  C2_3 
REMARK       I    between atoms: C2_3  and  N1_5 
REMARK    2  A    between atoms: N1_5  and  C3_7 
REMARK    3  A    between atoms: C10_14  and  O3_15 
REMARK    4  A    between atoms: C12_18  and  O4_19 
ROOT
HETATM    1  C3  UNL     1     -13.956  -4.375  30.234  1.00  0.00     0.099 C 
HETATM    2  C4  UNL     1     -13.090  -3.138  30.343  1.00  0.00     0.038 C 
HETATM    3  C5  UNL     1     -13.880  -2.014  29.769  1.00  0.00     0.013 C 
HETATM    4  C6  UNL     1     -15.257  -1.833  30.255  1.00  0.00    -0.018 C 
HETATM    5  C7  UNL     1     -16.081  -1.272  29.085  1.00  0.00     0.010 C 
HETATM    6  C8  UNL     1     -15.976  -3.021  30.768  1.00  0.00     0.013 C 
HETATM    7  C9  UNL     1     -15.119  -4.191  31.143  1.00  0.00     0.038 C 
HETATM    8  C10 UNL     1     -14.686  -4.082  32.577  1.00  0.00     0.126 C 
HETATM    9  C11 UNL     1     -13.704  -2.979  32.767  1.00  0.00     0.064 C 
HETATM   10  C12 UNL     1     -12.617  -2.893  31.751  1.00  0.00     0.126 C 
ENDROOT
BRANCH   1  11
HETATM   11  N1  UNL     1     -13.262  -5.600  30.373  1.00  0.00    -0.331 N 
HETATM   12  C2  UNL     1     -13.566  -6.737  29.575  1.00  0.00     0.360 C 
HETATM   13  O2  UNL     1     -14.494  -6.659  28.702  1.00  0.00    -0.239 OA
ATOM     14  H1  UNL     1     -12.518  -5.670  31.067  1.00  0.00     0.165 HD
BRANCH  12  15
HETATM   15  O1  UNL     1     -12.919  -7.942  29.676  1.00  0.00    -0.309 OA
HETATM   16  C1  UNL     1     -12.432  -8.421  30.925  1.00  0.00     0.215 C 
ENDBRANCH  12  15
ENDBRANCH   1  11
BRANCH  10  17
HETATM   17  O4  UNL     1     -11.512  -3.674  32.080  1.00  0.00    -0.395 OA
ATOM     18  H4  UNL     1     -11.531  -3.961  32.986  1.00  0.00     0.210 HD
ENDBRANCH  10  17
BRANCH   8  19
HETATM   19  O3  UNL     1     -14.278  -5.314  33.080  1.00  0.00    -0.395 OA
ATOM     20  H3  UNL     1     -14.801  -5.573  33.829  1.00  0.00     0.210 HD
ENDBRANCH   8  19
TORSDOF 4
ENDMDL
MODEL 4
REMARK VINA RESULT: -5.848327208      2.930      4.915
REMARK  4 active torsions:
REMARK  status: ('A' for Active; 'I' for Inactive)
REMARK    1  A    between atoms: O1_2  and  C2_3 
REMARK       I    between atoms: C2_3  and  N1_5 
REMARK    2  A    between atoms: N1_5  and  C3_7 
REMARK    3  A    between atoms: C10_14  and  O3_15 
REMARK    4  A    between atoms: C12_18  and  O4_19 
ROOT
HETATM    1  C3  UNL     1     -14.054  -4.302  31.663  1.00  0.00     0.099 C 
HETATM    2  C4  UNL     1     -15.378  -4.481  30.953  1.00  0.00     0.038 C 
HETATM    3  C5  UNL     1     -15.754  -3.146  30.411  1.00  0.00     0.013 C 
HETATM    4  C6  UNL     1     -14.741  -2.420  29.629  1.00  0.00    -0.018 C 
HETATM    5  C7  UNL     1     -14.966  -0.919  29.878  1.00  0.00     0.010 C 
HETATM    6  C8  UNL     1     -13.314  -2.700  29.907  1.00  0.00     0.013 C 
HETATM    7  C9  UNL     1     -13.030  -3.979  30.633  1.00  0.00     0.038 C 
HETATM    8  C10 UNL     1     -12.856  -5.107  29.657  1.00  0.00     0.126 C 
HETATM    9  C11 UNL     1     -14.146  -5.468  29.007  1.00  0.00     0.064 C 
HETATM   10  C12 UNL     1     -15.327  -5.567  29.912  1.00  0.00     0.126 C 
ENDROOT
BRANCH   1  11
HETATM   11  N1  UNL     1     -13.713  -5.346  32.555  1.00  0.00    -0.331 N 
HETATM   12  C2  UNL     1     -12.838  -5.144  33.658  1.00  0.00     0.360 C 
HETATM   13  O2  UNL     1     -12.339  -3.987  33.858  1.00  0.00    -0.239 OA
ATOM     14  H1  UNL     1     -14.108  -6.274  32.403  1.00  0.00     0.165 HD
BRANCH  12  15
HETATM   15  O1  UNL     1     -12.482  -6.127  34.546  1.00  0.00    -0.309 OA
HETATM   16  C1  UNL     1     -11.721  -5.832  35.713  1.00  0.00     0.215 C 
ENDBRANCH  12  15
ENDBRANCH   1  11
BRANCH  10  17
HETATM   17  O4  UNL     1     -15.472  -6.837  30.465  1.00  0.00    -0.395 OA
ATOM     18  H4  UNL     1     -15.975  -7.418  29.907  1.00  0.00     0.210 HD
ENDBRANCH  10  17
BRANCH   8  19
HETATM   19  O3  UNL     1     -12.178  -6.177  30.233  1.00  0.00    -0.395 OA
ATOM     20  H3  UNL     1     -11.530  -6.537  29.638  1.00  0.00     0.210 HD
ENDBRANCH   8  19
TORSDOF 4
ENDMDL
MODEL 5
REMARK VINA RESULT: -5.841609029      1.169      1.219
REMARK  4 active torsions:
REMARK  status: ('A' for Active; 'I' for Inactive)
REMARK    1  A    between atoms: O1_2  and  C2_3 
REMARK       I    between atoms: C2_3  and  N1_5 
REMARK    2  A    between atoms: N1_5  and  C3_7 
REMARK    3  A    between atoms: C10_14  and  O3_15 
REMARK    4  A    between atoms: C12_18  and  O4_19 
ROOT
HETATM    1  C3  UNL     1     -14.628  -3.993  30.702  1.00  0.00     0.099 C 
HETATM    2  C4  UNL     1     -13.778  -3.953  29.450  1.00  0.00     0.038 C 
HETATM    3  C5  UNL     1     -12.535  -3.212  29.804  1.00  0.00     0.013 C 
HETATM    4  C6  UNL     1     -11.813  -3.636  31.013  1.00  0.00    -0.018 C 
HETATM    5  C7  UNL     1     -11.160  -2.380  31.615  1.00  0.00     0.010 C 
HETATM    6  C8  UNL     1     -12.586  -4.288  32.094  1.00  0.00     0.013 C 
HETATM    7  C9  UNL     1     -13.921  -4.840  31.699  1.00  0.00     0.038 C 
HETATM    8  C10 UNL     1     -13.779  -6.256  31.218  1.00  0.00     0.126 C 
HETATM    9  C11 UNL     1     -13.083  -6.317  29.904  1.00  0.00     0.064 C 
HETATM   10  C12 UNL     1     -13.528  -5.325  28.884  1.00  0.00     0.126 C 
ENDROOT
BRANCH   1  11
HETATM   11  N1  UNL     1     -15.989  -4.314  30.485  1.00  0.00    -0.331 N 
HETATM   12  C2  UNL     1     -16.990  -3.313  30.346  1.00  0.00     0.360 C 
HETATM   13  O2  UNL     1     -16.660  -2.083  30.418  1.00  0.00    -0.239 OA
ATOM     14  H1  UNL     1     -16.261  -5.295  30.425  1.00  0.00     0.165 HD
BRANCH  12  15
HETATM   15  O1  UNL     1     -18.319  -3.579  30.135  1.00  0.00    -0.309 OA
HETATM   16  C1  UNL     1     -19.288  -2.537  30.099  1.00  0.00     0.215 C 
ENDBRANCH  12  15
ENDBRANCH   1  11
BRANCH  10  17
HETATM   17  O4  UNL     1     -14.598  -5.784  28.121  1.00  0.00    -0.395 OA
ATOM     18  H4  UNL     1     -15.262  -6.209  28.651  1.00  0.00     0.210 HD
ENDBRANCH  10  17
BRANCH   8  19
HETATM   19  O3  UNL     1     -14.996  -6.931  31.262  1.00  0.00    -0.395 OA
ATOM     20  H3  UNL     1     -15.593  -6.529  31.881  1.00  0.00     0.210 HD
ENDBRANCH   8  19
TORSDOF 4
ENDMDL
