MODEL 1
REMARK VINA RESULT: -6.838935033      0.000      0.000
REMARK  5 active torsions:
REMARK  status: ('A' for Active; 'I' for Inactive)
REMARK    1  A    between atoms: C2_2  and  N1_4 
REMARK    2  A    between atoms: C2_2  and  C6_10 
REMARK    3  A    between atoms: N1_4  and  C4_7 
REMARK    4  A    between atoms: C8_12  and  O1_13 
REMARK    5  A    between atoms: C10_16  and  O2_17 
ROOT
HETATM    1  C4  UNL     1     -15.135  -5.222  29.632  1.00  0.00     0.356 C 
HETATM    2  C5  UNL     1     -15.354  -6.102  28.474  1.00  0.00     0.086 C 
HETATM    3  N2  UNL     1     -15.532  -6.794  27.547  1.00  0.00    -0.196 NA
ENDROOT
BRANCH   1   4
HETATM    4  N1  UNL     1     -15.081  -3.861  29.120  1.00  0.00    -0.055 N 
ATOM      5  H12 UNL     1     -15.214  -3.832  28.109  1.00  0.00     0.279 HD
ATOM      6  H11 UNL     1     -14.136  -3.480  29.161  1.00  0.00     0.279 HD
BRANCH   4   7
HETATM    7  C2  UNL     1     -16.042  -3.004  29.818  1.00  0.00     0.123 C 
HETATM    8  C1  UNL     1     -15.647  -1.597  29.561  1.00  0.00     0.046 C 
HETATM    9  C3  UNL     1     -15.921  -3.229  31.331  1.00  0.00     0.046 C 
BRANCH   7  10
HETATM   10  C6  UNL     1     -17.400  -3.418  29.449  1.00  0.00     0.028 C 
HETATM   11  C7  UNL     1     -18.372  -3.471  30.622  1.00  0.00     0.039 C 
HETATM   12  C8  UNL     1     -19.705  -2.915  30.077  1.00  0.00     0.125 C 
HETATM   13  C9  UNL     1     -19.528  -3.263  28.682  1.00  0.00     0.048 C 
HETATM   14  C10 UNL     1     -20.343  -2.835  27.601  1.00  0.00     0.125 C 
HETATM   15  C13 UNL     1     -18.138  -2.634  28.434  1.00  0.00     0.001 C 
HETATM   16  C11 UNL     1     -19.375  -2.671  26.449  1.00  0.00     0.032 C 
HETATM   17  C12 UNL     1     -17.974  -2.966  27.009  1.00  0.00     0.008 C 
BRANCH  12  18
HETATM   18  O1  UNL     1     -19.728  -1.596  30.425  1.00  0.00    -0.395 OA
ATOM     19  H1  UNL     1     -20.444  -1.210  29.934  1.00  0.00     0.210 HD
ENDBRANCH  12  18
BRANCH  14  20
HETATM   20  O2  UNL     1     -21.156  -1.722  27.768  1.00  0.00    -0.395 OA
ATOM     21  H2  UNL     1     -21.659  -1.403  27.028  1.00  0.00     0.210 HD
ENDBRANCH  14  20
ENDBRANCH   7  10
ENDBRANCH   4   7
ENDBRANCH   1   4
TORSDOF 5
ENDMDL
MODEL 2
REMARK VINA RESULT: -6.551859879      3.686      5.990
REMARK  5 active torsions:
REMARK  status: ('A' for Active; 'I' for Inactive)
REMARK    1  A    between atoms: C2_2  and  N1_4 
REMARK    2  A    between atoms: C2_2  and  C6_10 
REMARK    3  A    between atoms: N1_4  and  C4_7 
REMARK    4  A    between atoms: C8_12  and  O1_13 
REMARK    5  A    between atoms: C10_16  and  O2_17 
ROOT
HETATM    1  C4  UNL     1     -17.316  -2.440  30.183  1.00  0.00     0.356 C 
HETATM    2  C5  UNL     1     -18.368  -3.084  29.382  1.00  0.00     0.086 C 
HETATM    3  N2  UNL     1     -19.199  -3.596  28.737  1.00  0.00    -0.196 NA
ENDROOT
BRANCH   1   4
HETATM    4  N1  UNL     1     -16.061  -2.657  29.479  1.00  0.00    -0.055 N 
ATOM      5  H12 UNL     1     -15.681  -1.786  29.108  1.00  0.00     0.279 HD
ATOM      6  H11 UNL     1     -16.203  -3.149  28.597  1.00  0.00     0.279 HD
BRANCH   4   7
HETATM    7  C2  UNL     1     -15.096  -3.348  30.336  1.00  0.00     0.123 C 
HETATM    8  C1  UNL     1     -15.293  -2.844  31.718  1.00  0.00     0.046 C 
HETATM    9  C3  UNL     1     -13.672  -2.958  29.920  1.00  0.00     0.046 C 
BRANCH   7  10
HETATM   10  C6  UNL     1     -15.210  -4.793  30.108  1.00  0.00     0.028 C 
HETATM   11  C7  UNL     1     -15.357  -5.178  28.640  1.00  0.00     0.039 C 
HETATM   12  C8  UNL     1     -14.501  -6.451  28.461  1.00  0.00     0.125 C 
HETATM   13  C9  UNL     1     -14.573  -6.949  29.819  1.00  0.00     0.048 C 
HETATM   14  C10 UNL     1     -13.809  -8.015  30.363  1.00  0.00     0.125 C 
HETATM   15  C13 UNL     1     -14.128  -5.682  30.584  1.00  0.00     0.001 C 
HETATM   16  C11 UNL     1     -13.559  -7.600  31.796  1.00  0.00     0.032 C 
HETATM   17  C12 UNL     1     -14.176  -6.201  31.961  1.00  0.00     0.008 C 
BRANCH  12  18
HETATM   18  O1  UNL     1     -13.297  -6.024  27.983  1.00  0.00    -0.395 OA
ATOM     19  H1  UNL     1     -12.642  -6.387  28.569  1.00  0.00     0.210 HD
ENDBRANCH  12  18
BRANCH  14  20
HETATM   20  O2  UNL     1     -12.645  -8.408  29.718  1.00  0.00    -0.395 OA
ATOM     21  H2  UNL     1     -12.673  -9.147  29.121  1.00  0.00     0.210 HD
ENDBRANCH  14  20
ENDBRANCH   7  10
ENDBRANCH   4   7
ENDBRANCH   1   4
TORSDOF 5
ENDMDL
MODEL 3
REMARK VINA RESULT: -6.255569120      4.308      6.433
REMARK  5 active torsions:
REMARK  status: ('A' for Active; 'I' for Inactive)
REMARK    1  A    between atoms: C2_2  and  N1_4 
REMARK    2  A    between atoms: C2_2  and  C6_10 
REMARK    3  A    between atoms: N1_4  and  C4_7 
REMARK    4  A    between atoms: C8_12  and  O1_13 
REMARK    5  A    between atoms: C10_16  and  O2_17 
ROOT
HETATM    1  C4  UNL     1     -14.324  -2.896  33.073  1.00  0.00     0.356 C 
HETATM    2  C5  UNL     1     -14.777  -3.440  34.362  1.00  0.00     0.086 C 
HETATM    3  N2  UNL     1     -15.147  -3.872  35.385  1.00  0.00    -0.196 NA
ENDROOT
BRANCH   1   4
HETATM    4  N1  UNL     1     -15.379  -3.169  32.109  1.00  0.00    -0.055 N 
ATOM      5  H12 UNL     1     -16.083  -2.431  32.099  1.00  0.00     0.279 HD
ATOM      6  H11 UNL     1     -15.973  -3.943  32.408  1.00  0.00     0.279 HD
BRANCH   4   7
HETATM    7  C2  UNL     1     -14.818  -3.401  30.776  1.00  0.00     0.123 C 
HETATM    8  C1  UNL     1     -13.436  -2.861  30.779  1.00  0.00     0.046 C 
HETATM    9  C3  UNL     1     -15.609  -2.589  29.742  1.00  0.00     0.046 C 
BRANCH   7  10
HETATM   10  C6  UNL     1     -15.007  -4.812  30.421  1.00  0.00     0.028 C 
HETATM   11  C7  UNL     1     -15.219  -5.053  28.931  1.00  0.00     0.039 C 
HETATM   12  C8  UNL     1     -14.430  -6.341  28.608  1.00  0.00     0.125 C 
HETATM   13  C9  UNL     1     -14.482  -6.958  29.916  1.00  0.00     0.048 C 
HETATM   14  C10 UNL     1     -13.752  -8.102  30.333  1.00  0.00     0.125 C 
HETATM   15  C13 UNL     1     -13.953  -5.787  30.776  1.00  0.00     0.001 C 
HETATM   16  C11 UNL     1     -13.437  -7.832  31.789  1.00  0.00     0.032 C 
HETATM   17  C12 UNL     1     -13.982  -6.428  32.101  1.00  0.00     0.008 C 
BRANCH  12  18
HETATM   18  O1  UNL     1     -13.222  -5.925  28.127  1.00  0.00    -0.395 OA
ATOM     19  H1  UNL     1     -13.281  -4.978  28.063  1.00  0.00     0.210 HD
ENDBRANCH  12  18
BRANCH  14  20
HETATM   20  O2  UNL     1     -12.627  -8.485  29.614  1.00  0.00    -0.395 OA
ATOM     21  H2  UNL     1     -12.310  -9.377  29.692  1.00  0.00     0.210 HD
ENDBRANCH  14  20
ENDBRANCH   7  10
ENDBRANCH   4   7
ENDBRANCH   1   4
TORSDOF 5
ENDMDL
MODEL 4
REMARK VINA RESULT: -6.221589314      1.387      1.813
REMARK  5 active torsions:
REMARK  status: ('A' for Active; 'I' for Inactive)
REMARK    1  A    between atoms: C2_2  and  N1_4 
REMARK    2  A    between atoms: C2_2  and  C6_10 
REMARK    3  A    between atoms: N1_4  and  C4_7 
REMARK    4  A    between atoms: C8_12  and  O1_13 
REMARK    5  A    between atoms: C10_16  and  O2_17 
ROOT
HETATM    1  C4  UNL     1     -13.899  -3.947  30.464  1.00  0.00     0.356 C 
HETATM    2  C5  UNL     1     -12.496  -3.743  30.073  1.00  0.00     0.086 C 
HETATM    3  N2  UNL     1     -11.383  -3.581  29.752  1.00  0.00    -0.196 NA
ENDROOT
BRANCH   1   4
HETATM    4  N1  UNL     1     -14.716  -3.495  29.347  1.00  0.00    -0.055 N 
ATOM      5  H12 UNL     1     -15.090  -4.278  28.812  1.00  0.00     0.279 HD
ATOM      6  H11 UNL     1     -14.150  -3.067  28.615  1.00  0.00     0.279 HD
BRANCH   4   7
HETATM    7  C2  UNL     1     -15.776  -2.597  29.808  1.00  0.00     0.123 C 
HETATM    8  C1  UNL     1     -15.466  -1.243  29.286  1.00  0.00     0.046 C 
HETATM    9  C3  UNL     1     -15.735  -2.503  31.338  1.00  0.00     0.046 C 
BRANCH   7  10
HETATM   10  C6  UNL     1     -17.076  -3.185  29.467  1.00  0.00     0.028 C 
HETATM   11  C7  UNL     1     -17.920  -3.566  30.678  1.00  0.00     0.039 C 
HETATM   12  C8  UNL     1     -19.369  -3.181  30.306  1.00  0.00     0.125 C 
HETATM   13  C9  UNL     1     -19.259  -3.299  28.867  1.00  0.00     0.048 C 
HETATM   14  C10 UNL     1     -20.224  -2.875  27.915  1.00  0.00     0.125 C 
HETATM   15  C13 UNL     1     -18.017  -2.410  28.628  1.00  0.00     0.001 C 
HETATM   16  C11 UNL     1     -19.400  -2.390  26.742  1.00  0.00     0.032 C 
HETATM   17  C12 UNL     1     -17.925  -2.511  27.163  1.00  0.00     0.008 C 
BRANCH  12  18
HETATM   18  O1  UNL     1     -19.575  -1.945  30.848  1.00  0.00    -0.395 OA
ATOM     19  H1  UNL     1     -19.685  -1.355  30.112  1.00  0.00     0.210 HD
ENDBRANCH  12  18
BRANCH  14  20
HETATM   20  O2  UNL     1     -21.189  -1.953  28.296  1.00  0.00    -0.395 OA
ATOM     21  H2  UNL     1     -21.868  -1.712  27.677  1.00  0.00     0.210 HD
ENDBRANCH  14  20
ENDBRANCH   7  10
ENDBRANCH   4   7
ENDBRANCH   1   4
TORSDOF 5
ENDMDL
MODEL 5
REMARK VINA RESULT: -6.068982087      3.212      4.999
REMARK  5 active torsions:
REMARK  status: ('A' for Active; 'I' for Inactive)
REMARK    1  A    between atoms: C2_2  and  N1_4 
REMARK    2  A    between atoms: C2_2  and  C6_10 
REMARK    3  A    between atoms: N1_4  and  C4_7 
REMARK    4  A    between atoms: C8_12  and  O1_13 
REMARK    5  A    between atoms: C10_16  and  O2_17 
ROOT
HETATM    1  C4  UNL     1     -12.127  -4.381  31.453  1.00  0.00     0.356 C 
HETATM    2  C5  UNL     1     -11.000  -3.706  30.791  1.00  0.00     0.086 C 
HETATM    3  N2  UNL     1     -10.099  -3.178  30.264  1.00  0.00    -0.196 NA
ENDROOT
BRANCH   1   4
HETATM    4  N1  UNL     1     -12.019  -5.795  31.125  1.00  0.00    -0.055 N 
ATOM      5  H12 UNL     1     -11.524  -6.315  31.849  1.00  0.00     0.279 HD
ATOM      6  H11 UNL     1     -11.372  -5.955  30.353  1.00  0.00     0.279 HD
BRANCH   4   7
HETATM    7  C2  UNL     1     -13.339  -6.368  30.853  1.00  0.00     0.123 C 
HETATM    8  C1  UNL     1     -14.010  -6.571  32.161  1.00  0.00     0.046 C 
HETATM    9  C3  UNL     1     -13.174  -7.754  30.219  1.00  0.00     0.046 C 
BRANCH   7  10
HETATM   10  C6  UNL     1     -14.018  -5.537  29.852  1.00  0.00     0.028 C 
HETATM   11  C7  UNL     1     -14.002  -6.124  28.446  1.00  0.00     0.039 C 
HETATM   12  C8  UNL     1     -15.400  -5.825  27.860  1.00  0.00     0.125 C 
HETATM   13  C9  UNL     1     -15.708  -4.641  28.635  1.00  0.00     0.048 C 
HETATM   14  C10 UNL     1     -16.967  -3.988  28.704  1.00  0.00     0.125 C 
HETATM   15  C13 UNL     1     -15.441  -5.186  30.057  1.00  0.00     0.001 C 
HETATM   16  C11 UNL     1     -17.050  -3.489  30.130  1.00  0.00     0.032 C 
HETATM   17  C12 UNL     1     -15.782  -3.989  30.843  1.00  0.00     0.008 C 
BRANCH  12  18
HETATM   18  O1  UNL     1     -16.138  -6.954  28.067  1.00  0.00    -0.395 OA
ATOM     19  H1  UNL     1     -16.583  -7.127  27.245  1.00  0.00     0.210 HD
ENDBRANCH  12  18
BRANCH  14  20
HETATM   20  O2  UNL     1     -18.108  -4.680  28.321  1.00  0.00    -0.395 OA
ATOM     21  H2  UNL     1     -18.961  -4.322  28.540  1.00  0.00     0.210 HD
ENDBRANCH  14  20
ENDBRANCH   7  10
ENDBRANCH   4   7
ENDBRANCH   1   4
TORSDOF 5
ENDMDL
