MODEL 1
REMARK VINA RESULT: -8.414497123      0.000      0.000
REMARK  12 active torsions:
REMARK  status: ('A' for Active; 'I' for Inactive)
REMARK    1  A    between atoms: S1_2  and  C2_3 
REMARK    2  A    between atoms: C2_3  and  C3_4 
REMARK    3  A    between atoms: C2_3  and  N5_32 
REMARK    4  A    between atoms: C3_4  and  C4_5 
REMARK    5  A    between atoms: C4_5  and  S2_6 
REMARK    6  A    between atoms: S2_6  and  C5_7 
REMARK    7  A    between atoms: C5_7  and  C6_8 
REMARK    8  A    between atoms: C6_8  and  C7_9 
REMARK    9  A    between atoms: C10_14  and  C11_15 
REMARK   10  A    between atoms: C13_17  and  S3_18 
REMARK   11  A    between atoms: S3_18  and  N2_21 
REMARK   12  A    between atoms: N5_32  and  S4_34 
ROOT
HETATM    1  C7  UNL     1      17.345  23.379  19.407  1.00  0.00     0.035 A 
HETATM    2  C8  UNL     1      17.693  22.134  19.860  1.00  0.00     0.029 A 
HETATM    3  C9  UNL     1      18.791  21.743  20.794  1.00  0.00     0.070 C 
HETATM    4  N1  UNL     1      16.831  21.284  19.292  1.00  0.00    -0.344 N 
ATOM      5  H1  UNL     1      16.836  20.274  19.437  1.00  0.00     0.167 HD
HETATM    6  C10 UNL     1      15.942  21.943  18.491  1.00  0.00     0.120 A 
HETATM    7  N4  UNL     1      16.271  23.233  18.572  1.00  0.00    -0.339 N 
HETATM    8  C20 UNL     1      15.588  24.305  17.883  1.00  0.00     0.158 C 
ENDROOT
BRANCH   6   9
HETATM    9  C11 UNL     1      14.888  21.261  17.743  1.00  0.00     0.033 A 
HETATM   10  C12 UNL     1      13.751  20.646  18.219  1.00  0.00     0.060 A 
HETATM   11  C13 UNL     1      13.009  20.126  17.157  1.00  0.00     0.145 A 
HETATM   12  N3  UNL     1      13.693  20.427  16.041  1.00  0.00    -0.349 N 
HETATM   13  C18 UNL     1      14.812  21.101  16.374  1.00  0.00     0.020 A 
ATOM     14  H3  UNL     1      13.411  20.183  15.092  1.00  0.00     0.166 HD
HETATM   15  C19 UNL     1      15.845  21.621  15.430  1.00  0.00     0.069 C 
BRANCH  11  16
HETATM   16  S3  UNL     1      11.517  19.256  17.210  1.00  0.00     0.259 S 
HETATM   17  O1  UNL     1      10.988  18.932  15.843  1.00  0.00    -0.204 OA
HETATM   18  O2  UNL     1      10.492  20.125  17.917  1.00  0.00    -0.204 OA
BRANCH  16  19
HETATM   19  N2  UNL     1      11.671  17.816  18.134  1.00  0.00    -0.205 NA
HETATM   20  C14 UNL     1      13.026  17.436  18.369  1.00  0.00     0.107 C 
HETATM   21  C15 UNL     1      13.321  17.744  19.831  1.00  0.00     0.017 C 
HETATM   22  C16 UNL     1      12.023  18.151  20.465  1.00  0.00     0.017 C 
HETATM   23  C17 UNL     1      11.010  17.877  19.400  1.00  0.00     0.107 C 
ENDBRANCH  16  19
ENDBRANCH  11  16
ENDBRANCH   6   9
BRANCH   1  24
HETATM   24  C6  UNL     1      17.982  24.654  19.764  1.00  0.00     0.069 C 
BRANCH  24  25
HETATM   25  C5  UNL     1      19.180  24.952  18.860  1.00  0.00     0.080 C 
BRANCH  25  26
HETATM   26  S2  UNL     1      20.671  25.015  19.842  1.00  0.00    -0.169 SA
BRANCH  26  27
HETATM   27  C4  UNL     1      21.620  26.539  19.639  1.00  0.00     0.076 C 
BRANCH  27  28
HETATM   28  C3  UNL     1      20.892  27.509  18.697  1.00  0.00     0.047 C 
BRANCH  28  29
HETATM   29  C2  UNL     1      21.655  27.630  17.389  1.00  0.00     0.154 C 
BRANCH  29  30
HETATM   30  S1  UNL     1      23.429  27.279  17.711  1.00  0.00    -0.148 SA
HETATM   31  C1  UNL     1      24.259  26.896  16.154  1.00  0.00     0.092 C 
ENDBRANCH  29  30
BRANCH  29  32
HETATM   32  N5  UNL     1      21.204  26.731  16.376  1.00  0.00    -0.306 N 
ATOM     33  H5  UNL     1      21.287  25.715  16.412  1.00  0.00     0.173 HD
BRANCH  32  34
HETATM   34  S4  UNL     1      20.500  27.627  15.083  1.00  0.00     0.223 S 
HETATM   35  C21 UNL     1      18.951  26.871  14.608  1.00  0.00     0.186 C 
HETATM   36  O3  UNL     1      21.453  27.598  13.912  1.00  0.00    -0.206 OA
HETATM   37  O4  UNL     1      20.194  29.041  15.474  1.00  0.00    -0.206 OA
ENDBRANCH  32  34
ENDBRANCH  29  32
ENDBRANCH  28  29
ENDBRANCH  27  28
ENDBRANCH  26  27
ENDBRANCH  25  26
ENDBRANCH  24  25
ENDBRANCH   1  24
TORSDOF 12
ENDMDL
MODEL 2
REMARK VINA RESULT: -8.226199756      1.689      2.488
REMARK  12 active torsions:
REMARK  status: ('A' for Active; 'I' for Inactive)
REMARK    1  A    between atoms: S1_2  and  C2_3 
REMARK    2  A    between atoms: C2_3  and  C3_4 
REMARK    3  A    between atoms: C2_3  and  N5_32 
REMARK    4  A    between atoms: C3_4  and  C4_5 
REMARK    5  A    between atoms: C4_5  and  S2_6 
REMARK    6  A    between atoms: S2_6  and  C5_7 
REMARK    7  A    between atoms: C5_7  and  C6_8 
REMARK    8  A    between atoms: C6_8  and  C7_9 
REMARK    9  A    between atoms: C10_14  and  C11_15 
REMARK   10  A    between atoms: C13_17  and  S3_18 
REMARK   11  A    between atoms: S3_18  and  N2_21 
REMARK   12  A    between atoms: N5_32  and  S4_34 
ROOT
HETATM    1  C7  UNL     1      17.393  23.468  16.714  1.00  0.00     0.035 A 
HETATM    2  C8  UNL     1      16.558  24.316  16.037  1.00  0.00     0.029 A 
HETATM    3  C9  UNL     1      16.773  25.743  15.649  1.00  0.00     0.070 C 
HETATM    4  N1  UNL     1      15.457  23.607  15.767  1.00  0.00    -0.344 N 
ATOM      5  H1  UNL     1      14.645  23.970  15.267  1.00  0.00     0.167 HD
HETATM    6  C10 UNL     1      15.559  22.333  16.248  1.00  0.00     0.120 A 
HETATM    7  N4  UNL     1      16.758  22.262  16.829  1.00  0.00    -0.339 N 
HETATM    8  C20 UNL     1      17.296  21.085  17.473  1.00  0.00     0.158 C 
ENDROOT
BRANCH   6   9
HETATM    9  C11 UNL     1      14.500  21.338  16.098  1.00  0.00     0.033 A 
HETATM   10  C12 UNL     1      13.674  20.802  17.063  1.00  0.00     0.060 A 
HETATM   11  C13 UNL     1      12.794  19.887  16.484  1.00  0.00     0.145 A 
HETATM   12  N3  UNL     1      13.083  19.869  15.172  1.00  0.00    -0.349 N 
HETATM   13  C18 UNL     1      14.095  20.726  14.929  1.00  0.00     0.020 A 
ATOM     14  H3  UNL     1      12.612  19.298  14.471  1.00  0.00     0.166 HD
HETATM   15  C19 UNL     1      14.716  21.007  13.600  1.00  0.00     0.069 C 
BRANCH  11  16
HETATM   16  S3  UNL     1      11.571  18.936  17.250  1.00  0.00     0.259 S 
HETATM   17  O1  UNL     1      10.568  18.390  16.276  1.00  0.00    -0.204 OA
HETATM   18  O2  UNL     1      10.833  19.826  18.235  1.00  0.00    -0.204 OA
BRANCH  16  19
HETATM   19  N2  UNL     1      12.263  17.654  18.160  1.00  0.00    -0.205 NA
HETATM   20  C14 UNL     1      13.674  17.776  18.328  1.00  0.00     0.107 C 
HETATM   21  C15 UNL     1      13.910  18.186  19.775  1.00  0.00     0.017 C 
HETATM   22  C16 UNL     1      12.582  18.121  20.473  1.00  0.00     0.017 C 
HETATM   23  C17 UNL     1      11.682  17.496  19.456  1.00  0.00     0.107 C 
ENDBRANCH  16  19
ENDBRANCH  11  16
ENDBRANCH   6   9
BRANCH   1  24
HETATM   24  C6  UNL     1      18.742  23.774  17.212  1.00  0.00     0.069 C 
BRANCH  24  25
HETATM   25  C5  UNL     1      18.691  24.688  18.437  1.00  0.00     0.080 C 
BRANCH  25  26
HETATM   26  S2  UNL     1      19.753  24.034  19.716  1.00  0.00    -0.169 SA
BRANCH  26  27
HETATM   27  C4  UNL     1      20.889  25.251  20.421  1.00  0.00     0.076 C 
BRANCH  27  28
HETATM   28  C3  UNL     1      22.270  25.148  19.761  1.00  0.00     0.047 C 
BRANCH  28  29
HETATM   29  C2  UNL     1      22.499  26.342  18.849  1.00  0.00     0.154 C 
BRANCH  29  30
HETATM   30  S1  UNL     1      24.301  26.697  18.792  1.00  0.00    -0.148 SA
HETATM   31  C1  UNL     1      24.941  26.302  17.151  1.00  0.00     0.092 C 
ENDBRANCH  29  30
BRANCH  29  32
HETATM   32  N5  UNL     1      22.048  26.136  17.510  1.00  0.00    -0.306 N 
ATOM     33  H5  UNL     1      22.249  25.314  16.941  1.00  0.00     0.173 HD
BRANCH  32  34
HETATM   34  S4  UNL     1      21.111  27.492  17.005  1.00  0.00     0.223 S 
HETATM   35  C21 UNL     1      22.135  28.601  16.047  1.00  0.00     0.186 C 
HETATM   36  O3  UNL     1      20.612  28.208  18.238  1.00  0.00    -0.206 OA
HETATM   37  O4  UNL     1      19.962  27.093  16.131  1.00  0.00    -0.206 OA
ENDBRANCH  32  34
ENDBRANCH  29  32
ENDBRANCH  28  29
ENDBRANCH  27  28
ENDBRANCH  26  27
ENDBRANCH  25  26
ENDBRANCH  24  25
ENDBRANCH   1  24
TORSDOF 12
ENDMDL
MODEL 3
REMARK VINA RESULT: -8.224379071      1.338      2.194
REMARK  12 active torsions:
REMARK  status: ('A' for Active; 'I' for Inactive)
REMARK    1  A    between atoms: S1_2  and  C2_3 
REMARK    2  A    between atoms: C2_3  and  C3_4 
REMARK    3  A    between atoms: C2_3  and  N5_32 
REMARK    4  A    between atoms: C3_4  and  C4_5 
REMARK    5  A    between atoms: C4_5  and  S2_6 
REMARK    6  A    between atoms: S2_6  and  C5_7 
REMARK    7  A    between atoms: C5_7  and  C6_8 
REMARK    8  A    between atoms: C6_8  and  C7_9 
REMARK    9  A    between atoms: C10_14  and  C11_15 
REMARK   10  A    between atoms: C13_17  and  S3_18 
REMARK   11  A    between atoms: S3_18  and  N2_21 
REMARK   12  A    between atoms: N5_32  and  S4_34 
ROOT
HETATM    1  C7  UNL     1      17.331  23.420  19.463  1.00  0.00     0.035 A 
HETATM    2  C8  UNL     1      17.685  22.177  19.918  1.00  0.00     0.029 A 
HETATM    3  C9  UNL     1      18.773  21.794  20.866  1.00  0.00     0.070 C 
HETATM    4  N1  UNL     1      16.839  21.320  19.334  1.00  0.00    -0.344 N 
ATOM      5  H1  UNL     1      16.852  20.310  19.478  1.00  0.00     0.167 HD
HETATM    6  C10 UNL     1      15.956  21.972  18.522  1.00  0.00     0.120 A 
HETATM    7  N4  UNL     1      16.271  23.265  18.612  1.00  0.00    -0.339 N 
HETATM    8  C20 UNL     1      15.587  24.333  17.916  1.00  0.00     0.158 C 
ENDROOT
BRANCH   6   9
HETATM    9  C11 UNL     1      14.920  21.282  17.757  1.00  0.00     0.033 A 
HETATM   10  C12 UNL     1      13.777  20.663  18.215  1.00  0.00     0.060 A 
HETATM   11  C13 UNL     1      13.058  20.135  17.141  1.00  0.00     0.145 A 
HETATM   12  N3  UNL     1      13.761  20.435  16.037  1.00  0.00    -0.349 N 
HETATM   13  C18 UNL     1      14.870  21.116  16.388  1.00  0.00     0.020 A 
ATOM     14  H3  UNL     1      13.498  20.187  15.083  1.00  0.00     0.166 HD
HETATM   15  C19 UNL     1      15.918  21.639  15.462  1.00  0.00     0.069 C 
BRANCH  11  16
HETATM   16  S3  UNL     1      11.569  19.258  17.169  1.00  0.00     0.259 S 
HETATM   17  O1  UNL     1      11.064  18.933  15.794  1.00  0.00    -0.204 OA
HETATM   18  O2  UNL     1      10.528  20.121  17.861  1.00  0.00    -0.204 OA
BRANCH  16  19
HETATM   19  N2  UNL     1      11.716  17.818  18.095  1.00  0.00    -0.205 NA
HETATM   20  C14 UNL     1      13.068  17.456  18.369  1.00  0.00     0.107 C 
HETATM   21  C15 UNL     1      13.316  17.765  19.839  1.00  0.00     0.017 C 
HETATM   22  C16 UNL     1      11.994  18.152  20.436  1.00  0.00     0.017 C 
HETATM   23  C17 UNL     1      11.017  17.867  19.341  1.00  0.00     0.107 C 
ENDBRANCH  16  19
ENDBRANCH  11  16
ENDBRANCH   6   9
BRANCH   1  24
HETATM   24  C6  UNL     1      17.950  24.700  19.832  1.00  0.00     0.069 C 
BRANCH  24  25
HETATM   25  C5  UNL     1      19.368  24.817  19.270  1.00  0.00     0.080 C 
BRANCH  25  26
HETATM   26  S2  UNL     1      19.292  25.080  17.504  1.00  0.00    -0.169 SA
BRANCH  26  27
HETATM   27  C4  UNL     1      20.322  26.445  16.920  1.00  0.00     0.076 C 
BRANCH  27  28
HETATM   28  C3  UNL     1      20.701  27.373  18.083  1.00  0.00     0.047 C 
BRANCH  28  29
HETATM   29  C2  UNL     1      22.202  27.320  18.319  1.00  0.00     0.154 C 
BRANCH  29  30
HETATM   30  S1  UNL     1      22.502  27.017  20.106  1.00  0.00    -0.148 SA
HETATM   31  C1  UNL     1      21.253  27.882  21.081  1.00  0.00     0.092 C 
ENDBRANCH  29  30
BRANCH  29  32
HETATM   32  N5  UNL     1      22.863  26.294  17.580  1.00  0.00    -0.306 N 
ATOM     33  H5  UNL     1      22.667  25.295  17.654  1.00  0.00     0.173 HD
BRANCH  32  34
HETATM   34  S4  UNL     1      24.044  27.002  16.543  1.00  0.00     0.223 S 
HETATM   35  C21 UNL     1      24.954  28.251  17.441  1.00  0.00     0.186 C 
HETATM   36  O3  UNL     1      23.327  27.643  15.378  1.00  0.00    -0.206 OA
HETATM   37  O4  UNL     1      25.044  25.999  16.054  1.00  0.00    -0.206 OA
ENDBRANCH  32  34
ENDBRANCH  29  32
ENDBRANCH  28  29
ENDBRANCH  27  28
ENDBRANCH  26  27
ENDBRANCH  25  26
ENDBRANCH  24  25
ENDBRANCH   1  24
TORSDOF 12
ENDMDL
MODEL 4
REMARK VINA RESULT: -8.209100022      1.048      1.716
REMARK  12 active torsions:
REMARK  status: ('A' for Active; 'I' for Inactive)
REMARK    1  A    between atoms: S1_2  and  C2_3 
REMARK    2  A    between atoms: C2_3  and  C3_4 
REMARK    3  A    between atoms: C2_3  and  N5_32 
REMARK    4  A    between atoms: C3_4  and  C4_5 
REMARK    5  A    between atoms: C4_5  and  S2_6 
REMARK    6  A    between atoms: S2_6  and  C5_7 
REMARK    7  A    between atoms: C5_7  and  C6_8 
REMARK    8  A    between atoms: C6_8  and  C7_9 
REMARK    9  A    between atoms: C10_14  and  C11_15 
REMARK   10  A    between atoms: C13_17  and  S3_18 
REMARK   11  A    between atoms: S3_18  and  N2_21 
REMARK   12  A    between atoms: N5_32  and  S4_34 
ROOT
HETATM    1  C7  UNL     1      17.341  23.410  17.991  1.00  0.00     0.035 A 
HETATM    2  C8  UNL     1      16.545  24.344  17.384  1.00  0.00     0.029 A 
HETATM    3  C9  UNL     1      16.762  25.815  17.235  1.00  0.00     0.070 C 
HETATM    4  N1  UNL     1      15.483  23.676  16.922  1.00  0.00    -0.344 N 
ATOM      5  H1  UNL     1      14.706  24.104  16.417  1.00  0.00     0.167 HD
HETATM    6  C10 UNL     1      15.572  22.344  17.212  1.00  0.00     0.120 A 
HETATM    7  N4  UNL     1      16.722  22.196  17.871  1.00  0.00    -0.339 N 
HETATM    8  C20 UNL     1      17.230  20.938  18.373  1.00  0.00     0.158 C 
ENDROOT
BRANCH   6   9
HETATM    9  C11 UNL     1      14.548  21.376  16.828  1.00  0.00     0.033 A 
HETATM   10  C12 UNL     1      13.637  20.718  17.627  1.00  0.00     0.060 A 
HETATM   11  C13 UNL     1      12.833  19.885  16.848  1.00  0.00     0.145 A 
HETATM   12  N3  UNL     1      13.253  20.038  15.582  1.00  0.00    -0.349 N 
HETATM   13  C18 UNL     1      14.271  20.920  15.555  1.00  0.00     0.020 A 
ATOM     14  H3  UNL     1      12.863  19.561  14.768  1.00  0.00     0.166 HD
HETATM   15  C19 UNL     1      15.018  21.372  14.343  1.00  0.00     0.069 C 
BRANCH  11  16
HETATM   16  S3  UNL     1      11.554  18.841  17.357  1.00  0.00     0.259 S 
HETATM   17  O1  UNL     1      10.684  18.394  16.218  1.00  0.00    -0.204 OA
HETATM   18  O2  UNL     1      10.684  19.607  18.339  1.00  0.00    -0.204 OA
BRANCH  16  19
HETATM   19  N2  UNL     1      12.166  17.473  18.198  1.00  0.00    -0.205 NA
HETATM   20  C14 UNL     1      13.564  17.555  18.469  1.00  0.00     0.107 C 
HETATM   21  C15 UNL     1      13.707  17.838  19.958  1.00  0.00     0.017 C 
HETATM   22  C16 UNL     1      12.335  17.737  20.558  1.00  0.00     0.017 C 
HETATM   23  C17 UNL     1      11.497  17.217  19.435  1.00  0.00     0.107 C 
ENDBRANCH  16  19
ENDBRANCH  11  16
ENDBRANCH   6   9
BRANCH   1  24
HETATM   24  C6  UNL     1      18.639  23.647  18.638  1.00  0.00     0.069 C 
BRANCH  24  25
HETATM   25  C5  UNL     1      18.466  24.121  20.082  1.00  0.00     0.080 C 
BRANCH  25  26
HETATM   26  S2  UNL     1      19.925  25.014  20.598  1.00  0.00    -0.169 SA
BRANCH  26  27
HETATM   27  C4  UNL     1      20.997  25.519  19.234  1.00  0.00     0.076 C 
BRANCH  27  28
HETATM   28  C3  UNL     1      20.905  27.034  19.005  1.00  0.00     0.047 C 
BRANCH  28  29
HETATM   29  C2  UNL     1      21.218  27.359  17.554  1.00  0.00     0.154 C 
BRANCH  29  30
HETATM   30  S1  UNL     1      23.009  27.073  17.265  1.00  0.00    -0.148 SA
HETATM   31  C1  UNL     1      23.727  28.520  16.459  1.00  0.00     0.092 C 
ENDBRANCH  29  30
BRANCH  29  32
HETATM   32  N5  UNL     1      20.488  26.567  16.618  1.00  0.00    -0.306 N 
ATOM     33  H5  UNL     1      20.155  25.616  16.784  1.00  0.00     0.173 HD
BRANCH  32  34
HETATM   34  S4  UNL     1      20.255  27.463  15.165  1.00  0.00     0.223 S 
HETATM   35  C21 UNL     1      18.702  26.991  14.415  1.00  0.00     0.186 C 
HETATM   36  O3  UNL     1      21.388  27.136  14.220  1.00  0.00    -0.206 OA
HETATM   37  O4  UNL     1      20.190  28.939  15.413  1.00  0.00    -0.206 OA
ENDBRANCH  32  34
ENDBRANCH  29  32
ENDBRANCH  28  29
ENDBRANCH  27  28
ENDBRANCH  26  27
ENDBRANCH  25  26
ENDBRANCH  24  25
ENDBRANCH   1  24
TORSDOF 12
ENDMDL
MODEL 5
REMARK VINA RESULT: -8.170467536      1.816      2.824
REMARK  12 active torsions:
REMARK  status: ('A' for Active; 'I' for Inactive)
REMARK    1  A    between atoms: S1_2  and  C2_3 
REMARK    2  A    between atoms: C2_3  and  C3_4 
REMARK    3  A    between atoms: C2_3  and  N5_32 
REMARK    4  A    between atoms: C3_4  and  C4_5 
REMARK    5  A    between atoms: C4_5  and  S2_6 
REMARK    6  A    between atoms: S2_6  and  C5_7 
REMARK    7  A    between atoms: C5_7  and  C6_8 
REMARK    8  A    between atoms: C6_8  and  C7_9 
REMARK    9  A    between atoms: C10_14  and  C11_15 
REMARK   10  A    between atoms: C13_17  and  S3_18 
REMARK   11  A    between atoms: S3_18  and  N2_21 
REMARK   12  A    between atoms: N5_32  and  S4_34 
ROOT
HETATM    1  C7  UNL     1      17.562  23.424  16.750  1.00  0.00     0.035 A 
HETATM    2  C8  UNL     1      16.743  24.292  16.077  1.00  0.00     0.029 A 
HETATM    3  C9  UNL     1      16.985  25.717  15.699  1.00  0.00     0.070 C 
HETATM    4  N1  UNL     1      15.629  23.604  15.801  1.00  0.00    -0.344 N 
ATOM      5  H1  UNL     1      14.825  23.985  15.302  1.00  0.00     0.167 HD
HETATM    6  C10 UNL     1      15.708  22.325  16.274  1.00  0.00     0.120 A 
HETATM    7  N4  UNL     1      16.904  22.230  16.856  1.00  0.00    -0.339 N 
HETATM    8  C20 UNL     1      17.420  21.038  17.494  1.00  0.00     0.158 C 
ENDROOT
BRANCH   6   9
HETATM    9  C11 UNL     1      14.631  21.351  16.116  1.00  0.00     0.033 A 
HETATM   10  C12 UNL     1      13.832  20.781  17.084  1.00  0.00     0.060 A 
HETATM   11  C13 UNL     1      12.920  19.904  16.495  1.00  0.00     0.145 A 
HETATM   12  N3  UNL     1      13.164  19.943  15.175  1.00  0.00    -0.349 N 
HETATM   13  C18 UNL     1      14.178  20.798  14.936  1.00  0.00     0.020 A 
ATOM     14  H3  UNL     1      12.662  19.409  14.465  1.00  0.00     0.166 HD
HETATM   15  C19 UNL     1      14.757  21.132  13.600  1.00  0.00     0.069 C 
BRANCH  11  16
HETATM   16  S3  UNL     1      11.712  18.934  17.259  1.00  0.00     0.259 S 
HETATM   17  O1  UNL     1      10.649  18.475  16.304  1.00  0.00    -0.204 OA
HETATM   18  O2  UNL     1      11.046  19.774  18.335  1.00  0.00    -0.204 OA
BRANCH  16  19
HETATM   19  N2  UNL     1      12.413  17.579  18.050  1.00  0.00    -0.205 NA
HETATM   20  C14 UNL     1      13.757  17.803  18.473  1.00  0.00     0.107 C 
HETATM   21  C15 UNL     1      13.721  17.964  19.986  1.00  0.00     0.017 C 
HETATM   22  C16 UNL     1      12.322  17.645  20.428  1.00  0.00     0.017 C 
HETATM   23  C17 UNL     1      11.669  17.132  19.185  1.00  0.00     0.107 C 
ENDBRANCH  16  19
ENDBRANCH  11  16
ENDBRANCH   6   9
BRANCH   1  24
HETATM   24  C6  UNL     1      18.915  23.703  17.252  1.00  0.00     0.069 C 
BRANCH  24  25
HETATM   25  C5  UNL     1      18.873  24.494  18.560  1.00  0.00     0.080 C 
BRANCH  25  26
HETATM   26  S2  UNL     1      20.522  24.620  19.236  1.00  0.00    -0.169 SA
BRANCH  26  27
HETATM   27  C4  UNL     1      21.366  26.167  18.831  1.00  0.00     0.076 C 
BRANCH  27  28
HETATM   28  C3  UNL     1      20.527  27.000  17.852  1.00  0.00     0.047 C 
BRANCH  28  29
HETATM   29  C2  UNL     1      21.366  27.376  16.642  1.00  0.00     0.154 C 
BRANCH  29  30
HETATM   30  S1  UNL     1      20.248  28.014  15.331  1.00  0.00    -0.148 SA
HETATM   31  C1  UNL     1      21.218  28.448  13.871  1.00  0.00     0.092 C 
ENDBRANCH  29  30
BRANCH  29  32
HETATM   32  N5  UNL     1      22.346  28.378  16.912  1.00  0.00    -0.306 N 
ATOM     33  H5  UNL     1      22.152  29.304  17.295  1.00  0.00     0.173 HD
BRANCH  32  34
HETATM   34  S4  UNL     1      23.908  27.782  16.493  1.00  0.00     0.223 S 
HETATM   35  C21 UNL     1      24.731  28.962  15.431  1.00  0.00     0.186 C 
HETATM   36  O3  UNL     1      23.733  26.477  15.752  1.00  0.00    -0.206 OA
HETATM   37  O4  UNL     1      24.782  27.590  17.693  1.00  0.00    -0.206 OA
ENDBRANCH  32  34
ENDBRANCH  29  32
ENDBRANCH  28  29
ENDBRANCH  27  28
ENDBRANCH  26  27
ENDBRANCH  25  26
ENDBRANCH  24  25
ENDBRANCH   1  24
TORSDOF 12
ENDMDL
