MODEL 1
REMARK VINA RESULT: -8.852660018      0.000      0.000
REMARK  11 active torsions:
REMARK  status: ('A' for Active; 'I' for Inactive)
REMARK    1  A    between atoms: C4_5  and  C5_6 
REMARK    2  A    between atoms: C5_6  and  C6_7 
REMARK    3  A    between atoms: C6_7  and  C7_8 
REMARK    4  A    between atoms: C7_8  and  C8_9 
REMARK    5  A    between atoms: C8_9  and  N1_10 
REMARK    6  A    between atoms: N1_10  and  C9_11 
REMARK    7  A    between atoms: N1_10  and  S3_29 
REMARK    8  A    between atoms: N2_17  and  C13_18 
REMARK    9  A    between atoms: C13_18  and  C14_19 
REMARK   10  A    between atoms: C21_33  and  C22_34 
REMARK   11  A    between atoms: C22_34  and  C23_35 
ROOT
HETATM    1  N1  UNL     1      17.132  23.282  15.518  1.00  0.00    -0.253 N 
ENDROOT
BRANCH   1   2
HETATM    2  C8  UNL     1      17.433  24.555  14.924  1.00  0.00     0.143 C 
BRANCH   2   3
HETATM    3  C7  UNL     1      18.317  25.463  15.684  1.00  0.00     0.021 C 
BRANCH   3   4
HETATM    4  C6  UNL     1      19.391  26.184  14.946  1.00  0.00     0.004 C 
BRANCH   4   5
HETATM    5  C5  UNL     1      20.708  25.486  14.948  1.00  0.00     0.036 C 
BRANCH   5   6
HETATM    6  C4  UNL     1      21.819  26.398  15.072  1.00  0.00     0.145 C 
HETATM    7  S1  UNL     1      21.501  28.089  14.344  1.00  0.00    -0.142 SA
HETATM    8  C3  UNL     1      23.033  28.792  15.116  1.00  0.00     0.100 C 
HETATM    9  C2  UNL     1      23.418  27.641  16.053  1.00  0.00     0.090 C 
HETATM   10  C1  UNL     1      24.222  28.072  17.224  1.00  0.00     0.033 C 
HETATM   11  N4  UNL     1      22.235  26.906  16.325  1.00  0.00    -0.374 N 
HETATM   12  C21 UNL     1      21.774  26.601  17.543  1.00  0.00     0.070 C 
BRANCH  12  13
HETATM   13  C22 UNL     1      21.303  27.678  18.506  1.00  0.00     0.157 C 
BRANCH  13  14
HETATM   14  C23 UNL     1      21.424  27.314  19.926  1.00  0.00     0.177 C 
HETATM   15  O5  UNL     1      20.939  26.230  20.320  1.00  0.00    -0.648 OA
HETATM   16  O6  UNL     1      22.055  28.121  20.858  1.00  0.00    -0.648 OA
ENDBRANCH  13  14
ENDBRANCH  12  13
ENDBRANCH   5   6
ENDBRANCH   4   5
ENDBRANCH   3   4
ENDBRANCH   2   3
ENDBRANCH   1   2
BRANCH   1  17
HETATM   17  C9  UNL     1      16.001  22.470  15.132  1.00  0.00     0.114 A 
HETATM   18  S2  UNL     1      15.480  21.966  13.595  1.00  0.00    -0.080 SA
HETATM   19  C10 UNL     1      14.101  21.070  14.044  1.00  0.00     0.071 A 
HETATM   20  C11 UNL     1      14.086  21.193  15.413  1.00  0.00     0.068 A 
HETATM   21  C12 UNL     1      13.114  20.617  16.258  1.00  0.00     0.264 A 
HETATM   22  C20 UNL     1      15.060  21.912  15.972  1.00  0.00     0.087 A 
HETATM   23  O1  UNL     1      12.174  19.926  15.773  1.00  0.00    -0.267 OA
HETATM   24  N2  UNL     1      13.127  20.759  17.588  1.00  0.00    -0.265 N 
HETATM   25  C19 UNL     1      14.131  21.495  18.131  1.00  0.00     0.330 A 
HETATM   26  O2  UNL     1      14.182  21.658  19.401  1.00  0.00    -0.246 OA
HETATM   27  N3  UNL     1      15.051  22.042  17.338  1.00  0.00    -0.305 N 
ATOM     28  H3  UNL     1      15.794  22.589  17.772  1.00  0.00     0.171 HD
BRANCH  24  29
HETATM   29  C13 UNL     1      12.145  20.214  18.503  1.00  0.00     0.142 C 
BRANCH  29  30
HETATM   30  C14 UNL     1      12.413  18.852  19.004  1.00  0.00     0.004 C 
HETATM   31  C15 UNL     1      12.797  18.686  20.436  1.00  0.00     0.006 C 
HETATM   32  C16 UNL     1      12.491  17.202  20.721  1.00  0.00     0.000 C 
HETATM   33  C17 UNL     1      11.425  16.810  19.738  1.00  0.00     0.000 C 
HETATM   34  C18 UNL     1      11.149  18.004  18.850  1.00  0.00     0.006 C 
ENDBRANCH  29  30
ENDBRANCH  24  29
ENDBRANCH   1  17
BRANCH   1  35
HETATM   35  S3  UNL     1      18.173  22.569  16.722  1.00  0.00     0.361 S 
HETATM   36  O3  UNL     1      18.129  21.084  16.528  1.00  0.00    -0.187 OA
HETATM   37  O4  UNL     1      17.738  22.958  18.108  1.00  0.00    -0.187 OA
ENDBRANCH   1  35
TORSDOF 11
ENDMDL
MODEL 2
REMARK VINA RESULT: -8.687754102      3.327      9.738
REMARK  11 active torsions:
REMARK  status: ('A' for Active; 'I' for Inactive)
REMARK    1  A    between atoms: C4_5  and  C5_6 
REMARK    2  A    between atoms: C5_6  and  C6_7 
REMARK    3  A    between atoms: C6_7  and  C7_8 
REMARK    4  A    between atoms: C7_8  and  C8_9 
REMARK    5  A    between atoms: C8_9  and  N1_10 
REMARK    6  A    between atoms: N1_10  and  C9_11 
REMARK    7  A    between atoms: N1_10  and  S3_29 
REMARK    8  A    between atoms: N2_17  and  C13_18 
REMARK    9  A    between atoms: C13_18  and  C14_19 
REMARK   10  A    between atoms: C21_33  and  C22_34 
REMARK   11  A    between atoms: C22_34  and  C23_35 
ROOT
HETATM    1  N1  UNL     1      21.449  26.761  15.160  1.00  0.00    -0.253 N 
ENDROOT
BRANCH   1   2
HETATM    2  C8  UNL     1      21.132  25.396  14.847  1.00  0.00     0.143 C 
BRANCH   2   3
HETATM    3  C7  UNL     1      20.080  24.743  15.655  1.00  0.00     0.021 C 
BRANCH   3   4
HETATM    4  C6  UNL     1      18.668  24.849  15.194  1.00  0.00     0.004 C 
BRANCH   4   5
HETATM    5  C5  UNL     1      17.719  25.323  16.240  1.00  0.00     0.036 C 
BRANCH   5   6
HETATM    6  C4  UNL     1      16.692  24.354  16.538  1.00  0.00     0.145 C 
HETATM    7  S1  UNL     1      16.698  22.867  15.407  1.00  0.00    -0.142 SA
HETATM    8  C3  UNL     1      15.503  21.948  16.486  1.00  0.00     0.100 C 
HETATM    9  C2  UNL     1      15.492  22.861  17.718  1.00  0.00     0.090 C 
HETATM   10  C1  UNL     1      15.124  22.159  18.973  1.00  0.00     0.033 C 
HETATM   11  N4  UNL     1      16.715  23.579  17.721  1.00  0.00    -0.374 N 
HETATM   12  C21 UNL     1      17.572  23.647  18.746  1.00  0.00     0.070 C 
BRANCH  12  13
HETATM   13  C22 UNL     1      18.314  22.419  19.244  1.00  0.00     0.157 C 
BRANCH  13  14
HETATM   14  C23 UNL     1      18.676  22.466  20.669  1.00  0.00     0.177 C 
HETATM   15  O5  UNL     1      18.719  21.400  21.322  1.00  0.00    -0.648 OA
HETATM   16  O6  UNL     1      18.976  23.646  21.329  1.00  0.00    -0.648 OA
ENDBRANCH  13  14
ENDBRANCH  12  13
ENDBRANCH   5   6
ENDBRANCH   4   5
ENDBRANCH   3   4
ENDBRANCH   2   3
ENDBRANCH   1   2
BRANCH   1  17
HETATM   17  C9  UNL     1      22.561  27.150  15.996  1.00  0.00     0.114 A 
HETATM   18  S2  UNL     1      23.930  28.093  15.642  1.00  0.00    -0.080 SA
HETATM   19  C10 UNL     1      24.706  28.043  17.159  1.00  0.00     0.071 A 
HETATM   20  C11 UNL     1      23.856  27.273  17.915  1.00  0.00     0.068 A 
HETATM   21  C12 UNL     1      24.071  26.937  19.269  1.00  0.00     0.264 A 
HETATM   22  C20 UNL     1      22.756  26.813  17.320  1.00  0.00     0.087 A 
HETATM   23  O1  UNL     1      25.099  27.352  19.876  1.00  0.00    -0.267 OA
HETATM   24  N2  UNL     1      23.224  26.182  19.977  1.00  0.00    -0.265 N 
HETATM   25  C19 UNL     1      22.110  25.728  19.346  1.00  0.00     0.330 A 
HETATM   26  O2  UNL     1      21.271  25.001  19.985  1.00  0.00    -0.246 OA
HETATM   27  N3  UNL     1      21.902  26.042  18.068  1.00  0.00    -0.305 N 
ATOM     28  H3  UNL     1      21.058  25.688  17.618  1.00  0.00     0.171 HD
BRANCH  24  29
HETATM   29  C13 UNL     1      23.402  25.784  21.358  1.00  0.00     0.142 C 
BRANCH  29  30
HETATM   30  C14 UNL     1      23.144  26.825  22.370  1.00  0.00     0.004 C 
HETATM   31  C15 UNL     1      21.738  27.042  22.822  1.00  0.00     0.006 C 
HETATM   32  C16 UNL     1      21.902  27.769  24.172  1.00  0.00     0.000 C 
HETATM   33  C17 UNL     1      23.252  27.366  24.691  1.00  0.00     0.000 C 
HETATM   34  C18 UNL     1      23.904  26.477  23.652  1.00  0.00     0.006 C 
ENDBRANCH  29  30
ENDBRANCH  24  29
ENDBRANCH   1  17
BRANCH   1  35
HETATM   35  S3  UNL     1      20.544  28.087  14.477  1.00  0.00     0.361 S 
HETATM   36  O3  UNL     1      21.296  28.569  13.274  1.00  0.00    -0.187 OA
HETATM   37  O4  UNL     1      20.355  29.185  15.487  1.00  0.00    -0.187 OA
ENDBRANCH   1  35
TORSDOF 11
ENDMDL
MODEL 3
REMARK VINA RESULT: -8.663789982      1.566      1.859
REMARK  11 active torsions:
REMARK  status: ('A' for Active; 'I' for Inactive)
REMARK    1  A    between atoms: C4_5  and  C5_6 
REMARK    2  A    between atoms: C5_6  and  C6_7 
REMARK    3  A    between atoms: C6_7  and  C7_8 
REMARK    4  A    between atoms: C7_8  and  C8_9 
REMARK    5  A    between atoms: C8_9  and  N1_10 
REMARK    6  A    between atoms: N1_10  and  C9_11 
REMARK    7  A    between atoms: N1_10  and  S3_29 
REMARK    8  A    between atoms: N2_17  and  C13_18 
REMARK    9  A    between atoms: C13_18  and  C14_19 
REMARK   10  A    between atoms: C21_33  and  C22_34 
REMARK   11  A    between atoms: C22_34  and  C23_35 
ROOT
HETATM    1  N1  UNL     1      16.486  22.867  17.167  1.00  0.00    -0.253 N 
ENDROOT
BRANCH   1   2
HETATM    2  C8  UNL     1      16.521  24.256  17.531  1.00  0.00     0.143 C 
BRANCH   2   3
HETATM    3  C7  UNL     1      17.767  24.998  17.244  1.00  0.00     0.021 C 
BRANCH   3   4
HETATM    4  C6  UNL     1      18.327  24.932  15.866  1.00  0.00     0.004 C 
BRANCH   4   5
HETATM    5  C5  UNL     1      19.789  24.652  15.814  1.00  0.00     0.036 C 
BRANCH   5   6
HETATM    6  C4  UNL     1      20.553  25.777  15.328  1.00  0.00     0.145 C 
HETATM    7  S1  UNL     1      19.509  27.164  14.639  1.00  0.00    -0.142 SA
HETATM    8  C3  UNL     1      20.959  28.318  14.564  1.00  0.00     0.100 C 
HETATM    9  C2  UNL     1      21.994  27.504  15.350  1.00  0.00     0.090 C 
HETATM   10  C1  UNL     1      23.047  28.337  15.984  1.00  0.00     0.033 C 
HETATM   11  N4  UNL     1      21.279  26.621  16.199  1.00  0.00    -0.374 N 
HETATM   12  C21 UNL     1      21.454  26.504  17.520  1.00  0.00     0.070 C 
BRANCH  12  13
HETATM   13  C22 UNL     1      21.132  27.646  18.469  1.00  0.00     0.157 C 
BRANCH  13  14
HETATM   14  C23 UNL     1      21.305  27.318  19.892  1.00  0.00     0.177 C 
HETATM   15  O5  UNL     1      20.734  26.306  20.357  1.00  0.00    -0.648 OA
HETATM   16  O6  UNL     1      22.077  28.082  20.751  1.00  0.00    -0.648 OA
ENDBRANCH  13  14
ENDBRANCH  12  13
ENDBRANCH   5   6
ENDBRANCH   4   5
ENDBRANCH   3   4
ENDBRANCH   2   3
ENDBRANCH   1   2
BRANCH   1  17
HETATM   17  C9  UNL     1      15.586  22.326  16.174  1.00  0.00     0.114 A 
HETATM   18  S2  UNL     1      15.599  22.467  14.481  1.00  0.00    -0.080 SA
HETATM   19  C10 UNL     1      14.211  21.549  14.111  1.00  0.00     0.071 A 
HETATM   20  C11 UNL     1      13.767  21.150  15.349  1.00  0.00     0.068 A 
HETATM   21  C12 UNL     1      12.622  20.354  15.569  1.00  0.00     0.264 A 
HETATM   22  C20 UNL     1      14.470  21.548  16.408  1.00  0.00     0.087 A 
HETATM   23  O1  UNL     1      11.925  19.952  14.596  1.00  0.00    -0.267 OA
HETATM   24  N2  UNL     1      12.215  19.985  16.789  1.00  0.00    -0.265 N 
HETATM   25  C19 UNL     1      12.952  20.404  17.851  1.00  0.00     0.330 A 
HETATM   26  O2  UNL     1      12.598  20.074  19.037  1.00  0.00    -0.246 OA
HETATM   27  N3  UNL     1      14.033  21.155  17.648  1.00  0.00    -0.305 N 
ATOM     28  H3  UNL     1      14.568  21.456  18.462  1.00  0.00     0.171 HD
BRANCH  24  29
HETATM   29  C13 UNL     1      11.037  19.193  17.080  1.00  0.00     0.142 C 
BRANCH  29  30
HETATM   30  C14 UNL     1      11.237  17.733  17.135  1.00  0.00     0.004 C 
HETATM   31  C15 UNL     1      10.702  16.988  18.312  1.00  0.00     0.006 C 
HETATM   32  C16 UNL     1      10.619  15.532  17.809  1.00  0.00     0.000 C 
HETATM   33  C17 UNL     1      10.482  15.624  16.316  1.00  0.00     0.000 C 
HETATM   34  C18 UNL     1      10.546  17.087  15.932  1.00  0.00     0.006 C 
ENDBRANCH  29  30
ENDBRANCH  24  29
ENDBRANCH   1  17
BRANCH   1  35
HETATM   35  S3  UNL     1      17.603  21.716  17.853  1.00  0.00     0.361 S 
HETATM   36  O3  UNL     1      18.117  20.869  16.730  1.00  0.00    -0.187 OA
HETATM   37  O4  UNL     1      16.934  20.884  18.911  1.00  0.00    -0.187 OA
ENDBRANCH   1  35
TORSDOF 11
ENDMDL
MODEL 4
REMARK VINA RESULT: -8.617677230      1.923      2.618
REMARK  11 active torsions:
REMARK  status: ('A' for Active; 'I' for Inactive)
REMARK    1  A    between atoms: C4_5  and  C5_6 
REMARK    2  A    between atoms: C5_6  and  C6_7 
REMARK    3  A    between atoms: C6_7  and  C7_8 
REMARK    4  A    between atoms: C7_8  and  C8_9 
REMARK    5  A    between atoms: C8_9  and  N1_10 
REMARK    6  A    between atoms: N1_10  and  C9_11 
REMARK    7  A    between atoms: N1_10  and  S3_29 
REMARK    8  A    between atoms: N2_17  and  C13_18 
REMARK    9  A    between atoms: C13_18  and  C14_19 
REMARK   10  A    between atoms: C21_33  and  C22_34 
REMARK   11  A    between atoms: C22_34  and  C23_35 
ROOT
HETATM    1  N1  UNL     1      17.157  23.033  15.603  1.00  0.00    -0.253 N 
ENDROOT
BRANCH   1   2
HETATM    2  C8  UNL     1      17.556  24.301  15.059  1.00  0.00     0.143 C 
BRANCH   2   3
HETATM    3  C7  UNL     1      17.099  25.515  15.767  1.00  0.00     0.021 C 
BRANCH   3   4
HETATM    4  C6  UNL     1      17.717  25.839  17.083  1.00  0.00     0.004 C 
BRANCH   4   5
HETATM    5  C5  UNL     1      19.207  25.833  17.076  1.00  0.00     0.036 C 
BRANCH   5   6
HETATM    6  C4  UNL     1      19.768  25.968  18.399  1.00  0.00     0.145 C 
HETATM    7  S1  UNL     1      20.550  24.404  19.057  1.00  0.00    -0.142 SA
HETATM    8  C3  UNL     1      21.329  25.303  20.480  1.00  0.00     0.100 C 
HETATM    9  C2  UNL     1      21.066  26.754  20.060  1.00  0.00     0.090 C 
HETATM   10  C1  UNL     1      22.035  27.722  20.633  1.00  0.00     0.033 C 
HETATM   11  N4  UNL     1      20.910  26.764  18.650  1.00  0.00    -0.374 N 
HETATM   12  C21 UNL     1      21.585  27.546  17.800  1.00  0.00     0.070 C 
BRANCH  12  13
HETATM   13  C22 UNL     1      23.086  27.407  17.614  1.00  0.00     0.157 C 
BRANCH  13  14
HETATM   14  C23 UNL     1      23.495  27.046  16.248  1.00  0.00     0.177 C 
HETATM   15  O5  UNL     1      22.815  27.453  15.281  1.00  0.00    -0.648 OA
HETATM   16  O6  UNL     1      24.610  26.270  15.979  1.00  0.00    -0.648 OA
ENDBRANCH  13  14
ENDBRANCH  12  13
ENDBRANCH   5   6
ENDBRANCH   4   5
ENDBRANCH   3   4
ENDBRANCH   2   3
ENDBRANCH   1   2
BRANCH   1  17
HETATM   17  C9  UNL     1      15.982  22.313  15.168  1.00  0.00     0.114 A 
HETATM   18  S2  UNL     1      15.438  21.933  13.603  1.00  0.00    -0.080 SA
HETATM   19  C10 UNL     1      14.007  21.095  13.998  1.00  0.00     0.071 A 
HETATM   20  C11 UNL     1      13.994  21.137  15.372  1.00  0.00     0.068 A 
HETATM   21  C12 UNL     1      12.986  20.570  16.180  1.00  0.00     0.264 A 
HETATM   22  C20 UNL     1      15.006  21.763  15.973  1.00  0.00     0.087 A 
HETATM   23  O1  UNL     1      12.009  19.966  15.655  1.00  0.00    -0.267 OA
HETATM   24  N2  UNL     1      13.001  20.632  17.516  1.00  0.00    -0.265 N 
HETATM   25  C19 UNL     1      14.045  21.274  18.103  1.00  0.00     0.330 A 
HETATM   26  O2  UNL     1      14.101  21.357  19.380  1.00  0.00    -0.246 OA
HETATM   27  N3  UNL     1      14.999  21.811  17.344  1.00  0.00    -0.305 N 
ATOM     28  H3  UNL     1      15.772  22.287  17.811  1.00  0.00     0.171 HD
BRANCH  24  29
HETATM   29  C13 UNL     1      11.986  20.092  18.397  1.00  0.00     0.142 C 
BRANCH  29  30
HETATM   30  C14 UNL     1      12.228  18.729  18.905  1.00  0.00     0.004 C 
HETATM   31  C15 UNL     1      12.456  18.548  20.369  1.00  0.00     0.006 C 
HETATM   32  C16 UNL     1      12.155  17.053  20.599  1.00  0.00     0.000 C 
HETATM   33  C17 UNL     1      11.213  16.654  19.499  1.00  0.00     0.000 C 
HETATM   34  C18 UNL     1      11.008  17.856  18.602  1.00  0.00     0.006 C 
ENDBRANCH  29  30
ENDBRANCH  24  29
ENDBRANCH   1  17
BRANCH   1  35
HETATM   35  S3  UNL     1      18.122  22.210  16.800  1.00  0.00     0.361 S 
HETATM   36  O3  UNL     1      18.018  20.741  16.526  1.00  0.00    -0.187 OA
HETATM   37  O4  UNL     1      17.657  22.547  18.190  1.00  0.00    -0.187 OA
ENDBRANCH   1  35
TORSDOF 11
ENDMDL
MODEL 5
REMARK VINA RESULT: -8.485995054      2.523     10.889
REMARK  11 active torsions:
REMARK  status: ('A' for Active; 'I' for Inactive)
REMARK    1  A    between atoms: C4_5  and  C5_6 
REMARK    2  A    between atoms: C5_6  and  C6_7 
REMARK    3  A    between atoms: C6_7  and  C7_8 
REMARK    4  A    between atoms: C7_8  and  C8_9 
REMARK    5  A    between atoms: C8_9  and  N1_10 
REMARK    6  A    between atoms: N1_10  and  C9_11 
REMARK    7  A    between atoms: N1_10  and  S3_29 
REMARK    8  A    between atoms: N2_17  and  C13_18 
REMARK    9  A    between atoms: C13_18  and  C14_19 
REMARK   10  A    between atoms: C21_33  and  C22_34 
REMARK   11  A    between atoms: C22_34  and  C23_35 
ROOT
HETATM    1  N1  UNL     1      16.254  22.763  17.884  1.00  0.00    -0.253 N 
ENDROOT
BRANCH   1   2
HETATM    2  C8  UNL     1      14.874  22.977  18.217  1.00  0.00     0.143 C 
BRANCH   2   3
HETATM    3  C7  UNL     1      14.042  21.778  18.455  1.00  0.00     0.021 C 
BRANCH   3   4
HETATM    4  C6  UNL     1      14.540  20.751  19.411  1.00  0.00     0.004 C 
BRANCH   4   5
HETATM    5  C5  UNL     1      14.866  19.439  18.784  1.00  0.00     0.036 C 
BRANCH   5   6
HETATM    6  C4  UNL     1      13.784  18.489  18.893  1.00  0.00     0.145 C 
HETATM    7  S1  UNL     1      12.577  18.864  20.268  1.00  0.00    -0.142 SA
HETATM    8  C3  UNL     1      11.367  17.602  19.651  1.00  0.00     0.100 C 
HETATM    9  C2  UNL     1      11.993  17.267  18.292  1.00  0.00     0.090 C 
HETATM   10  C1  UNL     1      11.017  16.757  17.298  1.00  0.00     0.033 C 
HETATM   11  N4  UNL     1      12.779  18.382  17.904  1.00  0.00    -0.374 N 
HETATM   12  C21 UNL     1      12.688  19.026  16.735  1.00  0.00     0.070 C 
BRANCH  12  13
HETATM   13  C22 UNL     1      11.437  19.797  16.349  1.00  0.00     0.157 C 
BRANCH  13  14
HETATM   14  C23 UNL     1      11.675  20.906  15.412  1.00  0.00     0.177 C 
HETATM   15  O5  UNL     1      12.850  21.196  15.098  1.00  0.00    -0.648 OA
HETATM   16  O6  UNL     1      10.649  21.652  14.855  1.00  0.00    -0.648 OA
ENDBRANCH  13  14
ENDBRANCH  12  13
ENDBRANCH   5   6
ENDBRANCH   4   5
ENDBRANCH   3   4
ENDBRANCH   2   3
ENDBRANCH   1   2
BRANCH   1  17
HETATM   17  C9  UNL     1      17.351  23.167  18.734  1.00  0.00     0.114 A 
HETATM   18  S2  UNL     1      17.860  22.563  20.239  1.00  0.00    -0.080 SA
HETATM   19  C10 UNL     1      19.188  23.594  20.521  1.00  0.00     0.071 A 
HETATM   20  C11 UNL     1      19.196  24.399  19.407  1.00  0.00     0.068 A 
HETATM   21  C12 UNL     1      20.126  25.434  19.175  1.00  0.00     0.264 A 
HETATM   22  C20 UNL     1      18.254  24.182  18.490  1.00  0.00     0.087 A 
HETATM   23  O1  UNL     1      21.038  25.676  20.015  1.00  0.00    -0.267 OA
HETATM   24  N2  UNL     1      20.104  26.203  18.080  1.00  0.00    -0.265 N 
HETATM   25  C19 UNL     1      19.134  25.958  17.161  1.00  0.00     0.330 A 
HETATM   26  O2  UNL     1      19.074  26.670  16.097  1.00  0.00    -0.246 OA
HETATM   27  N3  UNL     1      18.253  24.982  17.376  1.00  0.00    -0.305 N 
ATOM     28  H3  UNL     1      17.535  24.820  16.669  1.00  0.00     0.171 HD
BRANCH  24  29
HETATM   29  C13 UNL     1      21.014  27.294  17.798  1.00  0.00     0.142 C 
BRANCH  29  30
HETATM   30  C14 UNL     1      22.286  26.924  17.148  1.00  0.00     0.004 C 
HETATM   31  C15 UNL     1      22.633  27.571  15.849  1.00  0.00     0.006 C 
HETATM   32  C16 UNL     1      24.159  27.373  15.745  1.00  0.00     0.000 C 
HETATM   33  C17 UNL     1      24.650  27.239  17.158  1.00  0.00     0.000 C 
HETATM   34  C18 UNL     1      23.447  27.290  18.076  1.00  0.00     0.006 C 
ENDBRANCH  29  30
ENDBRANCH  24  29
ENDBRANCH   1  17
BRANCH   1  35
HETATM   35  S3  UNL     1      16.722  21.910  16.436  1.00  0.00     0.361 S 
HETATM   36  O3  UNL     1      17.809  20.951  16.812  1.00  0.00    -0.187 OA
HETATM   37  O4  UNL     1      17.176  22.870  15.371  1.00  0.00    -0.187 OA
ENDBRANCH   1  35
TORSDOF 11
ENDMDL
