MODEL 1
REMARK VINA RESULT: -8.841940787      0.000      0.000
REMARK  14 active torsions:
REMARK  status: ('A' for Active; 'I' for Inactive)
REMARK    1  A    between atoms: C2_2  and  N1_3 
REMARK    2  A    between atoms: N1_3  and  C3_4 
REMARK    3  A    between atoms: C3_4  and  C4_5 
REMARK    4  A    between atoms: C4_5  and  C5_6 
REMARK    5  A    between atoms: C5_6  and  C6_7 
REMARK    6  A    between atoms: C6_7  and  C7_8 
REMARK    7  A    between atoms: C7_8  and  N2_9 
REMARK    8  A    between atoms: C9_14  and  S1_15 
REMARK    9  A    between atoms: S1_15  and  C10_16 
REMARK   10  A    between atoms: C10_16  and  C11_17 
REMARK   11  A    between atoms: C11_17  and  O2_18 
REMARK   12  A    between atoms: C11_17  and  C12_20 
REMARK   13  A    between atoms: C12_20  and  N4_21 
REMARK   14  A    between atoms: N5_24  and  C15_25 
ROOT
HETATM    1  N2  UNL     1      12.411  19.439  19.075  1.00  0.00    -0.251 N 
HETATM    2  C8  UNL     1      13.769  19.545  19.242  1.00  0.00     0.332 A 
HETATM    3  O1  UNL     1      14.322  19.025  20.243  1.00  0.00    -0.246 OA
HETATM    4  N3  UNL     1      14.556  20.189  18.375  1.00  0.00    -0.288 N 
ATOM      5  H3  UNL     1      15.561  20.239  18.545  1.00  0.00     0.172 HD
HETATM    6  C9  UNL     1      14.037  20.770  17.282  1.00  0.00     0.152 A 
HETATM    7  N6  UNL     1      12.712  20.674  17.107  1.00  0.00    -0.288 N 
ATOM      8  H6  UNL     1      12.292  21.108  16.285  1.00  0.00     0.172 HD
HETATM    9  C25 UNL     1      11.899  20.012  17.996  1.00  0.00     0.332 A 
HETATM   10  O3  UNL     1      10.674  19.973  17.743  1.00  0.00    -0.246 OA
ENDROOT
BRANCH   6  11
HETATM   11  S1  UNL     1      15.064  21.640  16.105  1.00  0.00    -0.091 SA
BRANCH  11  12
HETATM   12  C10 UNL     1      14.632  23.423  16.048  1.00  0.00     0.115 C 
BRANCH  12  13
HETATM   13  C11 UNL     1      15.437  24.057  17.192  1.00  0.00     0.145 C 
BRANCH  13  14
HETATM   14  O2  UNL     1      14.542  24.136  18.257  1.00  0.00    -0.393 OA
ATOM     15  H2  UNL     1      14.724  24.974  18.666  1.00  0.00     0.210 HD
ENDBRANCH  13  14
BRANCH  13  16
HETATM   16  C12 UNL     1      16.600  23.185  17.599  1.00  0.00     0.149 C 
BRANCH  16  17
HETATM   17  N4  UNL     1      17.819  23.860  17.341  1.00  0.00    -0.407 N 
HETATM   18  C13 UNL     1      18.349  23.679  16.024  1.00  0.00     0.136 C 
HETATM   19  C14 UNL     1      19.749  24.158  15.875  1.00  0.00     0.142 C 
HETATM   20  N5  UNL     1      19.837  25.529  16.304  1.00  0.00    -0.377 N 
HETATM   21  C23 UNL     1      19.186  25.891  17.538  1.00  0.00     0.142 C 
HETATM   22  C24 UNL     1      17.922  25.191  17.844  1.00  0.00     0.136 C 
BRANCH  20  23
HETATM   23  C15 UNL     1      20.534  26.556  15.606  1.00  0.00     0.036 A 
HETATM   24  C16 UNL     1      21.878  26.782  15.937  1.00  0.00     0.036 A 
HETATM   25  C17 UNL     1      22.613  27.749  15.301  1.00  0.00    -0.060 A 
HETATM   26  C18 UNL     1      24.024  27.948  15.684  1.00  0.00     0.048 C 
HETATM   27  C19 UNL     1      21.985  28.491  14.326  1.00  0.00     0.007 A 
HETATM   28  C20 UNL     1      20.666  28.273  13.998  1.00  0.00     0.009 A 
HETATM   29  C21 UNL     1      19.907  27.286  14.643  1.00  0.00    -0.035 A 
HETATM   30  C22 UNL     1      18.502  27.094  14.263  1.00  0.00     0.050 C 
ENDBRANCH  20  23
ENDBRANCH  16  17
ENDBRANCH  13  16
ENDBRANCH  12  13
ENDBRANCH  11  12
ENDBRANCH   6  11
BRANCH   1  31
HETATM   31  C7  UNL     1      11.732  18.678  20.098  1.00  0.00     0.139 C 
BRANCH  31  32
HETATM   32  C6  UNL     1      11.695  17.210  19.863  1.00  0.00     0.020 C 
BRANCH  32  33
HETATM   33  C5  UNL     1      10.741  16.704  18.840  1.00  0.00     0.003 C 
BRANCH  33  34
HETATM   34  C4  UNL     1      11.346  16.354  17.502  1.00  0.00     0.028 C 
BRANCH  34  35
HETATM   35  C3  UNL     1      10.305  16.531  16.416  1.00  0.00     0.237 C 
BRANCH  35  36
HETATM   36  N1  UNL     1       9.947  15.335  15.721  1.00  0.00    -0.067 N 
HETATM   37  C26 UNL     1       8.517  15.404  15.408  1.00  0.00     0.237 C 
HETATM   38  C27 UNL     1       7.854  14.926  16.697  1.00  0.00     0.029 C 
HETATM   39  C28 UNL     1       8.826  13.877  17.203  1.00  0.00     0.029 C 
HETATM   40  C29 UNL     1      10.126  14.138  16.485  1.00  0.00     0.237 C 
BRANCH  36  41
HETATM   41  C2  UNL     1      10.672  15.275  14.451  1.00  0.00     0.233 C 
HETATM   42  C1  UNL     1       9.925  14.510  13.400  1.00  0.00     0.035 C 
ENDBRANCH  36  41
ENDBRANCH  35  36
ENDBRANCH  34  35
ENDBRANCH  33  34
ENDBRANCH  32  33
ENDBRANCH  31  32
ENDBRANCH   1  31
TORSDOF 14
ENDMDL
MODEL 2
REMARK VINA RESULT: -8.769824027      3.605      6.750
REMARK  14 active torsions:
REMARK  status: ('A' for Active; 'I' for Inactive)
REMARK    1  A    between atoms: C2_2  and  N1_3 
REMARK    2  A    between atoms: N1_3  and  C3_4 
REMARK    3  A    between atoms: C3_4  and  C4_5 
REMARK    4  A    between atoms: C4_5  and  C5_6 
REMARK    5  A    between atoms: C5_6  and  C6_7 
REMARK    6  A    between atoms: C6_7  and  C7_8 
REMARK    7  A    between atoms: C7_8  and  N2_9 
REMARK    8  A    between atoms: C9_14  and  S1_15 
REMARK    9  A    between atoms: S1_15  and  C10_16 
REMARK   10  A    between atoms: C10_16  and  C11_17 
REMARK   11  A    between atoms: C11_17  and  O2_18 
REMARK   12  A    between atoms: C11_17  and  C12_20 
REMARK   13  A    between atoms: C12_20  and  N4_21 
REMARK   14  A    between atoms: N5_24  and  C15_25 
ROOT
HETATM    1  N2  UNL     1      18.216  23.340  20.196  1.00  0.00    -0.251 N 
HETATM    2  C8  UNL     1      18.201  24.641  20.636  1.00  0.00     0.332 A 
HETATM    3  O1  UNL     1      17.122  25.167  21.005  1.00  0.00    -0.246 OA
HETATM    4  N3  UNL     1      19.301  25.396  20.694  1.00  0.00    -0.288 N 
ATOM      5  H3  UNL     1      19.237  26.358  21.028  1.00  0.00     0.172 HD
HETATM    6  C9  UNL     1      20.490  24.903  20.316  1.00  0.00     0.152 A 
HETATM    7  N6  UNL     1      20.519  23.634  19.885  1.00  0.00    -0.288 N 
ATOM      8  H6  UNL     1      21.410  23.235  19.591  1.00  0.00     0.172 HD
HETATM    9  C25 UNL     1      19.389  22.853  19.825  1.00  0.00     0.332 A 
HETATM   10  O3  UNL     1      19.519  21.678  19.411  1.00  0.00    -0.246 OA
ENDROOT
BRANCH   6  11
HETATM   11  S1  UNL     1      21.980  25.889  20.381  1.00  0.00    -0.091 SA
BRANCH  11  12
HETATM   12  C10 UNL     1      22.334  26.652  18.749  1.00  0.00     0.115 C 
BRANCH  12  13
HETATM   13  C11 UNL     1      20.961  26.789  18.075  1.00  0.00     0.145 C 
BRANCH  13  14
HETATM   14  O2  UNL     1      20.479  28.027  18.493  1.00  0.00    -0.393 OA
ATOM     15  H2  UNL     1      20.310  28.506  17.690  1.00  0.00     0.210 HD
ENDBRANCH  13  14
BRANCH  13  16
HETATM   16  C12 UNL     1      21.085  26.799  16.570  1.00  0.00     0.149 C 
BRANCH  16  17
HETATM   17  N4  UNL     1      20.141  25.905  16.005  1.00  0.00    -0.407 N 
HETATM   18  C13 UNL     1      19.850  24.748  16.796  1.00  0.00     0.136 C 
HETATM   19  C14 UNL     1      19.086  23.703  16.062  1.00  0.00     0.142 C 
HETATM   20  N5  UNL     1      17.895  24.283  15.503  1.00  0.00    -0.377 N 
HETATM   21  C23 UNL     1      18.015  25.550  14.827  1.00  0.00     0.142 C 
HETATM   22  C24 UNL     1      19.004  26.498  15.381  1.00  0.00     0.136 C 
BRANCH  20  23
HETATM   23  C15 UNL     1      16.601  23.690  15.552  1.00  0.00     0.036 A 
HETATM   24  C16 UNL     1      16.268  22.751  14.564  1.00  0.00     0.036 A 
HETATM   25  C17 UNL     1      15.044  22.134  14.554  1.00  0.00    -0.060 A 
HETATM   26  C18 UNL     1      14.742  21.154  13.493  1.00  0.00     0.048 C 
HETATM   27  C19 UNL     1      14.151  22.469  15.548  1.00  0.00     0.007 A 
HETATM   28  C20 UNL     1      14.473  23.389  16.520  1.00  0.00     0.009 A 
HETATM   29  C21 UNL     1      15.723  24.024  16.538  1.00  0.00    -0.035 A 
HETATM   30  C22 UNL     1      16.019  25.003  17.591  1.00  0.00     0.050 C 
ENDBRANCH  20  23
ENDBRANCH  16  17
ENDBRANCH  13  16
ENDBRANCH  12  13
ENDBRANCH  11  12
ENDBRANCH   6  11
BRANCH   1  31
HETATM   31  C7  UNL     1      16.935  22.673  20.236  1.00  0.00     0.139 C 
BRANCH  31  32
HETATM   32  C6  UNL     1      16.685  21.732  19.112  1.00  0.00     0.020 C 
BRANCH  32  33
HETATM   33  C5  UNL     1      15.388  21.006  19.103  1.00  0.00     0.003 C 
BRANCH  33  34
HETATM   34  C4  UNL     1      15.221  19.982  18.005  1.00  0.00     0.028 C 
BRANCH  34  35
HETATM   35  C3  UNL     1      14.566  18.739  18.570  1.00  0.00     0.237 C 
BRANCH  35  36
HETATM   36  N1  UNL     1      13.147  18.684  18.421  1.00  0.00    -0.067 N 
HETATM   37  C26 UNL     1      12.545  19.431  19.529  1.00  0.00     0.237 C 
HETATM   38  C27 UNL     1      12.527  18.414  20.667  1.00  0.00     0.029 C 
HETATM   39  C28 UNL     1      12.263  17.107  19.942  1.00  0.00     0.029 C 
HETATM   40  C29 UNL     1      12.601  17.363  18.495  1.00  0.00     0.237 C 
BRANCH  36  41
HETATM   41  C2  UNL     1      12.761  19.355  17.179  1.00  0.00     0.233 C 
HETATM   42  C1  UNL     1      11.329  19.800  17.188  1.00  0.00     0.035 C 
ENDBRANCH  36  41
ENDBRANCH  35  36
ENDBRANCH  34  35
ENDBRANCH  33  34
ENDBRANCH  32  33
ENDBRANCH  31  32
ENDBRANCH   1  31
TORSDOF 14
ENDMDL
MODEL 3
REMARK VINA RESULT: -8.709465682      0.509      1.237
REMARK  14 active torsions:
REMARK  status: ('A' for Active; 'I' for Inactive)
REMARK    1  A    between atoms: C2_2  and  N1_3 
REMARK    2  A    between atoms: N1_3  and  C3_4 
REMARK    3  A    between atoms: C3_4  and  C4_5 
REMARK    4  A    between atoms: C4_5  and  C5_6 
REMARK    5  A    between atoms: C5_6  and  C6_7 
REMARK    6  A    between atoms: C6_7  and  C7_8 
REMARK    7  A    between atoms: C7_8  and  N2_9 
REMARK    8  A    between atoms: C9_14  and  S1_15 
REMARK    9  A    between atoms: S1_15  and  C10_16 
REMARK   10  A    between atoms: C10_16  and  C11_17 
REMARK   11  A    between atoms: C11_17  and  O2_18 
REMARK   12  A    between atoms: C11_17  and  C12_20 
REMARK   13  A    between atoms: C12_20  and  N4_21 
REMARK   14  A    between atoms: N5_24  and  C15_25 
ROOT
HETATM    1  N2  UNL     1      12.224  19.363  19.025  1.00  0.00    -0.251 N 
HETATM    2  C8  UNL     1      13.567  19.473  19.293  1.00  0.00     0.332 A 
HETATM    3  O1  UNL     1      14.048  18.940  20.324  1.00  0.00    -0.246 OA
HETATM    4  N3  UNL     1      14.411  20.133  18.495  1.00  0.00    -0.288 N 
ATOM      5  H3  UNL     1      15.400  20.185  18.739  1.00  0.00     0.172 HD
HETATM    6  C9  UNL     1      13.970  20.727  17.376  1.00  0.00     0.152 A 
HETATM    7  N6  UNL     1      12.662  20.627  17.102  1.00  0.00    -0.288 N 
ATOM      8  H6  UNL     1      12.301  21.071  16.258  1.00  0.00     0.172 HD
HETATM    9  C25 UNL     1      11.790  19.948  17.920  1.00  0.00     0.332 A 
HETATM   10  O3  UNL     1      10.587  19.907  17.577  1.00  0.00    -0.246 OA
ENDROOT
BRANCH   6  11
HETATM   11  S1  UNL     1      15.075  21.618  16.288  1.00  0.00    -0.091 SA
BRANCH  11  12
HETATM   12  C10 UNL     1      14.587  23.383  16.160  1.00  0.00     0.115 C 
BRANCH  12  13
HETATM   13  C11 UNL     1      15.491  24.114  17.162  1.00  0.00     0.145 C 
BRANCH  13  14
HETATM   14  O2  UNL     1      14.671  24.378  18.256  1.00  0.00    -0.393 OA
ATOM     15  H2  UNL     1      15.178  24.106  19.013  1.00  0.00     0.210 HD
ENDBRANCH  13  14
BRANCH  13  16
HETATM   16  C12 UNL     1      16.636  23.238  17.614  1.00  0.00     0.149 C 
BRANCH  16  17
HETATM   17  N4  UNL     1      17.868  23.884  17.345  1.00  0.00    -0.407 N 
HETATM   18  C13 UNL     1      18.357  23.730  16.008  1.00  0.00     0.136 C 
HETATM   19  C14 UNL     1      19.768  24.170  15.837  1.00  0.00     0.142 C 
HETATM   20  N5  UNL     1      19.911  25.522  16.307  1.00  0.00    -0.377 N 
HETATM   21  C23 UNL     1      19.305  25.863  17.570  1.00  0.00     0.142 C 
HETATM   22  C24 UNL     1      18.028  25.193  17.888  1.00  0.00     0.136 C 
BRANCH  20  23
HETATM   23  C15 UNL     1      20.622  26.550  15.624  1.00  0.00     0.036 A 
HETATM   24  C16 UNL     1      21.964  26.765  15.971  1.00  0.00     0.036 A 
HETATM   25  C17 UNL     1      22.711  27.731  15.351  1.00  0.00    -0.060 A 
HETATM   26  C18 UNL     1      24.119  27.919  15.751  1.00  0.00     0.048 C 
HETATM   27  C19 UNL     1      22.098  28.485  14.374  1.00  0.00     0.007 A 
HETATM   28  C20 UNL     1      20.782  28.277  14.030  1.00  0.00     0.009 A 
HETATM   29  C21 UNL     1      20.010  27.290  14.659  1.00  0.00    -0.035 A 
HETATM   30  C22 UNL     1      18.608  27.110  14.263  1.00  0.00     0.050 C 
ENDBRANCH  20  23
ENDBRANCH  16  17
ENDBRANCH  13  16
ENDBRANCH  12  13
ENDBRANCH  11  12
ENDBRANCH   6  11
BRANCH   1  31
HETATM   31  C7  UNL     1      11.478  18.584  19.985  1.00  0.00     0.139 C 
BRANCH  31  32
HETATM   32  C6  UNL     1      11.476  17.118  19.735  1.00  0.00     0.020 C 
BRANCH  32  33
HETATM   33  C5  UNL     1      10.582  16.607  18.663  1.00  0.00     0.003 C 
BRANCH  33  34
HETATM   34  C4  UNL     1      11.274  16.145  17.402  1.00  0.00     0.028 C 
BRANCH  34  35
HETATM   35  C3  UNL     1      10.421  16.499  16.201  1.00  0.00     0.237 C 
BRANCH  35  36
HETATM   36  N1  UNL     1       9.918  15.381  15.467  1.00  0.00    -0.067 N 
HETATM   37  C26 UNL     1      10.668  15.289  14.211  1.00  0.00     0.237 C 
HETATM   38  C27 UNL     1       9.951  16.285  13.303  1.00  0.00     0.029 C 
HETATM   39  C28 UNL     1       8.504  16.153  13.740  1.00  0.00     0.029 C 
HETATM   40  C29 UNL     1       8.541  15.496  15.096  1.00  0.00     0.237 C 
BRANCH  36  41
HETATM   41  C2  UNL     1      10.171  14.151  16.220  1.00  0.00     0.233 C 
HETATM   42  C1  UNL     1       9.874  12.918  15.420  1.00  0.00     0.035 C 
ENDBRANCH  36  41
ENDBRANCH  35  36
ENDBRANCH  34  35
ENDBRANCH  33  34
ENDBRANCH  32  33
ENDBRANCH  31  32
ENDBRANCH   1  31
TORSDOF 14
ENDMDL
MODEL 4
REMARK VINA RESULT: -8.660694158      1.863      2.880
REMARK  14 active torsions:
REMARK  status: ('A' for Active; 'I' for Inactive)
REMARK    1  A    between atoms: C2_2  and  N1_3 
REMARK    2  A    between atoms: N1_3  and  C3_4 
REMARK    3  A    between atoms: C3_4  and  C4_5 
REMARK    4  A    between atoms: C4_5  and  C5_6 
REMARK    5  A    between atoms: C5_6  and  C6_7 
REMARK    6  A    between atoms: C6_7  and  C7_8 
REMARK    7  A    between atoms: C7_8  and  N2_9 
REMARK    8  A    between atoms: C9_14  and  S1_15 
REMARK    9  A    between atoms: S1_15  and  C10_16 
REMARK   10  A    between atoms: C10_16  and  C11_17 
REMARK   11  A    between atoms: C11_17  and  O2_18 
REMARK   12  A    between atoms: C11_17  and  C12_20 
REMARK   13  A    between atoms: C12_20  and  N4_21 
REMARK   14  A    between atoms: N5_24  and  C15_25 
ROOT
HETATM    1  N2  UNL     1      12.018  18.438  17.708  1.00  0.00    -0.251 N 
HETATM    2  C8  UNL     1      11.636  19.573  17.037  1.00  0.00     0.332 A 
HETATM    3  O1  UNL     1      10.417  19.800  16.829  1.00  0.00    -0.246 OA
HETATM    4  N3  UNL     1      12.512  20.473  16.582  1.00  0.00    -0.288 N 
ATOM      5  H3  UNL     1      12.176  21.301  16.089  1.00  0.00     0.172 HD
HETATM    6  C9  UNL     1      13.829  20.299  16.767  1.00  0.00     0.152 A 
HETATM    7  N6  UNL     1      14.216  19.195  17.421  1.00  0.00    -0.288 N 
ATOM      8  H6  UNL     1      15.212  19.038  17.574  1.00  0.00     0.172 HD
HETATM    9  C25 UNL     1      13.318  18.267  17.892  1.00  0.00     0.332 A 
HETATM   10  O3  UNL     1      13.777  17.270  18.494  1.00  0.00    -0.246 OA
ENDROOT
BRANCH   6  11
HETATM   11  S1  UNL     1      15.026  21.485  16.169  1.00  0.00    -0.091 SA
BRANCH  11  12
HETATM   12  C10 UNL     1      14.341  23.187  16.211  1.00  0.00     0.115 C 
BRANCH  12  13
HETATM   13  C11 UNL     1      15.263  23.957  17.168  1.00  0.00     0.145 C 
BRANCH  13  14
HETATM   14  O2  UNL     1      14.471  24.235  18.280  1.00  0.00    -0.393 OA
ATOM     15  H2  UNL     1      15.076  24.568  18.933  1.00  0.00     0.210 HD
ENDBRANCH  13  14
BRANCH  13  16
HETATM   16  C12 UNL     1      16.434  23.111  17.606  1.00  0.00     0.149 C 
BRANCH  16  17
HETATM   17  N4  UNL     1      17.645  23.811  17.374  1.00  0.00    -0.407 N 
HETATM   18  C13 UNL     1      18.259  23.561  16.105  1.00  0.00     0.136 C 
HETATM   19  C14 UNL     1      19.650  24.078  16.006  1.00  0.00     0.142 C 
HETATM   20  N5  UNL     1      19.668  25.477  16.343  1.00  0.00    -0.377 N 
HETATM   21  C23 UNL     1      18.932  25.899  17.508  1.00  0.00     0.142 C 
HETATM   22  C24 UNL     1      17.674  25.176  17.788  1.00  0.00     0.136 C 
BRANCH  20  23
HETATM   23  C15 UNL     1      20.373  26.480  15.617  1.00  0.00     0.036 A 
HETATM   24  C16 UNL     1      21.721  26.700  15.938  1.00  0.00     0.036 A 
HETATM   25  C17 UNL     1      22.463  27.643  15.276  1.00  0.00    -0.060 A 
HETATM   26  C18 UNL     1      23.877  27.837  15.650  1.00  0.00     0.048 C 
HETATM   27  C19 UNL     1      21.839  28.367  14.285  1.00  0.00     0.007 A 
HETATM   28  C20 UNL     1      20.517  28.154  13.966  1.00  0.00     0.009 A 
HETATM   29  C21 UNL     1      19.750  27.192  14.638  1.00  0.00    -0.035 A 
HETATM   30  C22 UNL     1      18.342  27.005  14.267  1.00  0.00     0.050 C 
ENDBRANCH  20  23
ENDBRANCH  16  17
ENDBRANCH  13  16
ENDBRANCH  12  13
ENDBRANCH  11  12
ENDBRANCH   6  11
BRANCH   1  31
HETATM   31  C7  UNL     1      10.928  17.602  18.153  1.00  0.00     0.139 C 
BRANCH  31  32
HETATM   32  C6  UNL     1      10.766  16.332  17.397  1.00  0.00     0.020 C 
BRANCH  32  33
HETATM   33  C5  UNL     1       9.926  16.367  16.170  1.00  0.00     0.003 C 
BRANCH  33  34
HETATM   34  C4  UNL     1      10.664  16.170  14.868  1.00  0.00     0.028 C 
BRANCH  34  35
HETATM   35  C3  UNL     1      10.603  17.447  14.056  1.00  0.00     0.237 C 
BRANCH  35  36
HETATM   36  N1  UNL     1      11.031  17.321  12.699  1.00  0.00    -0.067 N 
HETATM   37  C26 UNL     1      12.010  18.379  12.433  1.00  0.00     0.237 C 
HETATM   38  C27 UNL     1      11.137  19.589  12.109  1.00  0.00     0.029 C 
HETATM   39  C28 UNL     1       9.958  18.965  11.385  1.00  0.00     0.029 C 
HETATM   40  C29 UNL     1       9.988  17.499  11.736  1.00  0.00     0.237 C 
BRANCH  36  41
HETATM   41  C2  UNL     1      11.713  16.038  12.521  1.00  0.00     0.233 C 
HETATM   42  C1  UNL     1      12.838  16.118  11.533  1.00  0.00     0.035 C 
ENDBRANCH  36  41
ENDBRANCH  35  36
ENDBRANCH  34  35
ENDBRANCH  33  34
ENDBRANCH  32  33
ENDBRANCH  31  32
ENDBRANCH   1  31
TORSDOF 14
ENDMDL
MODEL 5
REMARK VINA RESULT: -8.599630251      4.162      7.143
REMARK  14 active torsions:
REMARK  status: ('A' for Active; 'I' for Inactive)
REMARK    1  A    between atoms: C2_2  and  N1_3 
REMARK    2  A    between atoms: N1_3  and  C3_4 
REMARK    3  A    between atoms: C3_4  and  C4_5 
REMARK    4  A    between atoms: C4_5  and  C5_6 
REMARK    5  A    between atoms: C5_6  and  C6_7 
REMARK    6  A    between atoms: C6_7  and  C7_8 
REMARK    7  A    between atoms: C7_8  and  N2_9 
REMARK    8  A    between atoms: C9_14  and  S1_15 
REMARK    9  A    between atoms: S1_15  and  C10_16 
REMARK   10  A    between atoms: C10_16  and  C11_17 
REMARK   11  A    between atoms: C11_17  and  O2_18 
REMARK   12  A    between atoms: C11_17  and  C12_20 
REMARK   13  A    between atoms: C12_20  and  N4_21 
REMARK   14  A    between atoms: N5_24  and  C15_25 
ROOT
HETATM    1  N2  UNL     1      17.742  22.979  18.047  1.00  0.00    -0.251 N 
HETATM    2  C8  UNL     1      17.603  24.318  18.317  1.00  0.00     0.332 A 
HETATM    3  O1  UNL     1      17.325  24.698  19.481  1.00  0.00    -0.246 OA
HETATM    4  N3  UNL     1      17.753  25.262  17.384  1.00  0.00    -0.288 N 
ATOM      5  H3  UNL     1      17.639  26.244  17.637  1.00  0.00     0.172 HD
HETATM    6  C9  UNL     1      18.051  24.932  16.118  1.00  0.00     0.152 A 
HETATM    7  N6  UNL     1      18.189  23.628  15.841  1.00  0.00    -0.288 N 
ATOM      8  H6  UNL     1      18.415  23.350  14.886  1.00  0.00     0.172 HD
HETATM    9  C25 UNL     1      18.038  22.653  16.798  1.00  0.00     0.332 A 
HETATM   10  O3  UNL     1      18.191  21.463  16.442  1.00  0.00    -0.246 OA
ENDROOT
BRANCH   6  11
HETATM   11  S1  UNL     1      18.256  26.173  14.847  1.00  0.00    -0.091 SA
BRANCH  11  12
HETATM   12  C10 UNL     1      20.008  26.280  14.311  1.00  0.00     0.115 C 
BRANCH  12  13
HETATM   13  C11 UNL     1      20.820  25.826  15.532  1.00  0.00     0.145 C 
BRANCH  13  14
HETATM   14  O2  UNL     1      22.047  25.418  15.014  1.00  0.00    -0.393 OA
ATOM     15  H2  UNL     1      22.686  25.992  15.421  1.00  0.00     0.210 HD
ENDBRANCH  13  14
BRANCH  13  16
HETATM   16  C12 UNL     1      21.053  26.966  16.494  1.00  0.00     0.149 C 
BRANCH  16  17
HETATM   17  N4  UNL     1      21.863  26.526  17.571  1.00  0.00    -0.407 N 
HETATM   18  C13 UNL     1      22.762  27.508  18.097  1.00  0.00     0.136 C 
HETATM   19  C14 UNL     1      23.784  26.946  19.020  1.00  0.00     0.142 C 
HETATM   20  N5  UNL     1      23.131  26.203  20.065  1.00  0.00    -0.377 N 
HETATM   21  C23 UNL     1      22.072  25.301  19.690  1.00  0.00     0.142 C 
HETATM   22  C24 UNL     1      21.220  25.722  18.558  1.00  0.00     0.136 C 
BRANCH  20  23
HETATM   23  C15 UNL     1      23.463  26.282  21.448  1.00  0.00     0.036 A 
HETATM   24  C16 UNL     1      24.647  25.664  21.877  1.00  0.00     0.036 A 
HETATM   25  C17 UNL     1      25.034  25.706  23.191  1.00  0.00    -0.060 A 
HETATM   26  C18 UNL     1      26.288  25.040  23.594  1.00  0.00     0.048 C 
HETATM   27  C19 UNL     1      24.218  26.375  24.077  1.00  0.00     0.007 A 
HETATM   28  C20 UNL     1      23.056  26.983  23.660  1.00  0.00     0.009 A 
HETATM   29  C21 UNL     1      22.653  26.946  22.318  1.00  0.00    -0.035 A 
HETATM   30  C22 UNL     1      21.402  27.604  21.922  1.00  0.00     0.050 C 
ENDBRANCH  20  23
ENDBRANCH  16  17
ENDBRANCH  13  16
ENDBRANCH  12  13
ENDBRANCH  11  12
ENDBRANCH   6  11
BRANCH   1  31
HETATM   31  C7  UNL     1      17.577  22.110  19.189  1.00  0.00     0.139 C 
BRANCH  31  32
HETATM   32  C6  UNL     1      16.378  21.232  19.139  1.00  0.00     0.020 C 
BRANCH  32  33
HETATM   33  C5  UNL     1      15.053  21.890  19.000  1.00  0.00     0.003 C 
BRANCH  33  34
HETATM   34  C4  UNL     1      14.010  21.103  18.243  1.00  0.00     0.028 C 
BRANCH  34  35
HETATM   35  C3  UNL     1      14.532  20.773  16.860  1.00  0.00     0.237 C 
BRANCH  35  36
HETATM   36  N1  UNL     1      13.723  21.242  15.781  1.00  0.00    -0.067 N 
HETATM   37  C26 UNL     1      14.352  20.821  14.526  1.00  0.00     0.237 C 
HETATM   38  C27 UNL     1      15.406  21.898  14.285  1.00  0.00     0.029 C 
HETATM   39  C28 UNL     1      14.734  23.149  14.820  1.00  0.00     0.029 C 
HETATM   40  C29 UNL     1      13.614  22.667  15.707  1.00  0.00     0.237 C 
BRANCH  36  41
HETATM   41  C2  UNL     1      12.406  20.606  15.846  1.00  0.00     0.233 C 
HETATM   42  C1  UNL     1      11.419  21.232  14.908  1.00  0.00     0.035 C 
ENDBRANCH  36  41
ENDBRANCH  35  36
ENDBRANCH  34  35
ENDBRANCH  33  34
ENDBRANCH  32  33
ENDBRANCH  31  32
ENDBRANCH   1  31
TORSDOF 14
ENDMDL
