MODEL 1
REMARK VINA RESULT: -8.516655362      0.000      0.000
REMARK  13 active torsions:
REMARK  status: ('A' for Active; 'I' for Inactive)
REMARK    1  A    between atoms: N1_2  and  C3_4 
REMARK    2  A    between atoms: C3_4  and  C4_6 
REMARK    3  A    between atoms: C4_6  and  C5_7 
REMARK       I    between atoms: C5_7  and  N2_9 
REMARK    4  A    between atoms: C7_16  and  C8_17 
REMARK    5  A    between atoms: C8_17  and  C9_18 
REMARK    6  A    between atoms: C9_18  and  C10_19 
REMARK    7  A    between atoms: C10_19  and  C11_20 
REMARK    8  A    between atoms: C11_20  and  C12_21 
REMARK       I    between atoms: N7_27  and  C14_29 
REMARK    9  A    between atoms: C14_29  and  C15_31 
REMARK   10  A    between atoms: C15_31  and  C16_32 
REMARK   11  A    between atoms: C16_32  and  C17_33 
REMARK   12  A    between atoms: C17_33  and  C18_34 
REMARK   13  A    between atoms: C18_34  and  C19_35 
ROOT
HETATM    1  C12 UNL     1      20.904  25.455  20.159  1.00  0.00     0.069 A 
HETATM    2  N5  UNL     1      21.507  24.926  19.109  1.00  0.00    -0.296 N 
ATOM      3  H5  UNL     1      21.492  23.914  18.975  1.00  0.00     0.187 HD
HETATM    4  N6  UNL     1      22.104  25.662  18.268  1.00  0.00    -0.279 N 
ATOM      5  H6  UNL     1      22.566  25.243  17.460  1.00  0.00     0.189 HD
HETATM    6  C13 UNL     1      22.129  26.980  18.438  1.00  0.00     0.167 A 
HETATM    7  N7  UNL     1      22.633  27.953  17.775  1.00  0.00    -0.306 N 
ATOM      8  H7  UNL     1      22.491  28.890  18.153  1.00  0.00     0.171 HD
HETATM    9  C14 UNL     1      23.349  27.861  16.603  1.00  0.00     0.223 C 
HETATM   10  O2  UNL     1      24.337  28.668  16.468  1.00  0.00    -0.273 OA
HETATM   11  S2  UNL     1      21.213  27.113  19.926  1.00  0.00    -0.038 SA
ENDROOT
BRANCH   1  12
HETATM   12  C11 UNL     1      20.146  24.754  21.259  1.00  0.00     0.066 C 
BRANCH  12  13
HETATM   13  C10 UNL     1      18.839  24.290  20.722  1.00  0.00     0.007 C 
BRANCH  13  14
HETATM   14  C9  UNL     1      18.604  22.814  20.861  1.00  0.00     0.007 C 
BRANCH  14  15
HETATM   15  C8  UNL     1      18.865  22.047  19.603  1.00  0.00     0.066 C 
BRANCH  15  16
HETATM   16  C7  UNL     1      17.575  21.775  18.873  1.00  0.00     0.069 A 
HETATM   17  N4  UNL     1      17.364  20.987  17.830  1.00  0.00    -0.296 N 
HETATM   18  N3  UNL     1      16.202  20.875  17.334  1.00  0.00    -0.279 N 
ATOM     19  H4  UNL     1      18.141  20.468  17.422  1.00  0.00     0.187 HD
HETATM   20  C6  UNL     1      15.192  21.554  17.870  1.00  0.00     0.167 A 
ATOM     21  H3  UNL     1      16.043  20.268  16.530  1.00  0.00     0.189 HD
HETATM   22  N2  UNL     1      13.947  21.603  17.550  1.00  0.00    -0.306 N 
HETATM   23  S3  UNL     1      16.006  22.386  19.154  1.00  0.00    -0.038 SA
HETATM   24  C5  UNL     1      13.274  20.951  16.533  1.00  0.00     0.230 C 
ATOM     25  H2  UNL     1      13.371  22.213  18.132  1.00  0.00     0.171 HD
HETATM   26  O1  UNL     1      12.854  21.627  15.564  1.00  0.00    -0.273 OA
BRANCH  24  27
HETATM   27  C4  UNL     1      13.026  19.494  16.536  1.00  0.00     0.172 C 
BRANCH  27  28
HETATM   28  C3  UNL     1      12.640  18.970  17.853  1.00  0.00     0.083 C 
HETATM   29  S1  UNL     1      11.060  18.948  18.291  1.00  0.00    -0.065 SA
BRANCH  28  30
HETATM   30  N1  UNL     1      13.593  18.481  18.764  1.00  0.00    -0.384 N 
HETATM   31  C1  UNL     1      13.558  18.922  20.159  1.00  0.00     0.149 C 
HETATM   32  C2  UNL     1      14.654  17.554  18.436  1.00  0.00     0.149 C 
ENDBRANCH  28  30
ENDBRANCH  27  28
ENDBRANCH  24  27
ENDBRANCH  15  16
ENDBRANCH  14  15
ENDBRANCH  13  14
ENDBRANCH  12  13
ENDBRANCH   1  12
BRANCH   9  33
HETATM   33  C15 UNL     1      23.138  26.948  15.460  1.00  0.00     0.103 C 
BRANCH  33  34
HETATM   34  C16 UNL     1      21.752  27.145  14.874  1.00  0.00     0.009 C 
BRANCH  34  35
HETATM   35  C17 UNL     1      21.069  25.813  14.742  1.00  0.00     0.001 C 
BRANCH  35  36
HETATM   36  C18 UNL     1      19.602  25.976  15.008  1.00  0.00     0.005 C 
BRANCH  36  37
HETATM   37  C19 UNL     1      18.945  24.744  15.559  1.00  0.00    -0.011 C 
HETATM   38  C20 UNL     1      18.761  24.753  17.040  1.00  0.00     0.032 C 
HETATM   39  C21 UNL     1      17.637  25.661  17.478  1.00  0.00     0.232 C 
HETATM   40  N8  UNL     1      16.445  25.455  16.697  1.00  0.00    -0.075 N 
HETATM   41  C22 UNL     1      16.574  24.241  15.910  1.00  0.00     0.232 C 
ATOM     42  H82 UNL     1      15.604  25.449  17.275  1.00  0.00     0.277 HD
ATOM     43  H81 UNL     1      16.221  26.264  16.118  1.00  0.00     0.277 HD
HETATM   44  C23 UNL     1      17.635  24.445  14.867  1.00  0.00     0.032 C 
ENDBRANCH  36  37
ENDBRANCH  35  36
ENDBRANCH  34  35
ENDBRANCH  33  34
ENDBRANCH   9  33
TORSDOF 13
ENDMDL
MODEL 2
REMARK VINA RESULT: -8.394750039      2.950      6.460
REMARK  13 active torsions:
REMARK  status: ('A' for Active; 'I' for Inactive)
REMARK    1  A    between atoms: N1_2  and  C3_4 
REMARK    2  A    between atoms: C3_4  and  C4_6 
REMARK    3  A    between atoms: C4_6  and  C5_7 
REMARK       I    between atoms: C5_7  and  N2_9 
REMARK    4  A    between atoms: C7_16  and  C8_17 
REMARK    5  A    between atoms: C8_17  and  C9_18 
REMARK    6  A    between atoms: C9_18  and  C10_19 
REMARK    7  A    between atoms: C10_19  and  C11_20 
REMARK    8  A    between atoms: C11_20  and  C12_21 
REMARK       I    between atoms: N7_27  and  C14_29 
REMARK    9  A    between atoms: C14_29  and  C15_31 
REMARK   10  A    between atoms: C15_31  and  C16_32 
REMARK   11  A    between atoms: C16_32  and  C17_33 
REMARK   12  A    between atoms: C17_33  and  C18_34 
REMARK   13  A    between atoms: C18_34  and  C19_35 
ROOT
HETATM    1  C12 UNL     1      20.233  26.235  18.399  1.00  0.00     0.069 A 
HETATM    2  N5  UNL     1      18.953  25.931  18.519  1.00  0.00    -0.296 N 
ATOM      3  H5  UNL     1      18.245  26.596  18.208  1.00  0.00     0.187 HD
HETATM    4  N6  UNL     1      18.597  24.820  19.016  1.00  0.00    -0.279 N 
ATOM      5  H6  UNL     1      17.606  24.595  19.103  1.00  0.00     0.189 HD
HETATM    6  C13 UNL     1      19.515  23.950  19.424  1.00  0.00     0.167 A 
HETATM    7  N7  UNL     1      19.463  22.782  19.947  1.00  0.00    -0.306 N 
ATOM      8  H7  UNL     1      20.355  22.335  20.164  1.00  0.00     0.171 HD
HETATM    9  C14 UNL     1      18.325  22.069  20.247  1.00  0.00     0.223 C 
HETATM   10  O2  UNL     1      18.348  21.377  21.326  1.00  0.00    -0.273 OA
HETATM   11  S2  UNL     1      20.974  24.843  19.041  1.00  0.00    -0.038 SA
ENDROOT
BRANCH   1  12
HETATM   12  C11 UNL     1      20.851  27.492  17.837  1.00  0.00     0.066 C 
BRANCH  12  13
HETATM   13  C10 UNL     1      21.339  27.213  16.460  1.00  0.00     0.007 C 
BRANCH  13  14
HETATM   14  C9  UNL     1      20.490  27.807  15.374  1.00  0.00     0.007 C 
BRANCH  14  15
HETATM   15  C8  UNL     1      20.029  26.806  14.361  1.00  0.00     0.066 C 
BRANCH  15  16
HETATM   16  C7  UNL     1      18.805  26.079  14.856  1.00  0.00     0.069 A 
HETATM   17  N4  UNL     1      17.549  26.495  14.883  1.00  0.00    -0.296 N 
HETATM   18  N3  UNL     1      16.632  25.746  15.340  1.00  0.00    -0.279 N 
ATOM     19  H4  UNL     1      17.316  27.425  14.535  1.00  0.00     0.187 HD
HETATM   20  C6  UNL     1      16.942  24.534  15.792  1.00  0.00     0.167 A 
ATOM     21  H3  UNL     1      15.666  26.071  15.360  1.00  0.00     0.189 HD
HETATM   22  N2  UNL     1      16.202  23.609  16.294  1.00  0.00    -0.306 N 
HETATM   23  S3  UNL     1      18.655  24.516  15.527  1.00  0.00    -0.038 SA
HETATM   24  C5  UNL     1      14.837  23.599  16.516  1.00  0.00     0.230 C 
ATOM     25  H2  UNL     1      16.694  22.758  16.567  1.00  0.00     0.171 HD
HETATM   26  O1  UNL     1      14.423  23.634  17.699  1.00  0.00    -0.273 OA
BRANCH  24  27
HETATM   27  C4  UNL     1      13.842  23.546  15.423  1.00  0.00     0.172 C 
BRANCH  27  28
HETATM   28  C3  UNL     1      13.663  22.200  14.862  1.00  0.00     0.083 C 
HETATM   29  S1  UNL     1      14.782  21.591  13.830  1.00  0.00    -0.065 SA
BRANCH  28  30
HETATM   30  N1  UNL     1      12.550  21.404  15.185  1.00  0.00    -0.384 N 
HETATM   31  C1  UNL     1      11.231  21.751  14.654  1.00  0.00     0.149 C 
HETATM   32  C2  UNL     1      12.585  20.236  16.037  1.00  0.00     0.149 C 
ENDBRANCH  28  30
ENDBRANCH  27  28
ENDBRANCH  24  27
ENDBRANCH  15  16
ENDBRANCH  14  15
ENDBRANCH  13  14
ENDBRANCH  12  13
ENDBRANCH   1  12
BRANCH   9  33
HETATM   33  C15 UNL     1      17.057  21.990  19.491  1.00  0.00     0.103 C 
BRANCH  33  34
HETATM   34  C16 UNL     1      17.114  20.858  18.482  1.00  0.00     0.009 C 
BRANCH  34  35
HETATM   35  C17 UNL     1      15.727  20.549  17.994  1.00  0.00     0.001 C 
BRANCH  35  36
HETATM   36  C18 UNL     1      14.810  20.383  19.169  1.00  0.00     0.005 C 
BRANCH  36  37
HETATM   37  C19 UNL     1      14.597  18.954  19.576  1.00  0.00    -0.011 C 
HETATM   38  C20 UNL     1      13.493  18.750  20.558  1.00  0.00     0.032 C 
HETATM   39  C21 UNL     1      12.127  18.870  19.925  1.00  0.00     0.232 C 
HETATM   40  N8  UNL     1      12.032  18.111  18.705  1.00  0.00    -0.075 N 
HETATM   41  C22 UNL     1      13.176  17.223  18.586  1.00  0.00     0.232 C 
ATOM     42  H82 UNL     1      11.148  17.607  18.634  1.00  0.00     0.277 HD
ATOM     43  H81 UNL     1      11.927  18.712  17.887  1.00  0.00     0.277 HD
HETATM   44  C23 UNL     1      14.415  18.047  18.381  1.00  0.00     0.032 C 
ENDBRANCH  36  37
ENDBRANCH  35  36
ENDBRANCH  34  35
ENDBRANCH  33  34
ENDBRANCH   9  33
TORSDOF 13
ENDMDL
MODEL 3
REMARK VINA RESULT: -8.391975830      1.929      2.797
REMARK  13 active torsions:
REMARK  status: ('A' for Active; 'I' for Inactive)
REMARK    1  A    between atoms: N1_2  and  C3_4 
REMARK    2  A    between atoms: C3_4  and  C4_6 
REMARK    3  A    between atoms: C4_6  and  C5_7 
REMARK       I    between atoms: C5_7  and  N2_9 
REMARK    4  A    between atoms: C7_16  and  C8_17 
REMARK    5  A    between atoms: C8_17  and  C9_18 
REMARK    6  A    between atoms: C9_18  and  C10_19 
REMARK    7  A    between atoms: C10_19  and  C11_20 
REMARK    8  A    between atoms: C11_20  and  C12_21 
REMARK       I    between atoms: N7_27  and  C14_29 
REMARK    9  A    between atoms: C14_29  and  C15_31 
REMARK   10  A    between atoms: C15_31  and  C16_32 
REMARK   11  A    between atoms: C16_32  and  C17_33 
REMARK   12  A    between atoms: C17_33  and  C18_34 
REMARK   13  A    between atoms: C18_34  and  C19_35 
ROOT
HETATM    1  C12 UNL     1      20.589  24.976  20.263  1.00  0.00     0.069 A 
HETATM    2  N5  UNL     1      21.309  24.605  19.219  1.00  0.00    -0.296 N 
ATOM      3  H5  UNL     1      21.157  23.686  18.802  1.00  0.00     0.187 HD
HETATM    4  N6  UNL     1      22.185  25.379  18.730  1.00  0.00    -0.279 N 
ATOM      5  H6  UNL     1      22.735  25.083  17.924  1.00  0.00     0.189 HD
HETATM    6  C13 UNL     1      22.388  26.578  19.270  1.00  0.00     0.167 A 
HETATM    7  N7  UNL     1      23.176  27.552  19.002  1.00  0.00    -0.306 N 
ATOM      8  H7  UNL     1      23.111  28.374  19.603  1.00  0.00     0.171 HD
HETATM    9  C14 UNL     1      24.102  27.600  17.986  1.00  0.00     0.223 C 
HETATM   10  O2  UNL     1      25.214  28.182  18.249  1.00  0.00    -0.273 OA
HETATM   11  S2  UNL     1      21.208  26.533  20.564  1.00  0.00    -0.038 SA
ENDROOT
BRANCH   1  12
HETATM   12  C11 UNL     1      19.507  24.206  20.979  1.00  0.00     0.066 C 
BRANCH  12  13
HETATM   13  C10 UNL     1      18.184  24.767  20.596  1.00  0.00     0.007 C 
BRANCH  13  14
HETATM   14  C9  UNL     1      17.470  23.988  19.529  1.00  0.00     0.007 C 
BRANCH  14  15
HETATM   15  C8  UNL     1      17.229  22.557  19.895  1.00  0.00     0.066 C 
BRANCH  15  16
HETATM   16  C7  UNL     1      16.033  22.017  19.153  1.00  0.00     0.069 A 
HETATM   17  N4  UNL     1      14.891  22.623  18.869  1.00  0.00    -0.296 N 
HETATM   18  N3  UNL     1      13.980  22.012  18.231  1.00  0.00    -0.279 N 
ATOM     19  H4  UNL     1      14.742  23.587  19.165  1.00  0.00     0.187 HD
HETATM   20  C6  UNL     1      14.180  20.755  17.847  1.00  0.00     0.167 A 
ATOM     21  H3  UNL     1      13.101  22.483  18.015  1.00  0.00     0.189 HD
HETATM   22  N2  UNL     1      13.420  19.942  17.201  1.00  0.00    -0.306 N 
HETATM   23  S3  UNL     1      15.778  20.478  18.459  1.00  0.00    -0.038 SA
HETATM   24  C5  UNL     1      12.145  20.138  16.703  1.00  0.00     0.230 C 
ATOM     25  H2  UNL     1      13.818  19.017  17.030  1.00  0.00     0.171 HD
HETATM   26  O1  UNL     1      11.191  19.531  17.246  1.00  0.00    -0.273 OA
BRANCH  24  27
HETATM   27  C4  UNL     1      11.854  21.028  15.559  1.00  0.00     0.172 C 
BRANCH  27  28
HETATM   28  C3  UNL     1      12.965  21.131  14.603  1.00  0.00     0.083 C 
HETATM   29  S1  UNL     1      13.153  19.986  13.444  1.00  0.00    -0.065 SA
BRANCH  28  30
HETATM   30  N1  UNL     1      13.885  22.194  14.648  1.00  0.00    -0.384 N 
HETATM   31  C1  UNL     1      13.439  23.524  15.065  1.00  0.00     0.149 C 
HETATM   32  C2  UNL     1      15.284  22.094  14.294  1.00  0.00     0.149 C 
ENDBRANCH  28  30
ENDBRANCH  27  28
ENDBRANCH  24  27
ENDBRANCH  15  16
ENDBRANCH  14  15
ENDBRANCH  13  14
ENDBRANCH  12  13
ENDBRANCH   1  12
BRANCH   9  33
HETATM   33  C15 UNL     1      23.996  27.065  16.612  1.00  0.00     0.103 C 
BRANCH  33  34
HETATM   34  C16 UNL     1      23.493  28.138  15.664  1.00  0.00     0.009 C 
BRANCH  34  35
HETATM   35  C17 UNL     1      22.189  27.703  15.059  1.00  0.00     0.001 C 
BRANCH  35  36
HETATM   36  C18 UNL     1      21.983  26.240  15.316  1.00  0.00     0.005 C 
BRANCH  36  37
HETATM   37  C19 UNL     1      20.796  25.660  14.602  1.00  0.00    -0.011 C 
HETATM   38  C20 UNL     1      20.094  24.578  15.352  1.00  0.00     0.032 C 
HETATM   39  C21 UNL     1      19.262  25.112  16.494  1.00  0.00     0.232 C 
HETATM   40  N8  UNL     1      18.447  26.229  16.089  1.00  0.00    -0.075 N 
HETATM   41  C22 UNL     1      18.443  26.336  14.640  1.00  0.00     0.232 C 
ATOM     42  H82 UNL     1      17.504  26.174  16.472  1.00  0.00     0.277 HD
ATOM     43  H81 UNL     1      18.738  27.098  16.536  1.00  0.00     0.277 HD
HETATM   44  C23 UNL     1      19.816  26.727  14.175  1.00  0.00     0.032 C 
ENDBRANCH  36  37
ENDBRANCH  35  36
ENDBRANCH  34  35
ENDBRANCH  33  34
ENDBRANCH   9  33
TORSDOF 13
ENDMDL
MODEL 4
REMARK VINA RESULT: -8.385214898      0.731      1.145
REMARK  13 active torsions:
REMARK  status: ('A' for Active; 'I' for Inactive)
REMARK    1  A    between atoms: N1_2  and  C3_4 
REMARK    2  A    between atoms: C3_4  and  C4_6 
REMARK    3  A    between atoms: C4_6  and  C5_7 
REMARK       I    between atoms: C5_7  and  N2_9 
REMARK    4  A    between atoms: C7_16  and  C8_17 
REMARK    5  A    between atoms: C8_17  and  C9_18 
REMARK    6  A    between atoms: C9_18  and  C10_19 
REMARK    7  A    between atoms: C10_19  and  C11_20 
REMARK    8  A    between atoms: C11_20  and  C12_21 
REMARK       I    between atoms: N7_27  and  C14_29 
REMARK    9  A    between atoms: C14_29  and  C15_31 
REMARK   10  A    between atoms: C15_31  and  C16_32 
REMARK   11  A    between atoms: C16_32  and  C17_33 
REMARK   12  A    between atoms: C17_33  and  C18_34 
REMARK   13  A    between atoms: C18_34  and  C19_35 
ROOT
HETATM    1  C12 UNL     1      21.050  25.590  20.210  1.00  0.00     0.069 A 
HETATM    2  N5  UNL     1      21.693  25.050  19.190  1.00  0.00    -0.296 N 
ATOM      3  H5  UNL     1      21.647  24.042  19.041  1.00  0.00     0.187 HD
HETATM    4  N6  UNL     1      22.366  25.772  18.394  1.00  0.00    -0.279 N 
ATOM      5  H6  UNL     1      22.859  25.345  17.610  1.00  0.00     0.189 HD
HETATM    6  C13 UNL     1      22.431  27.086  18.584  1.00  0.00     0.167 A 
HETATM    7  N7  UNL     1      23.011  28.047  17.965  1.00  0.00    -0.306 N 
ATOM      8  H7  UNL     1      22.882  28.984  18.347  1.00  0.00     0.171 HD
HETATM    9  C14 UNL     1      23.790  27.940  16.835  1.00  0.00     0.223 C 
HETATM   10  O2  UNL     1      24.814  28.709  16.769  1.00  0.00    -0.273 OA
HETATM   11  S2  UNL     1      21.435  27.238  20.018  1.00  0.00    -0.038 SA
ENDROOT
BRANCH   1  12
HETATM   12  C11 UNL     1      20.202  24.907  21.254  1.00  0.00     0.066 C 
BRANCH  12  13
HETATM   13  C10 UNL     1      18.952  24.419  20.614  1.00  0.00     0.007 C 
BRANCH  13  14
HETATM   14  C9  UNL     1      18.638  22.978  20.895  1.00  0.00     0.007 C 
BRANCH  14  15
HETATM   15  C8  UNL     1      18.900  22.072  19.734  1.00  0.00     0.066 C 
BRANCH  15  16
HETATM   16  C7  UNL     1      17.646  21.877  18.921  1.00  0.00     0.069 A 
HETATM   17  N4  UNL     1      17.464  21.126  17.846  1.00  0.00    -0.296 N 
HETATM   18  N3  UNL     1      16.330  21.080  17.279  1.00  0.00    -0.279 N 
ATOM     19  H4  UNL     1      18.240  20.582  17.472  1.00  0.00     0.187 HD
HETATM   20  C6  UNL     1      15.321  21.791  17.772  1.00  0.00     0.167 A 
ATOM     21  H3  UNL     1      16.194  20.500  16.450  1.00  0.00     0.189 HD
HETATM   22  N2  UNL     1      14.101  21.906  17.380  1.00  0.00    -0.306 N 
HETATM   23  S3  UNL     1      16.092  22.554  19.125  1.00  0.00    -0.038 SA
HETATM   24  C5  UNL     1      13.463  21.310  16.307  1.00  0.00     0.230 C 
ATOM     25  H2  UNL     1      13.519  22.527  17.943  1.00  0.00     0.171 HD
HETATM   26  O1  UNL     1      13.133  22.028  15.334  1.00  0.00    -0.273 OA
BRANCH  24  27
HETATM   27  C4  UNL     1      13.150  19.866  16.256  1.00  0.00     0.172 C 
BRANCH  27  28
HETATM   28  C3  UNL     1      12.620  19.339  17.520  1.00  0.00     0.083 C 
HETATM   29  S1  UNL     1      11.003  19.346  17.794  1.00  0.00    -0.065 SA
BRANCH  28  30
HETATM   30  N1  UNL     1      13.464  18.820  18.519  1.00  0.00    -0.384 N 
HETATM   31  C1  UNL     1      13.366  19.327  19.888  1.00  0.00     0.149 C 
HETATM   32  C2  UNL     1      14.468  17.800  18.308  1.00  0.00     0.149 C 
ENDBRANCH  28  30
ENDBRANCH  27  28
ENDBRANCH  24  27
ENDBRANCH  15  16
ENDBRANCH  14  15
ENDBRANCH  13  14
ENDBRANCH  12  13
ENDBRANCH   1  12
BRANCH   9  33
HETATM   33  C15 UNL     1      23.613  27.049  15.670  1.00  0.00     0.103 C 
BRANCH  33  34
HETATM   34  C16 UNL     1      22.324  27.382  14.941  1.00  0.00     0.009 C 
BRANCH  34  35
HETATM   35  C17 UNL     1      21.417  26.184  14.949  1.00  0.00     0.001 C 
BRANCH  35  36
HETATM   36  C18 UNL     1      20.130  26.527  14.262  1.00  0.00     0.005 C 
BRANCH  36  37
HETATM   37  C19 UNL     1      18.962  26.669  15.195  1.00  0.00    -0.011 C 
HETATM   38  C20 UNL     1      17.845  25.715  14.934  1.00  0.00     0.032 C 
HETATM   39  C21 UNL     1      18.162  24.312  15.395  1.00  0.00     0.232 C 
HETATM   40  N8  UNL     1      18.705  24.296  16.729  1.00  0.00    -0.075 N 
HETATM   41  C22 UNL     1      18.524  25.595  17.352  1.00  0.00     0.232 C 
ATOM     42  H82 UNL     1      18.312  23.542  17.293  1.00  0.00     0.277 HD
ATOM     43  H81 UNL     1      19.680  23.997  16.741  1.00  0.00     0.277 HD
HETATM   44  C23 UNL     1      19.386  26.601  16.644  1.00  0.00     0.032 C 
ENDBRANCH  36  37
ENDBRANCH  35  36
ENDBRANCH  34  35
ENDBRANCH  33  34
ENDBRANCH   9  33
TORSDOF 13
ENDMDL
MODEL 5
REMARK VINA RESULT: -8.378678642      1.690      2.487
REMARK  13 active torsions:
REMARK  status: ('A' for Active; 'I' for Inactive)
REMARK    1  A    between atoms: N1_2  and  C3_4 
REMARK    2  A    between atoms: C3_4  and  C4_6 
REMARK    3  A    between atoms: C4_6  and  C5_7 
REMARK       I    between atoms: C5_7  and  N2_9 
REMARK    4  A    between atoms: C7_16  and  C8_17 
REMARK    5  A    between atoms: C8_17  and  C9_18 
REMARK    6  A    between atoms: C9_18  and  C10_19 
REMARK    7  A    between atoms: C10_19  and  C11_20 
REMARK    8  A    between atoms: C11_20  and  C12_21 
REMARK       I    between atoms: N7_27  and  C14_29 
REMARK    9  A    between atoms: C14_29  and  C15_31 
REMARK   10  A    between atoms: C15_31  and  C16_32 
REMARK   11  A    between atoms: C16_32  and  C17_33 
REMARK   12  A    between atoms: C17_33  and  C18_34 
REMARK   13  A    between atoms: C18_34  and  C19_35 
ROOT
HETATM    1  C12 UNL     1      20.619  25.259  19.958  1.00  0.00     0.069 A 
HETATM    2  N5  UNL     1      21.045  24.886  18.765  1.00  0.00    -0.296 N 
ATOM      3  H5  UNL     1      20.919  23.919  18.464  1.00  0.00     0.187 HD
HETATM    4  N6  UNL     1      21.608  25.716  17.990  1.00  0.00    -0.279 N 
ATOM      5  H6  UNL     1      21.933  25.418  17.071  1.00  0.00     0.189 HD
HETATM    6  C13 UNL     1      21.775  26.977  18.378  1.00  0.00     0.167 A 
HETATM    7  N7  UNL     1      22.290  28.015  17.830  1.00  0.00    -0.306 N 
ATOM      8  H7  UNL     1      22.281  28.876  18.378  1.00  0.00     0.171 HD
HETATM    9  C14 UNL     1      22.855  28.084  16.577  1.00  0.00     0.223 C 
HETATM   10  O2  UNL     1      23.892  28.829  16.455  1.00  0.00    -0.273 OA
HETATM   11  S2  UNL     1      21.053  26.905  19.973  1.00  0.00    -0.038 SA
ENDROOT
BRANCH   1  12
HETATM   12  C11 UNL     1      19.929  24.428  21.012  1.00  0.00     0.066 C 
BRANCH  12  13
HETATM   13  C10 UNL     1      18.471  24.720  20.976  1.00  0.00     0.007 C 
BRANCH  13  14
HETATM   14  C9  UNL     1      17.752  24.122  19.801  1.00  0.00     0.007 C 
BRANCH  14  15
HETATM   15  C8  UNL     1      18.006  22.657  19.628  1.00  0.00     0.066 C 
BRANCH  15  16
HETATM   16  C7  UNL     1      16.786  21.972  19.067  1.00  0.00     0.069 A 
HETATM   17  N4  UNL     1      15.511  22.282  19.234  1.00  0.00    -0.296 N 
HETATM   18  N3  UNL     1      14.602  21.589  18.683  1.00  0.00    -0.279 N 
ATOM     19  H4  UNL     1      15.256  23.085  19.809  1.00  0.00     0.187 HD
HETATM   20  C6  UNL     1      14.940  20.544  17.933  1.00  0.00     0.167 A 
ATOM     21  H3  UNL     1      13.620  21.832  18.815  1.00  0.00     0.189 HD
HETATM   22  N2  UNL     1      14.213  19.704  17.284  1.00  0.00    -0.306 N 
HETATM   23  S3  UNL     1      16.668  20.600  18.056  1.00  0.00    -0.038 SA
HETATM   24  C5  UNL     1      12.836  19.637  17.171  1.00  0.00     0.230 C 
ATOM     25  H2  UNL     1      14.727  18.982  16.779  1.00  0.00     0.171 HD
HETATM   26  O1  UNL     1      12.234  18.692  17.733  1.00  0.00    -0.273 OA
BRANCH  24  27
HETATM   27  C4  UNL     1      12.040  20.628  16.415  1.00  0.00     0.172 C 
BRANCH  27  28
HETATM   28  C3  UNL     1      12.518  20.834  15.040  1.00  0.00     0.083 C 
HETATM   29  S1  UNL     1      11.876  19.955  13.814  1.00  0.00    -0.065 SA
BRANCH  28  30
HETATM   30  N1  UNL     1      13.520  21.772  14.736  1.00  0.00    -0.384 N 
HETATM   31  C1  UNL     1      14.714  21.349  14.003  1.00  0.00     0.149 C 
HETATM   32  C2  UNL     1      13.486  23.171  15.106  1.00  0.00     0.149 C 
ENDBRANCH  28  30
ENDBRANCH  27  28
ENDBRANCH  24  27
ENDBRANCH  15  16
ENDBRANCH  14  15
ENDBRANCH  13  14
ENDBRANCH  12  13
ENDBRANCH   1  12
BRANCH   9  33
HETATM   33  C15 UNL     1      22.430  27.410  15.333  1.00  0.00     0.103 C 
BRANCH  33  34
HETATM   34  C16 UNL     1      21.103  27.970  14.854  1.00  0.00     0.009 C 
BRANCH  34  35
HETATM   35  C17 UNL     1      20.338  26.900  14.128  1.00  0.00     0.001 C 
BRANCH  35  36
HETATM   36  C18 UNL     1      18.987  26.738  14.757  1.00  0.00     0.005 C 
BRANCH  36  37
HETATM   37  C19 UNL     1      18.974  25.815  15.941  1.00  0.00    -0.011 C 
HETATM   38  C20 UNL     1      17.667  25.750  16.658  1.00  0.00     0.032 C 
HETATM   39  C21 UNL     1      16.633  24.948  15.905  1.00  0.00     0.232 C 
HETATM   40  N8  UNL     1      17.161  23.690  15.443  1.00  0.00    -0.075 N 
HETATM   41  C22 UNL     1      18.440  23.429  16.078  1.00  0.00     0.232 C 
ATOM     42  H82 UNL     1      16.501  22.924  15.580  1.00  0.00     0.277 HD
ATOM     43  H81 UNL     1      17.223  23.652  14.425  1.00  0.00     0.277 HD
HETATM   44  C23 UNL     1      19.446  24.426  15.579  1.00  0.00     0.032 C 
ENDBRANCH  36  37
ENDBRANCH  35  36
ENDBRANCH  34  35
ENDBRANCH  33  34
ENDBRANCH   9  33
TORSDOF 13
ENDMDL
