MODEL 1
REMARK VINA RESULT: -7.144058185      0.000      0.000
REMARK  6 active torsions:
REMARK  status: ('A' for Active; 'I' for Inactive)
REMARK    1  A    between atoms: N1_2  and  C2_3 
REMARK    2  A    between atoms: N1_2  and  C7_21 
REMARK    3  A    between atoms: C3_6  and  N3_7 
REMARK    4  A    between atoms: N3_7  and  C4_9 
REMARK    5  A    between atoms: C4_9  and  C5_10 
REMARK    6  A    between atoms: C6_15  and  N6_16 
ROOT
HETATM    1  C2  UNL     1      30.555  41.261   8.918  1.00  0.00     0.727 A 
HETATM    2  N2  UNL     1      30.668  40.154   9.667  1.00  0.00    -0.021 N 
ATOM      3  H2  UNL     1      30.001  39.397   9.513  1.00  0.00     0.203 HD
HETATM    4  C3  UNL     1      31.626  39.988  10.623  1.00  0.00     0.707 A 
HETATM    5  N5  UNL     1      32.476  41.014  10.785  1.00  0.00    -0.022 N 
ATOM      6  H5  UNL     1      33.211  40.938  11.488  1.00  0.00     0.203 HD
HETATM    7  C6  UNL     1      32.395  42.136  10.054  1.00  0.00     0.705 A 
HETATM    8  N7  UNL     1      31.447  42.277   9.123  1.00  0.00    -0.021 N 
ATOM      9  H7  UNL     1      31.390  43.133   8.571  1.00  0.00     0.203 HD
ENDROOT
BRANCH   1  10
HETATM   10  N1  UNL     1      29.536  41.407   7.919  1.00  0.00    -0.017 N 
HETATM   11  C1  UNL     1      28.467  42.354   8.079  1.00  0.00     0.195 C 
BRANCH  10  12
HETATM   12  C7  UNL     1      29.594  40.600   6.765  1.00  0.00     0.708 A 
HETATM   13  N8  UNL     1      29.395  39.254   6.891  1.00  0.00    -0.186 N 
HETATM   14  C8  UNL     1      29.429  38.434   5.844  1.00  0.00     0.199 A 
ATOM     15  H8  UNL     1      29.214  38.866   7.817  1.00  0.00     0.185 HD
HETATM   16  N9  UNL     1      29.664  38.934   4.631  1.00  0.00    -0.334 N 
HETATM   17  C9  UNL     1      29.865  40.236   4.440  1.00  0.00     0.172 A 
ATOM     18  H9  UNL     1      29.689  38.304   3.829  1.00  0.00     0.168 HD
HETATM   19  C10 UNL     1      30.118  40.985   3.284  1.00  0.00     0.162 A 
HETATM   20  N12 UNL     1      29.828  41.060   5.513  1.00  0.00    -0.124 N 
HETATM   21  N10 UNL     1      30.225  40.432   1.976  1.00  0.00    -0.079 NA
HETATM   22  N11 UNL     1      30.227  42.252   3.698  1.00  0.00    -0.337 N 
HETATM   23  C11 UNL     1      30.048  42.284   5.049  1.00  0.00     0.210 A 
ATOM     24  H11 UNL     1      30.414  43.059   3.104  1.00  0.00     0.168 HD
ENDBRANCH  10  12
ENDBRANCH   1  10
BRANCH   4  25
HETATM   25  N3  UNL     1      31.646  38.887  11.282  1.00  0.00    -0.217 N 
ATOM     26  H3  UNL     1      30.877  38.634  11.904  1.00  0.00     0.178 HD
BRANCH  25  27
HETATM   27  C4  UNL     1      32.786  38.013  11.119  1.00  0.00     0.237 C 
BRANCH  27  28
HETATM   28  C5  UNL     1      32.762  37.324   9.802  1.00  0.00     0.249 C 
HETATM   29  N4  UNL     1      33.978  36.793   9.310  1.00  0.00    -0.061 NA
HETATM   30  O1  UNL     1      31.690  37.220   9.152  1.00  0.00    -0.275 OA
ENDBRANCH  27  28
ENDBRANCH  25  27
ENDBRANCH   4  25
BRANCH   7  31
HETATM   31  N6  UNL     1      33.234  43.077  10.254  1.00  0.00    -0.234 N 
ATOM     32  H62 UNL     1      34.225  42.922  10.067  1.00  0.00     0.174 HD
ATOM     33  H61 UNL     1      32.903  43.978  10.600  1.00  0.00     0.174 HD
ENDBRANCH   7  31
TORSDOF 6
ENDMDL
MODEL 2
REMARK VINA RESULT: -7.099074949      2.886      6.479
REMARK  6 active torsions:
REMARK  status: ('A' for Active; 'I' for Inactive)
REMARK    1  A    between atoms: N1_2  and  C2_3 
REMARK    2  A    between atoms: N1_2  and  C7_21 
REMARK    3  A    between atoms: C3_6  and  N3_7 
REMARK    4  A    between atoms: N3_7  and  C4_9 
REMARK    5  A    between atoms: C4_9  and  C5_10 
REMARK    6  A    between atoms: C6_15  and  N6_16 
ROOT
HETATM    1  C2  UNL     1      29.700  40.694   6.913  1.00  0.00     0.727 A 
HETATM    2  N2  UNL     1      29.808  40.756   5.578  1.00  0.00    -0.021 N 
ATOM      3  H2  UNL     1      29.833  41.676   5.137  1.00  0.00     0.203 HD
HETATM    4  C3  UNL     1      29.885  39.654   4.778  1.00  0.00     0.707 A 
HETATM    5  N5  UNL     1      29.847  38.469   5.408  1.00  0.00    -0.022 N 
ATOM      6  H5  UNL     1      29.901  37.614   4.853  1.00  0.00     0.203 HD
HETATM    7  C6  UNL     1      29.739  38.368   6.742  1.00  0.00     0.705 A 
HETATM    8  N7  UNL     1      29.664  39.462   7.505  1.00  0.00    -0.021 N 
ATOM      9  H7  UNL     1      29.582  39.379   8.518  1.00  0.00     0.203 HD
ENDROOT
BRANCH   1  10
HETATM   10  N1  UNL     1      29.620  41.872   7.728  1.00  0.00    -0.017 N 
HETATM   11  C1  UNL     1      28.511  42.779   7.621  1.00  0.00     0.195 C 
BRANCH  10  12
HETATM   12  C7  UNL     1      30.657  42.134   8.646  1.00  0.00     0.708 A 
HETATM   13  N8  UNL     1      30.468  41.817   9.962  1.00  0.00    -0.186 N 
HETATM   14  C8  UNL     1      31.407  42.031  10.881  1.00  0.00     0.199 A 
ATOM     15  H8  UNL     1      29.581  41.404  10.248  1.00  0.00     0.185 HD
HETATM   16  N9  UNL     1      32.570  42.569  10.513  1.00  0.00    -0.334 N 
HETATM   17  C9  UNL     1      32.817  42.900   9.248  1.00  0.00     0.172 A 
ATOM     18  H9  UNL     1      33.288  42.732  11.219  1.00  0.00     0.168 HD
HETATM   19  C10 UNL     1      33.941  43.460   8.628  1.00  0.00     0.162 A 
HETATM   20  N12 UNL     1      31.855  42.677   8.323  1.00  0.00    -0.124 N 
HETATM   21  N10 UNL     1      35.137  43.822   9.311  1.00  0.00    -0.079 NA
HETATM   22  N11 UNL     1      33.619  43.561   7.334  1.00  0.00    -0.337 N 
HETATM   23  C11 UNL     1      32.355  43.083   7.162  1.00  0.00     0.210 A 
ATOM     24  H11 UNL     1      34.220  43.933   6.599  1.00  0.00     0.168 HD
ENDBRANCH  10  12
ENDBRANCH   1  10
BRANCH   4  25
HETATM   25  N3  UNL     1      29.989  39.826   3.510  1.00  0.00    -0.217 N 
ATOM     26  H3  UNL     1      30.690  39.319   2.969  1.00  0.00     0.178 HD
BRANCH  25  27
HETATM   27  C4  UNL     1      29.087  40.756   2.870  1.00  0.00     0.237 C 
BRANCH  27  28
HETATM   28  C5  UNL     1      29.166  40.661   1.389  1.00  0.00     0.249 C 
HETATM   29  N4  UNL     1      28.688  39.479   0.775  1.00  0.00    -0.061 NA
HETATM   30  O1  UNL     1      29.643  41.606   0.710  1.00  0.00    -0.275 OA
ENDBRANCH  27  28
ENDBRANCH  25  27
ENDBRANCH   4  25
BRANCH   7  31
HETATM   31  N6  UNL     1      29.708  37.212   7.282  1.00  0.00    -0.234 N 
ATOM     32  H62 UNL     1      29.329  36.419   6.764  1.00  0.00     0.174 HD
ATOM     33  H61 UNL     1      30.066  37.093   8.230  1.00  0.00     0.174 HD
ENDBRANCH   7  31
TORSDOF 6
ENDMDL
MODEL 3
REMARK VINA RESULT: -6.987170479      1.602      2.687
REMARK  6 active torsions:
REMARK  status: ('A' for Active; 'I' for Inactive)
REMARK    1  A    between atoms: N1_2  and  C2_3 
REMARK    2  A    between atoms: N1_2  and  C7_21 
REMARK    3  A    between atoms: C3_6  and  N3_7 
REMARK    4  A    between atoms: N3_7  and  C4_9 
REMARK    5  A    between atoms: C4_9  and  C5_10 
REMARK    6  A    between atoms: C6_15  and  N6_16 
ROOT
HETATM    1  C2  UNL     1      30.814  40.544   6.800  1.00  0.00     0.727 A 
HETATM    2  N2  UNL     1      30.763  39.949   8.001  1.00  0.00    -0.021 N 
ATOM      3  H2  UNL     1      30.058  39.229   8.153  1.00  0.00     0.203 HD
HETATM    4  C3  UNL     1      31.605  40.258   9.029  1.00  0.00     0.707 A 
HETATM    5  N5  UNL     1      32.514  41.213   8.775  1.00  0.00    -0.022 N 
ATOM      6  H5  UNL     1      33.166  41.480   9.513  1.00  0.00     0.203 HD
HETATM    7  C6  UNL     1      32.595  41.830   7.587  1.00  0.00     0.705 A 
HETATM    8  N7  UNL     1      31.759  41.512   6.594  1.00  0.00    -0.021 N 
ATOM      9  H7  UNL     1      31.824  41.985   5.693  1.00  0.00     0.203 HD
ENDROOT
BRANCH   1  10
HETATM   10  N1  UNL     1      29.914  40.199   5.738  1.00  0.00    -0.017 N 
HETATM   11  C1  UNL     1      29.445  38.851   5.568  1.00  0.00     0.195 C 
BRANCH  10  12
HETATM   12  C7  UNL     1      29.493  41.208   4.849  1.00  0.00     0.708 A 
HETATM   13  N8  UNL     1      28.991  42.371   5.362  1.00  0.00    -0.186 N 
HETATM   14  C8  UNL     1      28.581  43.367   4.582  1.00  0.00     0.199 A 
ATOM     15  H8  UNL     1      28.928  42.477   6.374  1.00  0.00     0.185 HD
HETATM   16  N9  UNL     1      28.661  43.235   3.257  1.00  0.00    -0.334 N 
HETATM   17  C9  UNL     1      29.141  42.129   2.695  1.00  0.00     0.172 A 
ATOM     18  H9  UNL     1      28.347  44.001   2.661  1.00  0.00     0.168 HD
HETATM   19  C10 UNL     1      29.328  41.764   1.355  1.00  0.00     0.162 A 
HETATM   20  N12 UNL     1      29.555  41.122   3.499  1.00  0.00    -0.124 N 
HETATM   21  N10 UNL     1      28.995  42.590   0.244  1.00  0.00    -0.079 NA
HETATM   22  N11 UNL     1      29.853  40.535   1.392  1.00  0.00    -0.337 N 
HETATM   23  C11 UNL     1      29.987  40.158   2.694  1.00  0.00     0.210 A 
ATOM     24  H11 UNL     1      30.111  39.973   0.580  1.00  0.00     0.168 HD
ENDBRANCH  10  12
ENDBRANCH   1  10
BRANCH   4  25
HETATM   25  N3  UNL     1      31.472  39.625  10.138  1.00  0.00    -0.217 N 
ATOM     26  H3  UNL     1      30.643  39.754  10.718  1.00  0.00     0.178 HD
BRANCH  25  27
HETATM   27  C4  UNL     1      32.528  38.725  10.542  1.00  0.00     0.237 C 
BRANCH  27  28
HETATM   28  C5  UNL     1      32.616  37.547   9.639  1.00  0.00     0.249 C 
HETATM   29  N4  UNL     1      33.870  36.903   9.512  1.00  0.00    -0.061 NA
HETATM   30  O1  UNL     1      31.604  37.142   9.012  1.00  0.00    -0.275 OA
ENDBRANCH  27  28
ENDBRANCH  25  27
ENDBRANCH   4  25
BRANCH   7  31
HETATM   31  N6  UNL     1      33.481  42.731   7.407  1.00  0.00    -0.234 N 
ATOM     32  H62 UNL     1      33.630  43.118   6.475  1.00  0.00     0.174 HD
ATOM     33  H61 UNL     1      34.032  43.056   8.201  1.00  0.00     0.174 HD
ENDBRANCH   7  31
TORSDOF 6
ENDMDL
MODEL 4
REMARK VINA RESULT: -6.953655147      1.199      1.839
REMARK  6 active torsions:
REMARK  status: ('A' for Active; 'I' for Inactive)
REMARK    1  A    between atoms: N1_2  and  C2_3 
REMARK    2  A    between atoms: N1_2  and  C7_21 
REMARK    3  A    between atoms: C3_6  and  N3_7 
REMARK    4  A    between atoms: N3_7  and  C4_9 
REMARK    5  A    between atoms: C4_9  and  C5_10 
REMARK    6  A    between atoms: C6_15  and  N6_16 
ROOT
HETATM    1  C2  UNL     1      29.591  40.680   9.247  1.00  0.00     0.727 A 
HETATM    2  N2  UNL     1      30.821  40.241   9.553  1.00  0.00    -0.021 N 
ATOM      3  H2  UNL     1      31.534  40.257   8.825  1.00  0.00     0.203 HD
HETATM    4  C3  UNL     1      31.167  39.776  10.788  1.00  0.00     0.707 A 
HETATM    5  N5  UNL     1      30.191  39.776  11.709  1.00  0.00    -0.022 N 
ATOM      6  H5  UNL     1      30.400  39.437  12.649  1.00  0.00     0.203 HD
HETATM    7  C6  UNL     1      28.949  40.207  11.440  1.00  0.00     0.705 A 
HETATM    8  N7  UNL     1      28.632  40.659  10.223  1.00  0.00    -0.021 N 
ATOM      9  H7  UNL     1      27.687  40.984  10.023  1.00  0.00     0.203 HD
ENDROOT
BRANCH   1  10
HETATM   10  N1  UNL     1      29.256  41.164   7.939  1.00  0.00    -0.017 N 
HETATM   11  C1  UNL     1      28.708  42.478   7.748  1.00  0.00     0.195 C 
BRANCH  10  12
HETATM   12  C7  UNL     1      29.471  40.323   6.828  1.00  0.00     0.708 A 
HETATM   13  N8  UNL     1      29.520  38.972   7.023  1.00  0.00    -0.186 N 
HETATM   14  C8  UNL     1      29.712  38.120   6.020  1.00  0.00     0.199 A 
ATOM     15  H8  UNL     1      29.405  38.605   7.968  1.00  0.00     0.185 HD
HETATM   16  N9  UNL     1      29.861  38.592   4.782  1.00  0.00    -0.334 N 
HETATM   17  C9  UNL     1      29.824  39.897   4.524  1.00  0.00     0.172 A 
ATOM     18  H9  UNL     1      30.008  37.938   4.013  1.00  0.00     0.168 HD
HETATM   19  C10 UNL     1      29.945  40.621   3.331  1.00  0.00     0.162 A 
HETATM   20  N12 UNL     1      29.627  40.754   5.553  1.00  0.00    -0.124 N 
HETATM   21  N10 UNL     1      30.162  40.031   2.053  1.00  0.00    -0.079 NA
HETATM   22  N11 UNL     1      29.817  41.905   3.680  1.00  0.00    -0.337 N 
HETATM   23  C11 UNL     1      29.624  41.972   5.027  1.00  0.00     0.210 A 
ATOM     24  H11 UNL     1      29.858  42.702   3.044  1.00  0.00     0.168 HD
ENDBRANCH  10  12
ENDBRANCH   1  10
BRANCH   4  25
HETATM   25  N3  UNL     1      32.374  39.382  10.975  1.00  0.00    -0.217 N 
ATOM     26  H3  UNL     1      33.134  40.055  11.078  1.00  0.00     0.178 HD
BRANCH  25  27
HETATM   27  C4  UNL     1      32.628  37.960  11.037  1.00  0.00     0.237 C 
BRANCH  27  28
HETATM   28  C5  UNL     1      32.713  37.362   9.678  1.00  0.00     0.249 C 
HETATM   29  N4  UNL     1      33.953  36.815   9.273  1.00  0.00    -0.061 NA
HETATM   30  O1  UNL     1      31.709  37.346   8.921  1.00  0.00    -0.275 OA
ENDBRANCH  27  28
ENDBRANCH  25  27
ENDBRANCH   4  25
BRANCH   7  31
HETATM   31  N6  UNL     1      28.064  40.183  12.359  1.00  0.00    -0.234 N 
ATOM     32  H62 UNL     1      27.919  39.332  12.902  1.00  0.00     0.174 HD
ATOM     33  H61 UNL     1      27.510  41.020  12.542  1.00  0.00     0.174 HD
ENDBRANCH   7  31
TORSDOF 6
ENDMDL
MODEL 5
REMARK VINA RESULT: -6.913955704      1.304      1.697
REMARK  6 active torsions:
REMARK  status: ('A' for Active; 'I' for Inactive)
REMARK    1  A    between atoms: N1_2  and  C2_3 
REMARK    2  A    between atoms: N1_2  and  C7_21 
REMARK    3  A    between atoms: C3_6  and  N3_7 
REMARK    4  A    between atoms: N3_7  and  C4_9 
REMARK    5  A    between atoms: C4_9  and  C5_10 
REMARK    6  A    between atoms: C6_15  and  N6_16 
ROOT
HETATM    1  C2  UNL     1      30.907  42.173   7.817  1.00  0.00     0.727 A 
HETATM    2  N2  UNL     1      31.073  41.597   9.017  1.00  0.00    -0.021 N 
ATOM      3  H2  UNL     1      30.315  41.023   9.386  1.00  0.00     0.203 HD
HETATM    4  C3  UNL     1      32.201  41.740   9.770  1.00  0.00     0.707 A 
HETATM    5  N5  UNL     1      33.167  42.507   9.238  1.00  0.00    -0.022 N 
ATOM      6  H5  UNL     1      34.031  42.645   9.764  1.00  0.00     0.203 HD
HETATM    7  C6  UNL     1      33.037  43.099   8.041  1.00  0.00     0.705 A 
HETATM    8  N7  UNL     1      31.922  42.945   7.321  1.00  0.00    -0.021 N 
ATOM      9  H7  UNL     1      31.828  43.398   6.412  1.00  0.00     0.203 HD
ENDROOT
BRANCH   1  10
HETATM   10  N1  UNL     1      29.708  42.005   7.048  1.00  0.00    -0.017 N 
HETATM   11  C1  UNL     1      28.568  42.856   7.249  1.00  0.00     0.195 C 
BRANCH  10  12
HETATM   12  C7  UNL     1      29.659  40.980   6.082  1.00  0.00     0.708 A 
HETATM   13  N8  UNL     1      29.473  39.692   6.496  1.00  0.00    -0.186 N 
HETATM   14  C8  UNL     1      29.409  38.677   5.638  1.00  0.00     0.199 A 
ATOM     15  H8  UNL     1      29.379  39.502   7.494  1.00  0.00     0.185 HD
HETATM   16  N9  UNL     1      29.530  38.917   4.332  1.00  0.00    -0.334 N 
HETATM   17  C9  UNL     1      29.713  40.149   3.864  1.00  0.00     0.172 A 
ATOM     18  H9  UNL     1      29.481  38.138   3.676  1.00  0.00     0.168 HD
HETATM   19  C10 UNL     1      29.857  40.645   2.562  1.00  0.00     0.162 A 
HETATM   20  N12 UNL     1      29.775  41.173   4.746  1.00  0.00    -0.124 N 
HETATM   21  N10 UNL     1      29.842  39.837   1.389  1.00  0.00    -0.079 NA
HETATM   22  N11 UNL     1      30.003  41.966   2.699  1.00  0.00    -0.337 N 
HETATM   23  C11 UNL     1      29.951  42.274   4.025  1.00  0.00     0.210 A 
ATOM     24  H11 UNL     1      30.133  42.633   1.938  1.00  0.00     0.168 HD
ENDBRANCH  10  12
ENDBRANCH   1  10
BRANCH   4  25
HETATM   25  N3  UNL     1      32.257  41.143  10.904  1.00  0.00    -0.217 N 
ATOM     26  H3  UNL     1      32.845  41.503  11.657  1.00  0.00     0.178 HD
BRANCH  25  27
HETATM   27  C4  UNL     1      31.466  39.948  11.087  1.00  0.00     0.237 C 
BRANCH  27  28
HETATM   28  C5  UNL     1      31.972  38.825  10.254  1.00  0.00     0.249 C 
HETATM   29  N4  UNL     1      31.175  38.397   9.167  1.00  0.00    -0.061 NA
HETATM   30  O1  UNL     1      33.075  38.280  10.515  1.00  0.00    -0.275 OA
ENDBRANCH  27  28
ENDBRANCH  25  27
ENDBRANCH   4  25
BRANCH   7  31
HETATM   31  N6  UNL     1      33.991  43.815   7.590  1.00  0.00    -0.234 N 
ATOM     32  H62 UNL     1      34.956  43.591   7.836  1.00  0.00     0.174 HD
ATOM     33  H61 UNL     1      33.779  44.608   6.984  1.00  0.00     0.174 HD
ENDBRANCH   7  31
TORSDOF 6
ENDMDL
