MODEL 1
REMARK VINA RESULT: -7.081901449      0.000      0.000
REMARK  6 active torsions:
REMARK  status: ('A' for Active; 'I' for Inactive)
REMARK    1  A    between atoms: N1_2  and  C3_4 
REMARK    2  A    between atoms: C4_7  and  N3_8 
REMARK    3  A    between atoms: N3_8  and  N4_10 
REMARK       I    between atoms: N4_10  and  C5_12 
REMARK    4  A    between atoms: C5_12  and  C6_14 
REMARK    5  A    between atoms: C6_14  and  N5_15 
REMARK    6  A    between atoms: C6_14  and  C7_19 
ROOT
HETATM    1  N4  UNL     1      29.135  40.780   2.615  1.00  0.00    -0.254 N 
ATOM      2  H4  UNL     1      28.700  39.964   3.043  1.00  0.00     0.190 HD
HETATM    3  C5  UNL     1      29.821  41.729   3.412  1.00  0.00     0.269 C 
HETATM    4  O1  UNL     1      30.362  42.757   2.887  1.00  0.00    -0.269 OA
ENDROOT
BRANCH   3   5
HETATM    5  C6  UNL     1      29.922  41.549   4.887  1.00  0.00     0.316 C 
BRANCH   5   6
HETATM    6  N5  UNL     1      30.774  42.632   5.378  1.00  0.00    -0.064 N 
ATOM      7  H53 UNL     1      31.704  42.639   4.958  1.00  0.00     0.275 HD
ATOM      8  H52 UNL     1      30.482  43.555   5.055  1.00  0.00     0.275 HD
ATOM      9  H51 UNL     1      30.791  42.547   6.395  1.00  0.00     0.275 HD
ENDBRANCH   5   6
BRANCH   5  10
HETATM   10  C7  UNL     1      30.671  40.226   5.102  1.00  0.00     0.320 C 
HETATM   11  N6  UNL     1      31.450  40.361   6.337  1.00  0.00    -0.029 N 
HETATM   12  C8  UNL     1      30.429  40.352   7.378  1.00  0.00     0.362 C 
ATOM     13  H62 UNL     1      32.183  39.661   6.455  1.00  0.00     0.281 HD
ATOM     14  H61 UNL     1      32.072  41.169   6.360  1.00  0.00     0.281 HD
HETATM   15  S1  UNL     1      31.121  39.549   8.840  1.00  0.00    -0.040 SA
HETATM   16  N7  UNL     1      29.302  39.597   6.839  1.00  0.00    -0.323 N 
HETATM   17  C9  UNL     1      29.694  39.205   5.528  1.00  0.00     0.253 C 
ATOM     18  H7  UNL     1      28.419  39.393   7.305  1.00  0.00     0.165 HD
HETATM   19  O2  UNL     1      29.275  38.202   4.910  1.00  0.00    -0.271 OA
ENDBRANCH   5  10
ENDBRANCH   3   5
BRANCH   1  20
HETATM   20  N3  UNL     1      29.065  40.977   1.244  1.00  0.00    -0.129 N 
ATOM     21  H3  UNL     1      29.589  41.758   0.850  1.00  0.00     0.205 HD
BRANCH  20  22
HETATM   22  C4  UNL     1      28.383  40.243   0.434  1.00  0.00     0.712 A 
HETATM   23  N2  UNL     1      27.576  40.895  -0.431  1.00  0.00    -0.021 N 
HETATM   24  C3  UNL     1      26.843  40.173  -1.299  1.00  0.00     0.695 A 
ATOM     25  H2  UNL     1      27.523  41.913  -0.426  1.00  0.00     0.203 HD
HETATM   26  N9  UNL     1      26.922  38.820  -1.292  1.00  0.00    -0.187 N 
HETATM   27  C10 UNL     1      27.723  38.163  -0.435  1.00  0.00     0.215 A 
ATOM     28  H9  UNL     1      26.361  38.287  -1.955  1.00  0.00     0.185 HD
HETATM   29  N8  UNL     1      28.443  38.911   0.419  1.00  0.00    -0.185 N 
ATOM     30  H8  UNL     1      29.059  38.441   1.082  1.00  0.00     0.185 HD
BRANCH  24  31
HETATM   31  N1  UNL     1      26.003  40.861  -2.199  1.00  0.00    -0.226 N 
HETATM   32  C1  UNL     1      25.704  42.255  -2.001  1.00  0.00     0.168 C 
HETATM   33  C2  UNL     1      25.437  40.172  -3.327  1.00  0.00     0.168 C 
ENDBRANCH  24  31
ENDBRANCH  20  22
ENDBRANCH   1  20
TORSDOF 6
ENDMDL
MODEL 2
REMARK VINA RESULT: -6.780562816      3.772      6.199
REMARK  6 active torsions:
REMARK  status: ('A' for Active; 'I' for Inactive)
REMARK    1  A    between atoms: N1_2  and  C3_4 
REMARK    2  A    between atoms: C4_7  and  N3_8 
REMARK    3  A    between atoms: N3_8  and  N4_10 
REMARK       I    between atoms: N4_10  and  C5_12 
REMARK    4  A    between atoms: C5_12  and  C6_14 
REMARK    5  A    between atoms: C6_14  and  N5_15 
REMARK    6  A    between atoms: C6_14  and  C7_19 
ROOT
HETATM    1  N4  UNL     1      31.477  39.919   7.812  1.00  0.00    -0.254 N 
ATOM      2  H4  UNL     1      32.005  40.648   8.291  1.00  0.00     0.190 HD
HETATM    3  C5  UNL     1      30.920  38.838   8.539  1.00  0.00     0.269 C 
HETATM    4  O1  UNL     1      30.266  37.917   7.947  1.00  0.00    -0.269 OA
ENDROOT
BRANCH   3   5
HETATM    5  C6  UNL     1      31.091  38.751  10.015  1.00  0.00     0.316 C 
BRANCH   5   6
HETATM    6  N5  UNL     1      30.551  39.994  10.568  1.00  0.00    -0.064 N 
ATOM      7  H53 UNL     1      31.118  40.381  11.323  1.00  0.00     0.275 HD
ATOM      8  H52 UNL     1      30.629  40.787   9.931  1.00  0.00     0.275 HD
ATOM      9  H51 UNL     1      29.591  39.792  10.846  1.00  0.00     0.275 HD
ENDBRANCH   5   6
BRANCH   5  10
HETATM   10  C7  UNL     1      32.605  38.742  10.267  1.00  0.00     0.320 C 
HETATM   11  N6  UNL     1      32.809  38.898  11.711  1.00  0.00    -0.029 N 
HETATM   12  C8  UNL     1      32.362  37.619  12.251  1.00  0.00     0.362 C 
ATOM     13  H62 UNL     1      33.756  39.164  11.980  1.00  0.00     0.281 HD
ATOM     14  H61 UNL     1      32.351  39.713  12.119  1.00  0.00     0.281 HD
HETATM   15  S1  UNL     1      33.370  37.234  13.699  1.00  0.00    -0.040 SA
HETATM   16  N7  UNL     1      32.559  36.636  11.190  1.00  0.00    -0.323 N 
HETATM   17  C9  UNL     1      33.096  37.361  10.089  1.00  0.00     0.253 C 
ATOM     18  H7  UNL     1      32.354  35.638  11.229  1.00  0.00     0.165 HD
HETATM   19  O2  UNL     1      33.824  36.888   9.189  1.00  0.00    -0.271 OA
ENDBRANCH   5  10
ENDBRANCH   3   5
BRANCH   1  20
HETATM   20  N3  UNL     1      31.295  39.971   6.438  1.00  0.00    -0.129 N 
ATOM     21  H3  UNL     1      31.762  39.264   5.870  1.00  0.00     0.205 HD
BRANCH  20  22
HETATM   22  C4  UNL     1      30.576  40.850   5.828  1.00  0.00     0.712 A 
HETATM   23  N2  UNL     1      30.555  40.777   4.480  1.00  0.00    -0.021 N 
HETATM   24  C3  UNL     1      29.818  41.672   3.797  1.00  0.00     0.695 A 
ATOM     25  H2  UNL     1      31.086  40.058   3.990  1.00  0.00     0.203 HD
HETATM   26  N9  UNL     1      29.118  42.623   4.462  1.00  0.00    -0.187 N 
HETATM   27  C10 UNL     1      29.134  42.704   5.804  1.00  0.00     0.215 A 
ATOM     28  H9  UNL     1      28.565  43.295   3.931  1.00  0.00     0.185 HD
HETATM   29  N8  UNL     1      29.878  41.795   6.458  1.00  0.00    -0.185 N 
ATOM     30  H8  UNL     1      29.910  41.831   7.477  1.00  0.00     0.185 HD
BRANCH  24  31
HETATM   31  N1  UNL     1      29.801  41.589   2.390  1.00  0.00    -0.226 N 
HETATM   32  C1  UNL     1      29.871  42.780   1.584  1.00  0.00     0.168 C 
HETATM   33  C2  UNL     1      29.713  40.307   1.744  1.00  0.00     0.168 C 
ENDBRANCH  24  31
ENDBRANCH  20  22
ENDBRANCH   1  20
TORSDOF 6
ENDMDL
MODEL 3
REMARK VINA RESULT: -6.691610133      4.149      6.224
REMARK  6 active torsions:
REMARK  status: ('A' for Active; 'I' for Inactive)
REMARK    1  A    between atoms: N1_2  and  C3_4 
REMARK    2  A    between atoms: C4_7  and  N3_8 
REMARK    3  A    between atoms: N3_8  and  N4_10 
REMARK       I    between atoms: N4_10  and  C5_12 
REMARK    4  A    between atoms: C5_12  and  C6_14 
REMARK    5  A    between atoms: C6_14  and  N5_15 
REMARK    6  A    between atoms: C6_14  and  C7_19 
ROOT
HETATM    1  N4  UNL     1      31.174  39.510   7.264  1.00  0.00    -0.254 N 
ATOM      2  H4  UNL     1      31.642  40.362   7.571  1.00  0.00     0.190 HD
HETATM    3  C5  UNL     1      30.709  38.564   8.212  1.00  0.00     0.269 C 
HETATM    4  O1  UNL     1      30.130  37.492   7.838  1.00  0.00    -0.269 OA
ENDROOT
BRANCH   3   5
HETATM    5  C6  UNL     1      30.891  38.802   9.670  1.00  0.00     0.316 C 
BRANCH   5   6
HETATM    6  N5  UNL     1      30.351  40.134   9.943  1.00  0.00    -0.064 N 
ATOM      7  H53 UNL     1      29.445  40.301   9.505  1.00  0.00     0.275 HD
ATOM      8  H52 UNL     1      30.049  40.258  10.909  1.00  0.00     0.275 HD
ATOM      9  H51 UNL     1      31.068  40.800   9.655  1.00  0.00     0.275 HD
ENDBRANCH   5   6
BRANCH   5  10
HETATM   10  C7  UNL     1      32.407  38.851   9.905  1.00  0.00     0.320 C 
HETATM   11  N6  UNL     1      32.619  39.154  11.324  1.00  0.00    -0.029 N 
HETATM   12  C8  UNL     1      32.207  37.926  11.993  1.00  0.00     0.362 C 
ATOM     13  H62 UNL     1      33.563  39.466  11.555  1.00  0.00     0.281 HD
ATOM     14  H61 UNL     1      32.147  39.995  11.654  1.00  0.00     0.281 HD
HETATM   15  S1  UNL     1      33.235  37.709  13.461  1.00  0.00    -0.040 SA
HETATM   16  N7  UNL     1      32.417  36.847  11.032  1.00  0.00    -0.323 N 
HETATM   17  C9  UNL     1      32.928  37.470   9.860  1.00  0.00     0.253 C 
ATOM     18  H7  UNL     1      32.235  35.853  11.172  1.00  0.00     0.165 HD
HETATM   19  O2  UNL     1      33.659  36.927   9.003  1.00  0.00    -0.271 OA
ENDBRANCH   5  10
ENDBRANCH   3   5
BRANCH   1  20
HETATM   20  N3  UNL     1      30.983  39.258   5.913  1.00  0.00    -0.129 N 
ATOM     21  H3  UNL     1      31.374  38.397   5.531  1.00  0.00     0.205 HD
BRANCH  20  22
HETATM   22  C4  UNL     1      30.347  40.037   5.108  1.00  0.00     0.712 A 
HETATM   23  N2  UNL     1      29.926  41.214   5.618  1.00  0.00    -0.021 N 
HETATM   24  C3  UNL     1      29.258  42.064   4.816  1.00  0.00     0.695 A 
ATOM     25  H2  UNL     1      30.110  41.454   6.592  1.00  0.00     0.203 HD
HETATM   26  N9  UNL     1      29.018  41.730   3.525  1.00  0.00    -0.187 N 
HETATM   27  C10 UNL     1      29.434  40.561   3.008  1.00  0.00     0.215 A 
ATOM     28  H9  UNL     1      28.510  42.384   2.930  1.00  0.00     0.185 HD
HETATM   29  N8  UNL     1      30.099  39.734   3.833  1.00  0.00    -0.185 N 
ATOM     30  H8  UNL     1      30.427  38.839   3.469  1.00  0.00     0.185 HD
BRANCH  24  31
HETATM   31  N1  UNL     1      28.821  43.290   5.358  1.00  0.00    -0.226 N 
HETATM   32  C1  UNL     1      29.640  44.009   6.299  1.00  0.00     0.168 C 
HETATM   33  C2  UNL     1      27.548  43.836   4.972  1.00  0.00     0.168 C 
ENDBRANCH  24  31
ENDBRANCH  20  22
ENDBRANCH   1  20
TORSDOF 6
ENDMDL
MODEL 4
REMARK VINA RESULT: -6.663323457      3.591      8.963
REMARK  6 active torsions:
REMARK  status: ('A' for Active; 'I' for Inactive)
REMARK    1  A    between atoms: N1_2  and  C3_4 
REMARK    2  A    between atoms: C4_7  and  N3_8 
REMARK    3  A    between atoms: N3_8  and  N4_10 
REMARK       I    between atoms: N4_10  and  C5_12 
REMARK    4  A    between atoms: C5_12  and  C6_14 
REMARK    5  A    between atoms: C6_14  and  N5_15 
REMARK    6  A    between atoms: C6_14  and  C7_19 
ROOT
HETATM    1  N4  UNL     1      31.154  39.631   5.772  1.00  0.00    -0.254 N 
ATOM      2  H4  UNL     1      31.876  40.343   5.875  1.00  0.00     0.190 HD
HETATM    3  C5  UNL     1      30.252  39.676   4.680  1.00  0.00     0.269 C 
HETATM    4  O1  UNL     1      29.340  38.796   4.546  1.00  0.00    -0.269 OA
ENDROOT
BRANCH   3   5
HETATM    5  C6  UNL     1      30.348  40.760   3.663  1.00  0.00     0.316 C 
BRANCH   5   6
HETATM    6  N5  UNL     1      30.605  41.997   4.401  1.00  0.00    -0.064 N 
ATOM      7  H53 UNL     1      29.910  42.724   4.228  1.00  0.00     0.275 HD
ATOM      8  H52 UNL     1      30.450  41.909   5.404  1.00  0.00     0.275 HD
ATOM      9  H51 UNL     1      31.555  42.282   4.162  1.00  0.00     0.275 HD
ENDBRANCH   5   6
BRANCH   5  10
HETATM   10  C7  UNL     1      28.954  40.871   3.029  1.00  0.00     0.320 C 
HETATM   11  N6  UNL     1      28.633  42.298   2.926  1.00  0.00    -0.029 N 
HETATM   12  C8  UNL     1      29.529  42.765   1.874  1.00  0.00     0.362 C 
ATOM     13  H62 UNL     1      27.646  42.500   2.764  1.00  0.00     0.281 HD
ATOM     14  H61 UNL     1      28.704  42.813   3.803  1.00  0.00     0.281 HD
HETATM   15  S1  UNL     1      28.689  44.077   0.960  1.00  0.00    -0.040 SA
HETATM   16  N7  UNL     1      29.796  41.611   1.022  1.00  0.00    -0.323 N 
HETATM   17  C9  UNL     1      29.069  40.532   1.596  1.00  0.00     0.253 C 
ATOM     18  H7  UNL     1      30.383  41.584   0.188  1.00  0.00     0.165 HD
HETATM   19  O2  UNL     1      28.638  39.532   0.981  1.00  0.00    -0.271 OA
ENDBRANCH   5  10
ENDBRANCH   3   5
BRANCH   1  20
HETATM   20  N3  UNL     1      31.039  38.605   6.698  1.00  0.00    -0.129 N 
ATOM     21  H3  UNL     1      30.955  37.653   6.343  1.00  0.00     0.205 HD
BRANCH  20  22
HETATM   22  C4  UNL     1      31.030  38.771   7.976  1.00  0.00     0.712 A 
HETATM   23  N2  UNL     1      31.872  37.991   8.687  1.00  0.00    -0.021 N 
HETATM   24  C3  UNL     1      31.901  38.127  10.026  1.00  0.00     0.695 A 
ATOM     25  H2  UNL     1      32.472  37.313   8.220  1.00  0.00     0.203 HD
HETATM   26  N9  UNL     1      31.095  39.032  10.634  1.00  0.00    -0.187 N 
HETATM   27  C10 UNL     1      30.254  39.812   9.933  1.00  0.00     0.215 A 
ATOM     28  H9  UNL     1      31.128  39.122  11.649  1.00  0.00     0.185 HD
HETATM   29  N8  UNL     1      30.248  39.654   8.598  1.00  0.00    -0.185 N 
ATOM     30  H8  UNL     1      29.620  40.232   8.040  1.00  0.00     0.185 HD
BRANCH  24  31
HETATM   31  N1  UNL     1      32.783  37.309  10.762  1.00  0.00    -0.226 N 
HETATM   32  C1  UNL     1      33.856  36.611  10.104  1.00  0.00     0.168 C 
HETATM   33  C2  UNL     1      32.616  37.164  12.183  1.00  0.00     0.168 C 
ENDBRANCH  24  31
ENDBRANCH  20  22
ENDBRANCH   1  20
TORSDOF 6
ENDMDL
MODEL 5
REMARK VINA RESULT: -6.614146258      3.547      8.254
REMARK  6 active torsions:
REMARK  status: ('A' for Active; 'I' for Inactive)
REMARK    1  A    between atoms: N1_2  and  C3_4 
REMARK    2  A    between atoms: C4_7  and  N3_8 
REMARK    3  A    between atoms: N3_8  and  N4_10 
REMARK       I    between atoms: N4_10  and  C5_12 
REMARK    4  A    between atoms: C5_12  and  C6_14 
REMARK    5  A    between atoms: C6_14  and  N5_15 
REMARK    6  A    between atoms: C6_14  and  C7_19 
ROOT
HETATM    1  N4  UNL     1      31.104  39.658   5.760  1.00  0.00    -0.254 N 
ATOM      2  H4  UNL     1      31.838  40.360   5.849  1.00  0.00     0.190 HD
HETATM    3  C5  UNL     1      30.213  39.688   4.659  1.00  0.00     0.269 C 
HETATM    4  O1  UNL     1      29.286  38.819   4.542  1.00  0.00    -0.269 OA
ENDROOT
BRANCH   3   5
HETATM    5  C6  UNL     1      30.336  40.739   3.613  1.00  0.00     0.316 C 
BRANCH   5   6
HETATM    6  N5  UNL     1      30.645  41.986   4.314  1.00  0.00    -0.064 N 
ATOM      7  H53 UNL     1      31.123  42.672   3.730  1.00  0.00     0.275 HD
ATOM      8  H52 UNL     1      29.820  42.549   4.520  1.00  0.00     0.275 HD
ATOM      9  H51 UNL     1      31.173  41.725   5.146  1.00  0.00     0.275 HD
ENDBRANCH   5   6
BRANCH   5  10
HETATM   10  C7  UNL     1      28.940  40.883   2.990  1.00  0.00     0.320 C 
HETATM   11  N6  UNL     1      28.666  42.318   2.857  1.00  0.00    -0.029 N 
HETATM   12  C8  UNL     1      29.566  42.731   1.786  1.00  0.00     0.362 C 
ATOM     13  H62 UNL     1      27.685  42.550   2.700  1.00  0.00     0.281 HD
ATOM     14  H61 UNL     1      28.763  42.850   3.721  1.00  0.00     0.281 HD
HETATM   15  S1  UNL     1      28.762  44.050   0.851  1.00  0.00    -0.040 SA
HETATM   16  N7  UNL     1      29.786  41.550   0.958  1.00  0.00    -0.323 N 
HETATM   17  C9  UNL     1      29.028  40.509   1.564  1.00  0.00     0.253 C 
ATOM     18  H7  UNL     1      30.362  41.484   0.119  1.00  0.00     0.165 HD
HETATM   19  O2  UNL     1      28.557  39.510   0.976  1.00  0.00    -0.271 OA
ENDBRANCH   5  10
ENDBRANCH   3   5
BRANCH   1  20
HETATM   20  N3  UNL     1      30.963  38.662   6.714  1.00  0.00    -0.129 N 
ATOM     21  H3  UNL     1      30.873  37.700   6.386  1.00  0.00     0.205 HD
BRANCH  20  22
HETATM   22  C4  UNL     1      30.939  38.865   7.986  1.00  0.00     0.712 A 
HETATM   23  N2  UNL     1      29.863  39.523   8.467  1.00  0.00    -0.021 N 
HETATM   24  C3  UNL     1      29.789  39.760   9.790  1.00  0.00     0.695 A 
ATOM     25  H2  UNL     1      29.121  39.835   7.841  1.00  0.00     0.203 HD
HETATM   26  N9  UNL     1      30.784  39.342  10.610  1.00  0.00    -0.187 N 
HETATM   27  C10 UNL     1      31.859  38.686  10.140  1.00  0.00     0.215 A 
ATOM     28  H9  UNL     1      30.715  39.530  11.610  1.00  0.00     0.185 HD
HETATM   29  N8  UNL     1      31.903  38.464   8.815  1.00  0.00    -0.185 N 
ATOM     30  H8  UNL     1      32.707  37.969   8.428  1.00  0.00     0.185 HD
BRANCH  24  31
HETATM   31  N1  UNL     1      28.662  40.448  10.285  1.00  0.00    -0.226 N 
HETATM   32  C1  UNL     1      28.213  40.242  11.637  1.00  0.00     0.168 C 
HETATM   33  C2  UNL     1      27.949  41.366   9.438  1.00  0.00     0.168 C 
ENDBRANCH  24  31
ENDBRANCH  20  22
ENDBRANCH   1  20
TORSDOF 6
ENDMDL
