MODEL 1
REMARK VINA RESULT: -6.268215435      0.000      0.000
REMARK  8 active torsions:
REMARK  status: ('A' for Active; 'I' for Inactive)
REMARK    1  A    between atoms: N1_2  and  C3_4 
REMARK    2  A    between atoms: C3_4  and  C4_5 
REMARK    3  A    between atoms: C4_5  and  N2_6 
REMARK    4  A    between atoms: N2_6  and  N3_8 
REMARK    5  A    between atoms: N3_8  and  C5_10 
REMARK    6  A    between atoms: C9_23  and  N9_24 
REMARK    7  A    between atoms: C10_29  and  N11_30 
REMARK    8  A    between atoms: N11_30  and  N12_31 
ROOT
HETATM    1  C5  UNL     1      30.663  40.598   4.307  1.00  0.00     0.154 A 
HETATM    2  N4  UNL     1      30.403  39.983   3.153  1.00  0.00    -0.313 N 
ATOM      3  H4  UNL     1      30.955  39.162   2.904  1.00  0.00     0.170 HD
HETATM    4  C6  UNL     1      29.448  40.396   2.303  1.00  0.00     0.195 A 
HETATM    5  N5  UNL     1      29.205  39.746   1.074  1.00  0.00    -0.063 NA
HETATM    6  N6  UNL     1      28.719  41.462   2.638  1.00  0.00    -0.314 N 
ATOM      7  H6  UNL     1      27.984  41.767   1.999  1.00  0.00     0.170 HD
HETATM    8  C7  UNL     1      28.904  42.153   3.774  1.00  0.00     0.155 A 
HETATM    9  N7  UNL     1      28.226  43.180   4.339  1.00  0.00    -0.173 N 
ATOM     10  H7  UNL     1      27.436  43.687   3.939  1.00  0.00     0.186 HD
HETATM   11  C8  UNL     1      28.804  43.397   5.536  1.00  0.00     0.709 A 
HETATM   12  N8  UNL     1      28.486  44.311   6.467  1.00  0.00    -0.022 N 
ATOM     13  H8  UNL     1      27.703  44.943   6.301  1.00  0.00     0.203 HD
HETATM   14  C9  UNL     1      29.185  44.410   7.623  1.00  0.00     0.694 A 
HETATM   15  N10 UNL     1      30.218  43.573   7.808  1.00  0.00    -0.146 N 
ATOM     16  H10 UNL     1      30.762  43.638   8.669  1.00  0.00     0.188 HD
HETATM   17  C10 UNL     1      30.569  42.612   6.852  1.00  0.00     0.316 A 
HETATM   18  N13 UNL     1      29.845  42.515   5.715  1.00  0.00    -0.093 N 
HETATM   19  C11 UNL     1      29.922  41.725   4.657  1.00  0.00     0.151 A 
ENDROOT
BRANCH   1  20
HETATM   20  N3  UNL     1      31.229  39.901   5.224  1.00  0.00    -0.284 N 
ATOM     21  H3  UNL     1      32.188  40.171   5.444  1.00  0.00     0.188 HD
BRANCH  20  22
HETATM   22  N2  UNL     1      30.754  38.881   5.929  1.00  0.00    -0.309 N 
ATOM     23  H2  UNL     1      30.973  37.969   5.529  1.00  0.00     0.186 HD
BRANCH  22  24
HETATM   24  C4  UNL     1      30.080  38.818   7.003  1.00  0.00     0.118 C 
BRANCH  24  25
HETATM   25  C3  UNL     1      30.853  38.549   8.289  1.00  0.00     0.077 C 
BRANCH  25  26
HETATM   26  N1  UNL     1      31.072  39.673   9.109  1.00  0.00    -0.300 NA
HETATM   27  C1  UNL     1      29.784  40.217   9.624  1.00  0.00     0.115 C 
HETATM   28  C2  UNL     1      31.977  39.521  10.214  1.00  0.00     0.115 C 
ENDBRANCH  25  26
ENDBRANCH  24  25
ENDBRANCH  22  24
ENDBRANCH  20  22
ENDBRANCH   1  20
BRANCH  17  29
HETATM   29  N11 UNL     1      31.653  42.095   7.060  1.00  0.00    -0.293 NA
BRANCH  29  30
HETATM   30  N12 UNL     1      32.801  41.564   7.294  1.00  0.00    -0.277 N 
ATOM     31 2H12 UNL     1      32.015  41.988   7.787  1.00  0.00     0.191 HD
ATOM     32 1H12 UNL     1      33.713  41.140   7.464  1.00  0.00     0.191 HD
ENDBRANCH  29  30
ENDBRANCH  17  29
BRANCH  14  33
HETATM   33  N9  UNL     1      28.868  45.275   8.496  1.00  0.00    -0.234 N 
ATOM     34  H92 UNL     1      28.268  46.068   8.268  1.00  0.00     0.174 HD
ATOM     35  H91 UNL     1      29.207  45.191   9.455  1.00  0.00     0.174 HD
ENDBRANCH  14  33
TORSDOF 8
ENDMDL
MODEL 2
REMARK VINA RESULT: -6.137830692      2.008      5.092
REMARK  8 active torsions:
REMARK  status: ('A' for Active; 'I' for Inactive)
REMARK    1  A    between atoms: N1_2  and  C3_4 
REMARK    2  A    between atoms: C3_4  and  C4_5 
REMARK    3  A    between atoms: C4_5  and  N2_6 
REMARK    4  A    between atoms: N2_6  and  N3_8 
REMARK    5  A    between atoms: N3_8  and  C5_10 
REMARK    6  A    between atoms: C9_23  and  N9_24 
REMARK    7  A    between atoms: C10_29  and  N11_30 
REMARK    8  A    between atoms: N11_30  and  N12_31 
ROOT
HETATM    1  C5  UNL     1      31.382  40.209   8.590  1.00  0.00     0.154 A 
HETATM    2  N4  UNL     1      31.962  40.945   9.538  1.00  0.00    -0.313 N 
ATOM      3  H4  UNL     1      32.235  40.489  10.409  1.00  0.00     0.170 HD
HETATM    4  C6  UNL     1      32.203  42.259   9.400  1.00  0.00     0.195 A 
HETATM    5  N5  UNL     1      32.795  43.026  10.426  1.00  0.00    -0.063 NA
HETATM    6  N6  UNL     1      31.858  42.850   8.253  1.00  0.00    -0.314 N 
ATOM      7  H6  UNL     1      32.055  43.845   8.143  1.00  0.00     0.170 HD
HETATM    8  C7  UNL     1      31.265  42.200   7.240  1.00  0.00     0.155 A 
HETATM    9  N7  UNL     1      30.930  42.579   5.984  1.00  0.00    -0.173 N 
ATOM     10  H7  UNL     1      31.018  43.512   5.581  1.00  0.00     0.186 HD
HETATM   11  C8  UNL     1      30.459  41.475   5.372  1.00  0.00     0.709 A 
HETATM   12  N8  UNL     1      30.002  41.343   4.117  1.00  0.00    -0.022 N 
ATOM     13  H8  UNL     1      30.001  42.152   3.497  1.00  0.00     0.203 HD
HETATM   14  C9  UNL     1      29.543  40.153   3.657  1.00  0.00     0.694 A 
HETATM   15  N10 UNL     1      29.546  39.108   4.500  1.00  0.00    -0.146 N 
ATOM     16  H10 UNL     1      29.197  38.207   4.174  1.00  0.00     0.188 HD
HETATM   17  C10 UNL     1      30.017  39.222   5.814  1.00  0.00     0.316 A 
HETATM   18  N13 UNL     1      30.491  40.412   6.246  1.00  0.00    -0.093 N 
HETATM   19  C11 UNL     1      30.998  40.820   7.398  1.00  0.00     0.151 A 
ENDROOT
BRANCH   1  20
HETATM   20  N3  UNL     1      31.610  38.947   8.610  1.00  0.00    -0.284 N 
ATOM     21  H3  UNL     1      30.841  38.362   8.285  1.00  0.00     0.188 HD
BRANCH  20  22
HETATM   22  N2  UNL     1      32.698  38.287   8.992  1.00  0.00    -0.309 N 
ATOM     23  H2  UNL     1      33.564  38.679   8.624  1.00  0.00     0.186 HD
BRANCH  22  24
HETATM   24  C4  UNL     1      32.871  37.265   9.724  1.00  0.00     0.118 C 
BRANCH  24  25
HETATM   25  C3  UNL     1      32.971  37.500  11.226  1.00  0.00     0.077 C 
BRANCH  25  26
HETATM   26  N1  UNL     1      32.602  38.788  11.663  1.00  0.00    -0.300 NA
HETATM   27  C1  UNL     1      31.309  38.751  12.402  1.00  0.00     0.115 C 
HETATM   28  C2  UNL     1      33.556  39.519  12.449  1.00  0.00     0.115 C 
ENDBRANCH  25  26
ENDBRANCH  24  25
ENDBRANCH  22  24
ENDBRANCH  20  22
ENDBRANCH   1  20
BRANCH  17  29
HETATM   29  N11 UNL     1      29.742  38.261   6.512  1.00  0.00    -0.293 NA
BRANCH  29  30
HETATM   30  N12 UNL     1      29.468  37.238   7.242  1.00  0.00    -0.277 N 
ATOM     31 2H12 UNL     1      30.137  38.007   7.183  1.00  0.00     0.191 HD
ATOM     32 1H12 UNL     1      29.239  36.423   7.811  1.00  0.00     0.191 HD
ENDBRANCH  29  30
ENDBRANCH  17  29
BRANCH  14  33
HETATM   33  N9  UNL     1      29.120  40.043   2.466  1.00  0.00    -0.234 N 
ATOM     34  H92 UNL     1      28.773  40.849   1.946  1.00  0.00     0.174 HD
ATOM     35  H91 UNL     1      29.123  39.136   1.997  1.00  0.00     0.174 HD
ENDBRANCH  14  33
TORSDOF 8
ENDMDL
MODEL 3
REMARK VINA RESULT: -5.999132690      2.467      5.344
REMARK  8 active torsions:
REMARK  status: ('A' for Active; 'I' for Inactive)
REMARK    1  A    between atoms: N1_2  and  C3_4 
REMARK    2  A    between atoms: C3_4  and  C4_5 
REMARK    3  A    between atoms: C4_5  and  N2_6 
REMARK    4  A    between atoms: N2_6  and  N3_8 
REMARK    5  A    between atoms: N3_8  and  C5_10 
REMARK    6  A    between atoms: C9_23  and  N9_24 
REMARK    7  A    between atoms: C10_29  and  N11_30 
REMARK    8  A    between atoms: N11_30  and  N12_31 
ROOT
HETATM    1  C5  UNL     1      31.401  40.118   8.553  1.00  0.00     0.154 A 
HETATM    2  N4  UNL     1      31.985  40.841   9.509  1.00  0.00    -0.313 N 
ATOM      3  H4  UNL     1      32.266  40.372  10.370  1.00  0.00     0.170 HD
HETATM    4  C6  UNL     1      32.219  42.159   9.389  1.00  0.00     0.195 A 
HETATM    5  N5  UNL     1      32.816  42.912  10.423  1.00  0.00    -0.063 NA
HETATM    6  N6  UNL     1      31.863  42.766   8.255  1.00  0.00    -0.314 N 
ATOM      7  H6  UNL     1      32.055  43.764   8.159  1.00  0.00     0.170 HD
HETATM    8  C7  UNL     1      31.266  42.129   7.236  1.00  0.00     0.155 A 
HETATM    9  N7  UNL     1      30.920  42.527   5.988  1.00  0.00    -0.173 N 
ATOM     10  H7  UNL     1      31.001  43.467   5.600  1.00  0.00     0.186 HD
HETATM   11  C8  UNL     1      30.449  41.430   5.363  1.00  0.00     0.709 A 
HETATM   12  N8  UNL     1      29.983  41.316   4.109  1.00  0.00    -0.022 N 
ATOM     13  H8  UNL     1      29.974  42.136   3.502  1.00  0.00     0.203 HD
HETATM   14  C9  UNL     1      29.526  40.133   3.634  1.00  0.00     0.694 A 
HETATM   15  N10 UNL     1      29.539  39.075   4.460  1.00  0.00    -0.146 N 
ATOM     16  H10 UNL     1      29.191  38.177   4.123  1.00  0.00     0.188 HD
HETATM   17  C10 UNL     1      30.019  39.170   5.772  1.00  0.00     0.316 A 
HETATM   18  N13 UNL     1      30.492  40.354   6.219  1.00  0.00    -0.093 N 
HETATM   19  C11 UNL     1      31.006  40.746   7.374  1.00  0.00     0.151 A 
ENDROOT
BRANCH   1  20
HETATM   20  N3  UNL     1      31.635  38.857   8.552  1.00  0.00    -0.284 N 
ATOM     21  H3  UNL     1      30.951  38.290   8.050  1.00  0.00     0.188 HD
BRANCH  20  22
HETATM   22  N2  UNL     1      32.632  38.178   9.107  1.00  0.00    -0.309 N 
ATOM     23  H2  UNL     1      33.541  38.371   8.688  1.00  0.00     0.186 HD
BRANCH  22  24
HETATM   24  C4  UNL     1      32.676  37.336  10.055  1.00  0.00     0.118 C 
BRANCH  24  25
HETATM   25  C3  UNL     1      33.976  36.560  10.231  1.00  0.00     0.077 C 
BRANCH  25  26
HETATM   26  N1  UNL     1      34.730  36.895  11.372  1.00  0.00    -0.300 NA
HETATM   27  C1  UNL     1      33.876  37.546  12.404  1.00  0.00     0.115 C 
HETATM   28  C2  UNL     1      35.484  35.845  11.999  1.00  0.00     0.115 C 
ENDBRANCH  25  26
ENDBRANCH  24  25
ENDBRANCH  22  24
ENDBRANCH  20  22
ENDBRANCH   1  20
BRANCH  17  29
HETATM   29  N11 UNL     1      29.753  38.197   6.457  1.00  0.00    -0.293 NA
BRANCH  29  30
HETATM   30  N12 UNL     1      29.469  37.183   7.195  1.00  0.00    -0.277 N 
ATOM     31 2H12 UNL     1      29.149  37.654   6.349  1.00  0.00     0.191 HD
ATOM     32 1H12 UNL     1      29.257  36.382   7.791  1.00  0.00     0.191 HD
ENDBRANCH  29  30
ENDBRANCH  17  29
BRANCH  14  33
HETATM   33  N9  UNL     1      29.095  40.039   2.444  1.00  0.00    -0.234 N 
ATOM     34  H92 UNL     1      28.273  40.558   2.131  1.00  0.00     0.174 HD
ATOM     35  H91 UNL     1      29.569  39.441   1.767  1.00  0.00     0.174 HD
ENDBRANCH  14  33
TORSDOF 8
ENDMDL
MODEL 4
REMARK VINA RESULT: -5.803786721      1.574      5.603
REMARK  8 active torsions:
REMARK  status: ('A' for Active; 'I' for Inactive)
REMARK    1  A    between atoms: N1_2  and  C3_4 
REMARK    2  A    between atoms: C3_4  and  C4_5 
REMARK    3  A    between atoms: C4_5  and  N2_6 
REMARK    4  A    between atoms: N2_6  and  N3_8 
REMARK    5  A    between atoms: N3_8  and  C5_10 
REMARK    6  A    between atoms: C9_23  and  N9_24 
REMARK    7  A    between atoms: C10_29  and  N11_30 
REMARK    8  A    between atoms: N11_30  and  N12_31 
ROOT
HETATM    1  C5  UNL     1      31.293  40.552   8.551  1.00  0.00     0.154 A 
HETATM    2  N4  UNL     1      31.617  39.880   9.656  1.00  0.00    -0.313 N 
ATOM      3  H4  UNL     1      31.904  40.407  10.480  1.00  0.00     0.170 HD
HETATM    4  C6  UNL     1      31.583  38.539   9.732  1.00  0.00     0.195 A 
HETATM    5  N5  UNL     1      31.954  37.844  10.903  1.00  0.00    -0.063 NA
HETATM    6  N6  UNL     1      31.193  37.852   8.656  1.00  0.00    -0.314 N 
ATOM      7  H6  UNL     1      31.152  36.834   8.719  1.00  0.00     0.170 HD
HETATM    8  C7  UNL     1      30.850  38.433   7.496  1.00  0.00     0.155 A 
HETATM    9  N7  UNL     1      30.344  37.939   6.342  1.00  0.00    -0.173 N 
ATOM     10  H7  UNL     1      30.182  36.958   6.113  1.00  0.00     0.186 HD
HETATM   11  C8  UNL     1      30.095  39.005   5.555  1.00  0.00     0.709 A 
HETATM   12  N8  UNL     1      29.587  39.029   4.313  1.00  0.00    -0.022 N 
ATOM     13  H8  UNL     1      29.327  38.152   3.862  1.00  0.00     0.203 HD
HETATM   14  C9  UNL     1      29.413  40.196   3.646  1.00  0.00     0.694 A 
HETATM   15  N10 UNL     1      29.776  41.333   4.262  1.00  0.00    -0.146 N 
ATOM     16  H10 UNL     1      29.660  42.220   3.773  1.00  0.00     0.188 HD
HETATM   17  C10 UNL     1      30.309  41.332   5.557  1.00  0.00     0.316 A 
HETATM   18  N13 UNL     1      30.454  40.159   6.212  1.00  0.00    -0.093 N 
HETATM   19  C11 UNL     1      30.906  39.844   7.415  1.00  0.00     0.151 A 
ENDROOT
BRANCH   1  20
HETATM   20  N3  UNL     1      30.915  41.768   8.700  1.00  0.00    -0.284 N 
ATOM     21  H3  UNL     1      31.617  42.472   8.472  1.00  0.00     0.188 HD
BRANCH  20  22
HETATM   22  N2  UNL     1      29.746  42.250   9.107  1.00  0.00    -0.309 N 
ATOM     23  H2  UNL     1      29.827  42.967   9.827  1.00  0.00     0.186 HD
BRANCH  22  24
HETATM   24  C4  UNL     1      28.548  41.993   8.776  1.00  0.00     0.118 C 
BRANCH  24  25
HETATM   25  C3  UNL     1      27.706  43.158   8.268  1.00  0.00     0.077 C 
BRANCH  25  26
HETATM   26  N1  UNL     1      28.300  43.937   7.256  1.00  0.00    -0.300 NA
HETATM   27  C1  UNL     1      27.526  43.842   5.987  1.00  0.00     0.115 C 
HETATM   28  C2  UNL     1      28.539  45.324   7.543  1.00  0.00     0.115 C 
ENDBRANCH  25  26
ENDBRANCH  24  25
ENDBRANCH  22  24
ENDBRANCH  20  22
ENDBRANCH   1  20
BRANCH  17  29
HETATM   29  N11 UNL     1      30.797  42.402   5.880  1.00  0.00    -0.293 NA
BRANCH  29  30
HETATM   30  N12 UNL     1      31.325  43.528   6.206  1.00  0.00    -0.277 N 
ATOM     31 2H12 UNL     1      30.423  43.051   6.212  1.00  0.00     0.191 HD
ATOM     32 1H12 UNL     1      31.758  44.417   6.458  1.00  0.00     0.191 HD
ENDBRANCH  29  30
ENDBRANCH  17  29
BRANCH  14  33
HETATM   33  N9  UNL     1      28.926  40.203   2.475  1.00  0.00    -0.234 N 
ATOM     34  H92 UNL     1      29.333  39.643   1.725  1.00  0.00     0.174 HD
ATOM     35  H91 UNL     1      28.107  40.771   2.258  1.00  0.00     0.174 HD
ENDBRANCH  14  33
TORSDOF 8
ENDMDL
MODEL 5
REMARK VINA RESULT: -5.743066527      2.809      5.850
REMARK  8 active torsions:
REMARK  status: ('A' for Active; 'I' for Inactive)
REMARK    1  A    between atoms: N1_2  and  C3_4 
REMARK    2  A    between atoms: C3_4  and  C4_5 
REMARK    3  A    between atoms: C4_5  and  N2_6 
REMARK    4  A    between atoms: N2_6  and  N3_8 
REMARK    5  A    between atoms: N3_8  and  C5_10 
REMARK    6  A    between atoms: C9_23  and  N9_24 
REMARK    7  A    between atoms: C10_29  and  N11_30 
REMARK    8  A    between atoms: N11_30  and  N12_31 
ROOT
HETATM    1  C5  UNL     1      31.009  42.425  10.212  1.00  0.00     0.154 A 
HETATM    2  N4  UNL     1      31.878  43.223  10.832  1.00  0.00    -0.313 N 
ATOM      3  H4  UNL     1      31.659  43.543  11.775  1.00  0.00     0.170 HD
HETATM    4  C6  UNL     1      33.031  43.625  10.270  1.00  0.00     0.195 A 
HETATM    5  N5  UNL     1      33.927  44.491  10.933  1.00  0.00    -0.063 NA
HETATM    6  N6  UNL     1      33.322  43.192   9.041  1.00  0.00    -0.314 N 
ATOM      7  H6  UNL     1      34.204  43.486   8.621  1.00  0.00     0.170 HD
HETATM    8  C7  UNL     1      32.512  42.391   8.332  1.00  0.00     0.155 A 
HETATM    9  N7  UNL     1      32.659  41.772   7.136  1.00  0.00    -0.173 N 
ATOM     10  H7  UNL     1      33.443  41.865   6.489  1.00  0.00     0.186 HD
HETATM   11  C8  UNL     1      31.562  41.006   6.974  1.00  0.00     0.709 A 
HETATM   12  N8  UNL     1      31.246  40.203   5.946  1.00  0.00    -0.022 N 
ATOM     13  H8  UNL     1      31.893  40.115   5.162  1.00  0.00     0.203 HD
HETATM   14  C9  UNL     1      30.083  39.507   5.929  1.00  0.00     0.694 A 
HETATM   15  N10 UNL     1      29.247  39.653   6.969  1.00  0.00    -0.146 N 
ATOM     16  H10 UNL     1      28.363  39.143   6.970  1.00  0.00     0.188 HD
HETATM   17  C10 UNL     1      29.555  40.485   8.051  1.00  0.00     0.316 A 
HETATM   18  N13 UNL     1      30.729  41.154   8.059  1.00  0.00    -0.093 N 
HETATM   19  C11 UNL     1      31.292  41.985   8.921  1.00  0.00     0.151 A 
ENDROOT
BRANCH   1  20
HETATM   20  N3  UNL     1      30.213  41.744  10.953  1.00  0.00    -0.284 N 
ATOM     21  H3  UNL     1      29.239  42.046  10.935  1.00  0.00     0.188 HD
BRANCH  20  22
HETATM   22  N2  UNL     1      30.466  40.706  11.740  1.00  0.00    -0.309 N 
ATOM     23  H2  UNL     1      30.563  40.952  12.725  1.00  0.00     0.186 HD
BRANCH  22  24
HETATM   24  C4  UNL     1      30.611  39.466  11.509  1.00  0.00     0.118 C 
BRANCH  24  25
HETATM   25  C3  UNL     1      32.009  38.994  11.126  1.00  0.00     0.077 C 
BRANCH  25  26
HETATM   26  N1  UNL     1      32.072  37.730  10.508  1.00  0.00    -0.300 NA
HETATM   27  C1  UNL     1      31.938  37.851   9.029  1.00  0.00     0.115 C 
HETATM   28  C2  UNL     1      33.213  36.907  10.797  1.00  0.00     0.115 C 
ENDBRANCH  25  26
ENDBRANCH  24  25
ENDBRANCH  22  24
ENDBRANCH  20  22
ENDBRANCH   1  20
BRANCH  17  29
HETATM   29  N11 UNL     1      28.607  40.688   8.791  1.00  0.00    -0.293 NA
BRANCH  29  30
HETATM   30  N12 UNL     1      27.617  40.890   9.586  1.00  0.00    -0.277 N 
ATOM     31 2H12 UNL     1      28.637  40.926   9.575  1.00  0.00     0.191 HD
ATOM     32 1H12 UNL     1      26.821  41.047  10.205  1.00  0.00     0.191 HD
ENDBRANCH  29  30
ENDBRANCH  17  29
BRANCH  14  33
HETATM   33  N9  UNL     1      29.802  38.747   4.952  1.00  0.00    -0.234 N 
ATOM     34  H92 UNL     1      29.000  38.930   4.348  1.00  0.00     0.174 HD
ATOM     35  H91 UNL     1      30.379  37.931   4.748  1.00  0.00     0.174 HD
ENDBRANCH  14  33
TORSDOF 8
ENDMDL
