MODEL 1
REMARK VINA RESULT: -7.473597424      0.000      0.000
REMARK  5 active torsions:
REMARK  status: ('A' for Active; 'I' for Inactive)
REMARK    1  A    between atoms: C3_5  and  N2_6 
REMARK    2  A    between atoms: C5_15  and  C6_16 
REMARK    3  A    between atoms: N6_18  and  N7_20 
REMARK       I    between atoms: N7_20  and  C7_21 
REMARK    4  A    between atoms: C7_21  and  C8_23 
REMARK    5  A    between atoms: C8_23  and  N8_24 
ROOT
HETATM    1  C6  UNL     1      30.523  40.090   8.018  1.00  0.00     0.158 C 
HETATM    2  N5  UNL     1      29.525  40.632   8.878  1.00  0.00    -0.079 NA
HETATM    3  N6  UNL     1      31.558  39.612   8.593  1.00  0.00    -0.217 N 
ATOM      4  H6  UNL     1      32.212  39.240   7.904  1.00  0.00     0.203 HD
ENDROOT
BRANCH   3   5
HETATM    5  N7  UNL     1      32.014  39.462   9.762  1.00  0.00    -0.284 NA
HETATM    6  C7  UNL     1      32.509  39.300  11.030  1.00  0.00     0.333 C 
HETATM    7  O1  UNL     1      33.161  40.155  11.680  1.00  0.00    -0.253 OA
BRANCH   6   8
HETATM    8  C8  UNL     1      32.310  38.010  11.817  1.00  0.00     0.294 C 
BRANCH   8   9
HETATM    9  N8  UNL     1      33.354  37.078  11.521  1.00  0.00    -0.173 N 
HETATM   10  N9  UNL     1      33.478  36.416  10.393  1.00  0.00    -0.209 N 
HETATM   11  N10 UNL     1      34.550  35.648  10.393  1.00  0.00    -0.113 N 
ATOM     12  H9  UNL     1      32.826  36.487   9.612  1.00  0.00     0.210 HD
HETATM   13  C9  UNL     1      35.114  35.859  11.602  1.00  0.00     0.737 A 
ATOM     14  H10 UNL     1      34.879  35.034   9.648  1.00  0.00     0.207 HD
HETATM   15  N11 UNL     1      36.168  35.495  12.363  1.00  0.00    -0.182 N 
HETATM   16  N13 UNL     1      34.373  36.737  12.288  1.00  0.00     0.001 N 
HETATM   17  C10 UNL     1      36.069  36.153  13.519  1.00  0.00     0.217 A 
ATOM     18  H11 UNL     1      36.904  34.839  12.102  1.00  0.00     0.185 HD
HETATM   19  N12 UNL     1      34.968  36.913  13.470  1.00  0.00    -0.258 N 
ATOM     20  H12 UNL     1      34.638  37.528  14.214  1.00  0.00     0.190 HD
ENDBRANCH   8   9
ENDBRANCH   6   8
ENDBRANCH   3   5
BRANCH   1  21
HETATM   21  C5  UNL     1      30.444  40.046   6.571  1.00  0.00     0.074 A 
HETATM   22  C2  UNL     1      30.092  38.929   5.880  1.00  0.00     0.040 A 
HETATM   23  C1  UNL     1      29.842  37.660   6.555  1.00  0.00     0.070 C 
HETATM   24  N1  UNL     1      29.963  38.971   4.517  1.00  0.00    -0.195 N 
HETATM   25  C3  UNL     1      30.179  40.105   3.837  1.00  0.00     0.677 A 
ATOM     26  H1  UNL     1      29.697  38.126   4.012  1.00  0.00     0.184 HD
HETATM   27  N3  UNL     1      30.535  41.233   4.516  1.00  0.00    -0.176 N 
HETATM   28  C4  UNL     1      30.670  41.224   5.848  1.00  0.00     0.130 A 
ATOM     29  H3  UNL     1      30.700  42.097   4.001  1.00  0.00     0.186 HD
HETATM   30  N4  UNL     1      31.001  42.295   6.468  1.00  0.00    -0.384 N 
ATOM     31  H42 UNL     1      31.165  43.152   5.942  1.00  0.00     0.157 HD
ATOM     32  H41 UNL     1      31.104  42.288   7.482  1.00  0.00     0.157 HD
BRANCH  25  33
HETATM   33  N2  UNL     1      30.052  40.119   2.563  1.00  0.00    -0.234 N 
ATOM     34  H22 UNL     1      30.542  39.439   1.981  1.00  0.00     0.174 HD
ATOM     35  H21 UNL     1      29.453  40.815   2.119  1.00  0.00     0.174 HD
ENDBRANCH  25  33
ENDBRANCH   1  21
TORSDOF 5
ENDMDL
MODEL 2
REMARK VINA RESULT: -7.468157585      0.873      1.778
REMARK  5 active torsions:
REMARK  status: ('A' for Active; 'I' for Inactive)
REMARK    1  A    between atoms: C3_5  and  N2_6 
REMARK    2  A    between atoms: C5_15  and  C6_16 
REMARK    3  A    between atoms: N6_18  and  N7_20 
REMARK       I    between atoms: N7_20  and  C7_21 
REMARK    4  A    between atoms: C7_21  and  C8_23 
REMARK    5  A    between atoms: C8_23  and  N8_24 
ROOT
HETATM    1  C6  UNL     1      30.572  39.692   8.503  1.00  0.00     0.158 C 
HETATM    2  N5  UNL     1      29.553  39.909   9.474  1.00  0.00    -0.079 NA
HETATM    3  N6  UNL     1      31.719  39.364   8.959  1.00  0.00    -0.217 N 
ATOM      4  H6  UNL     1      32.380  39.221   8.196  1.00  0.00     0.203 HD
ENDROOT
BRANCH   3   5
HETATM    5  N7  UNL     1      32.279  39.164  10.074  1.00  0.00    -0.284 NA
HETATM    6  C7  UNL     1      32.887  38.948  11.284  1.00  0.00     0.333 C 
HETATM    7  O1  UNL     1      33.662  39.744  11.870  1.00  0.00    -0.253 OA
BRANCH   6   8
HETATM    8  C8  UNL     1      32.673  37.665  12.077  1.00  0.00     0.294 C 
BRANCH   8   9
HETATM    9  N8  UNL     1      33.726  36.733  11.813  1.00  0.00    -0.173 N 
HETATM   10  N9  UNL     1      33.848  36.022  10.714  1.00  0.00    -0.209 N 
HETATM   11  N10 UNL     1      34.929  35.269  10.737  1.00  0.00    -0.113 N 
ATOM     12  H9  UNL     1      33.187  36.050   9.938  1.00  0.00     0.210 HD
HETATM   13  C9  UNL     1      35.501  35.541  11.930  1.00  0.00     0.737 A 
ATOM     14  H10 UNL     1      35.258  34.625  10.018  1.00  0.00     0.207 HD
HETATM   15  N11 UNL     1      36.568  35.224  12.696  1.00  0.00    -0.182 N 
HETATM   16  N13 UNL     1      34.757  36.439  12.583  1.00  0.00     0.001 N 
HETATM   17  C10 UNL     1      36.472  35.931  13.821  1.00  0.00     0.217 A 
ATOM     18  H11 UNL     1      37.309  34.565  12.457  1.00  0.00     0.185 HD
HETATM   19  N12 UNL     1      35.361  36.676  13.750  1.00  0.00    -0.258 N 
ATOM     20  H12 UNL     1      35.032  37.319  14.469  1.00  0.00     0.190 HD
ENDBRANCH   8   9
ENDBRANCH   6   8
ENDBRANCH   3   5
BRANCH   1  21
HETATM   21  C5  UNL     1      30.398  39.814   7.069  1.00  0.00     0.074 A 
HETATM   22  C2  UNL     1      30.727  40.935   6.373  1.00  0.00     0.040 A 
HETATM   23  C1  UNL     1      31.211  42.136   7.044  1.00  0.00     0.070 C 
HETATM   24  N1  UNL     1      30.608  40.962   5.010  1.00  0.00    -0.195 N 
HETATM   25  C3  UNL     1      30.167  39.892   4.333  1.00  0.00     0.677 A 
ATOM     26  H1  UNL     1      30.859  41.809   4.501  1.00  0.00     0.184 HD
HETATM   27  N3  UNL     1      29.832  38.761   5.017  1.00  0.00    -0.176 N 
HETATM   28  C4  UNL     1      29.936  38.704   6.350  1.00  0.00     0.130 A 
ATOM     29  H3  UNL     1      29.497  37.946   4.504  1.00  0.00     0.186 HD
HETATM   30  N4  UNL     1      29.621  37.631   6.974  1.00  0.00    -0.384 N 
ATOM     31  H42 UNL     1      29.285  36.822   6.451  1.00  0.00     0.157 HD
ATOM     32  H41 UNL     1      29.700  37.587   7.990  1.00  0.00     0.157 HD
BRANCH  25  33
HETATM   33  N2  UNL     1      30.066  39.942   3.057  1.00  0.00    -0.234 N 
ATOM     34  H22 UNL     1      30.886  39.825   2.462  1.00  0.00     0.174 HD
ATOM     35  H21 UNL     1      29.155  40.100   2.626  1.00  0.00     0.174 HD
ENDBRANCH  25  33
ENDBRANCH   1  21
TORSDOF 5
ENDMDL
MODEL 3
REMARK VINA RESULT: -7.370517569      2.465      3.877
REMARK  5 active torsions:
REMARK  status: ('A' for Active; 'I' for Inactive)
REMARK    1  A    between atoms: C3_5  and  N2_6 
REMARK    2  A    between atoms: C5_15  and  C6_16 
REMARK    3  A    between atoms: N6_18  and  N7_20 
REMARK       I    between atoms: N7_20  and  C7_21 
REMARK    4  A    between atoms: C7_21  and  C8_23 
REMARK    5  A    between atoms: C8_23  and  N8_24 
ROOT
HETATM    1  C6  UNL     1      31.002  38.974   8.546  1.00  0.00     0.158 C 
HETATM    2  N5  UNL     1      30.314  39.436   9.705  1.00  0.00    -0.079 NA
HETATM    3  N6  UNL     1      32.012  38.222   8.757  1.00  0.00    -0.217 N 
ATOM      4  H6  UNL     1      32.436  37.934   7.874  1.00  0.00     0.203 HD
ENDROOT
BRANCH   3   5
HETATM    5  N7  UNL     1      32.643  37.727   9.733  1.00  0.00    -0.284 NA
HETATM    6  C7  UNL     1      33.329  37.189  10.792  1.00  0.00     0.333 C 
HETATM    7  O1  UNL     1      34.546  36.879  10.798  1.00  0.00    -0.253 OA
BRANCH   6   8
HETATM    8  C8  UNL     1      32.656  36.904  12.129  1.00  0.00     0.294 C 
BRANCH   8   9
HETATM    9  N8  UNL     1      31.824  38.002  12.514  1.00  0.00    -0.173 N 
HETATM   10  N9  UNL     1      32.041  39.260  12.203  1.00  0.00    -0.209 N 
HETATM   11  N10 UNL     1      31.095  40.049  12.672  1.00  0.00    -0.113 N 
ATOM     12  H9  UNL     1      32.843  39.586  11.665  1.00  0.00     0.210 HD
HETATM   13  C9  UNL     1      30.247  39.214  13.310  1.00  0.00     0.737 A 
ATOM     14  H10 UNL     1      31.020  41.062  12.575  1.00  0.00     0.207 HD
HETATM   15  N11 UNL     1      29.095  39.200  14.014  1.00  0.00    -0.182 N 
HETATM   16  N13 UNL     1      30.702  37.960  13.209  1.00  0.00     0.001 N 
HETATM   17  C10 UNL     1      28.847  37.933  14.345  1.00  0.00     0.217 A 
ATOM     18  H11 UNL     1      28.520  40.010  14.249  1.00  0.00     0.185 HD
HETATM   19  N12 UNL     1      29.833  37.175  13.850  1.00  0.00    -0.258 N 
ATOM     20  H12 UNL     1      29.908  36.162  13.947  1.00  0.00     0.190 HD
ENDBRANCH   8   9
ENDBRANCH   6   8
ENDBRANCH   3   5
BRANCH   1  21
HETATM   21  C5  UNL     1      30.642  39.294   7.178  1.00  0.00     0.074 A 
HETATM   22  C2  UNL     1      31.026  40.441   6.557  1.00  0.00     0.040 A 
HETATM   23  C1  UNL     1      31.774  41.477   7.261  1.00  0.00     0.070 C 
HETATM   24  N1  UNL     1      30.716  40.651   5.240  1.00  0.00    -0.195 N 
HETATM   25  C3  UNL     1      30.030  39.739   4.537  1.00  0.00     0.677 A 
ATOM     26  H1  UNL     1      31.012  41.515   4.787  1.00  0.00     0.184 HD
HETATM   27  N3  UNL     1      29.636  38.585   5.147  1.00  0.00    -0.176 N 
HETATM   28  C4  UNL     1      29.923  38.350   6.433  1.00  0.00     0.130 A 
ATOM     29  H3  UNL     1      29.114  37.889   4.615  1.00  0.00     0.186 HD
HETATM   30  N4  UNL     1      29.548  37.258   6.987  1.00  0.00    -0.384 N 
ATOM     31  H42 UNL     1      29.025  36.571   6.445  1.00  0.00     0.157 HD
ATOM     32  H41 UNL     1      29.766  37.079   7.967  1.00  0.00     0.157 HD
BRANCH  25  33
HETATM   33  N2  UNL     1      29.753  39.959   3.306  1.00  0.00    -0.234 N 
ATOM     34  H22 UNL     1      29.958  39.261   2.592  1.00  0.00     0.174 HD
ATOM     35  H21 UNL     1      29.321  40.842   3.033  1.00  0.00     0.174 HD
ENDBRANCH  25  33
ENDBRANCH   1  21
TORSDOF 5
ENDMDL
MODEL 4
REMARK VINA RESULT: -7.244310898      2.091      2.876
REMARK  5 active torsions:
REMARK  status: ('A' for Active; 'I' for Inactive)
REMARK    1  A    between atoms: C3_5  and  N2_6 
REMARK    2  A    between atoms: C5_15  and  C6_16 
REMARK    3  A    between atoms: N6_18  and  N7_20 
REMARK       I    between atoms: N7_20  and  C7_21 
REMARK    4  A    between atoms: C7_21  and  C8_23 
REMARK    5  A    between atoms: C8_23  and  N8_24 
ROOT
HETATM    1  C6  UNL     1      30.566  40.473   7.516  1.00  0.00     0.158 C 
HETATM    2  N5  UNL     1      31.791  40.883   8.117  1.00  0.00    -0.079 NA
HETATM    3  N6  UNL     1      29.609  40.210   8.319  1.00  0.00    -0.217 N 
ATOM      4  H6  UNL     1      28.774  39.934   7.803  1.00  0.00     0.203 HD
ENDROOT
BRANCH   3   5
HETATM    5  N7  UNL     1      29.388  40.190   9.563  1.00  0.00    -0.284 NA
HETATM    6  C7  UNL     1      29.148  40.168  10.913  1.00  0.00     0.333 C 
HETATM    7  O1  UNL     1      28.022  40.052  11.457  1.00  0.00    -0.253 OA
BRANCH   6   8
HETATM    8  C8  UNL     1      30.272  40.283  11.936  1.00  0.00     0.294 C 
BRANCH   8   9
HETATM    9  N8  UNL     1      30.938  39.026  12.090  1.00  0.00    -0.173 N 
HETATM   10  N9  UNL     1      30.871  38.261  13.157  1.00  0.00    -0.209 N 
HETATM   11  N10 UNL     1      31.565  37.151  13.005  1.00  0.00    -0.113 N 
ATOM     12  H9  UNL     1      30.346  38.498  13.998  1.00  0.00     0.210 HD
HETATM   13  C9  UNL     1      32.087  37.248  11.764  1.00  0.00     0.737 A 
ATOM     14  H10 UNL     1      31.681  36.390  13.675  1.00  0.00     0.207 HD
HETATM   15  N11 UNL     1      32.865  36.585  10.881  1.00  0.00    -0.182 N 
HETATM   16  N13 UNL     1      31.698  38.402  11.210  1.00  0.00     0.001 N 
HETATM   17  C10 UNL     1      32.952  37.339   9.785  1.00  0.00     0.217 A 
ATOM     18  H11 UNL     1      33.304  35.676  11.027  1.00  0.00     0.185 HD
HETATM   19  N12 UNL     1      32.235  38.451   9.989  1.00  0.00    -0.258 N 
ATOM     20  H12 UNL     1      32.119  39.212   9.319  1.00  0.00     0.190 HD
ENDBRANCH   8   9
ENDBRANCH   6   8
ENDBRANCH   3   5
BRANCH   1  21
HETATM   21  C5  UNL     1      30.340  40.338   6.090  1.00  0.00     0.074 A 
HETATM   22  C2  UNL     1      30.058  39.150   5.491  1.00  0.00     0.040 A 
HETATM   23  C1  UNL     1      30.041  37.900   6.244  1.00  0.00     0.070 C 
HETATM   24  N1  UNL     1      29.781  39.099   4.152  1.00  0.00    -0.195 N 
HETATM   25  C3  UNL     1      29.782  40.211   3.403  1.00  0.00     0.677 A 
ATOM     26  H1  UNL     1      29.571  38.202   3.716  1.00  0.00     0.184 HD
HETATM   27  N3  UNL     1      30.064  41.410   3.989  1.00  0.00    -0.176 N 
HETATM   28  C4  UNL     1      30.340  41.492   5.296  1.00  0.00     0.130 A 
ATOM     29  H3  UNL     1      30.065  42.257   3.422  1.00  0.00     0.186 HD
HETATM   30  N4  UNL     1      30.599  42.628   5.829  1.00  0.00    -0.384 N 
ATOM     31  H42 UNL     1      30.599  43.468   5.251  1.00  0.00     0.157 HD
ATOM     32  H41 UNL     1      30.809  42.690   6.825  1.00  0.00     0.157 HD
BRANCH  25  33
HETATM   33  N2  UNL     1      29.519  40.138   2.152  1.00  0.00    -0.234 N 
ATOM     34  H22 UNL     1      30.211  40.414   1.456  1.00  0.00     0.174 HD
ATOM     35  H21 UNL     1      28.608  39.799   1.843  1.00  0.00     0.174 HD
ENDBRANCH  25  33
ENDBRANCH   1  21
TORSDOF 5
ENDMDL
MODEL 5
REMARK VINA RESULT: -7.221473018      2.199      3.440
REMARK  5 active torsions:
REMARK  status: ('A' for Active; 'I' for Inactive)
REMARK    1  A    between atoms: C3_5  and  N2_6 
REMARK    2  A    between atoms: C5_15  and  C6_16 
REMARK    3  A    between atoms: N6_18  and  N7_20 
REMARK       I    between atoms: N7_20  and  C7_21 
REMARK    4  A    between atoms: C7_21  and  C8_23 
REMARK    5  A    between atoms: C8_23  and  N8_24 
ROOT
HETATM    1  C6  UNL     1      31.602  38.576   9.184  1.00  0.00     0.158 C 
HETATM    2  N5  UNL     1      31.115  38.508  10.521  1.00  0.00    -0.079 NA
HETATM    3  N6  UNL     1      32.640  37.877   8.930  1.00  0.00    -0.217 N 
ATOM      4  H6  UNL     1      32.912  37.981   7.952  1.00  0.00     0.203 HD
ENDROOT
BRANCH   3   5
HETATM    5  N7  UNL     1      33.432  37.096   9.530  1.00  0.00    -0.284 NA
HETATM    6  C7  UNL     1      34.291  36.247  10.179  1.00  0.00     0.333 C 
HETATM    7  O1  UNL     1      34.790  35.198   9.701  1.00  0.00    -0.253 OA
BRANCH   6   8
HETATM    8  C8  UNL     1      34.750  36.502  11.609  1.00  0.00     0.294 C 
BRANCH   8   9
HETATM    9  N8  UNL     1      33.673  37.019  12.396  1.00  0.00    -0.173 N 
HETATM   10  N9  UNL     1      32.478  36.480  12.489  1.00  0.00    -0.209 N 
HETATM   11  N10 UNL     1      31.698  37.159  13.306  1.00  0.00    -0.113 N 
ATOM     12  H9  UNL     1      32.189  35.640  11.989  1.00  0.00     0.210 HD
HETATM   13  C9  UNL     1      32.472  38.178  13.739  1.00  0.00     0.737 A 
ATOM     14  H10 UNL     1      30.730  36.960  13.556  1.00  0.00     0.207 HD
HETATM   15  N11 UNL     1      32.453  39.261  14.546  1.00  0.00    -0.182 N 
HETATM   16  N13 UNL     1      33.681  38.085  13.175  1.00  0.00     0.001 N 
HETATM   17  C10 UNL     1      33.656  39.831  14.473  1.00  0.00     0.217 A 
ATOM     18  H11 UNL     1      31.665  39.582  15.108  1.00  0.00     0.185 HD
HETATM   19  N12 UNL     1      34.407  39.108  13.632  1.00  0.00    -0.258 N 
ATOM     20  H12 UNL     1      35.376  39.307  13.383  1.00  0.00     0.190 HD
ENDBRANCH   8   9
ENDBRANCH   6   8
ENDBRANCH   3   5
BRANCH   1  21
HETATM   21  C5  UNL     1      31.013  39.366   8.120  1.00  0.00     0.074 A 
HETATM   22  C2  UNL     1      31.324  40.672   7.904  1.00  0.00     0.040 A 
HETATM   23  C1  UNL     1      32.227  41.398   8.789  1.00  0.00     0.070 C 
HETATM   24  N1  UNL     1      30.790  41.342   6.837  1.00  0.00    -0.195 N 
HETATM   25  C3  UNL     1      29.952  40.733   5.986  1.00  0.00     0.677 A 
ATOM     26  H1  UNL     1      31.033  42.321   6.687  1.00  0.00     0.184 HD
HETATM   27  N3  UNL     1      29.629  39.424   6.191  1.00  0.00    -0.176 N 
HETATM   28  C4  UNL     1      30.135  38.741   7.225  1.00  0.00     0.130 A 
ATOM     29  H3  UNL     1      28.993  38.957   5.545  1.00  0.00     0.186 HD
HETATM   30  N4  UNL     1      29.823  37.511   7.398  1.00  0.00    -0.384 N 
ATOM     31  H42 UNL     1      29.184  37.056   6.746  1.00  0.00     0.157 HD
ATOM     32  H41 UNL     1      30.208  36.991   8.186  1.00  0.00     0.157 HD
BRANCH  25  33
HETATM   33  N2  UNL     1      29.466  41.382   4.995  1.00  0.00    -0.234 N 
ATOM     34  H22 UNL     1      30.015  42.097   4.518  1.00  0.00     0.174 HD
ATOM     35  H21 UNL     1      28.518  41.185   4.675  1.00  0.00     0.174 HD
ENDBRANCH  25  33
ENDBRANCH   1  21
TORSDOF 5
ENDMDL
