MODEL 1
REMARK VINA RESULT: -6.375401317      0.000      0.000
REMARK  8 active torsions:
REMARK  status: ('A' for Active; 'I' for Inactive)
REMARK    1  A    between atoms: C3_3  and  C4_4 
REMARK    2  A    between atoms: C4_4  and  C5_6 
REMARK    3  A    between atoms: N1_10  and  N2_11 
REMARK    4  A    between atoms: C8_12  and  O2_13 
REMARK    5  A    between atoms: C9_15  and  C10_16 
REMARK       I    between atoms: C10_16  and  N3_18 
REMARK    6  A    between atoms: N3_18  and  N4_20 
REMARK    7  A    between atoms: N5_23  and  N6_24 
REMARK    8  A    between atoms: C11_27  and  N7_28 
ROOT
HETATM    1  C1  UNL     1      25.985  43.945   9.313  1.00  0.00     0.012 C 
HETATM    2  C2  UNL     1      26.663  42.946   9.278  1.00  0.00    -0.110 C 
HETATM    3  C3  UNL     1      27.487  41.727   9.281  1.00  0.00     0.174 C 
ENDROOT
BRANCH   3   4
HETATM    4  C4  UNL     1      28.647  41.920   8.388  1.00  0.00     0.171 C 
HETATM    5  O1  UNL     1      29.095  43.010   8.153  1.00  0.00    -0.294 OA
BRANCH   4   6
HETATM    6  C5  UNL     1      29.271  40.711   7.773  1.00  0.00     0.234 C 
HETATM    7  S1  UNL     1      30.357  40.073   9.161  1.00  0.00    -0.133 SA
HETATM    8  C6  UNL     1      31.753  41.206   8.692  1.00  0.00     0.098 C 
HETATM    9  C7  UNL     1      31.624  41.017   7.201  1.00  0.00     0.156 C 
HETATM   10  N1  UNL     1      30.262  41.022   6.784  1.00  0.00    -0.282 N 
BRANCH  10  11
HETATM   11  N2  UNL     1      29.872  41.307   5.437  1.00  0.00    -0.060 N 
HETATM   12  C8  UNL     1      29.726  40.423   4.435  1.00  0.00     0.215 A 
HETATM   13  C9  UNL     1      29.335  41.048   3.257  1.00  0.00     0.196 A 
HETATM   14  N5  UNL     1      29.252  42.371   3.605  1.00  0.00    -0.082 N 
HETATM   15  C11 UNL     1      29.573  42.501   4.900  1.00  0.00     0.721 A 
BRANCH  12  16
HETATM   16  O2  UNL     1      29.927  39.031   4.507  1.00  0.00    -0.343 OA
ATOM     17  H2  UNL     1      29.803  38.403   3.804  1.00  0.00     0.219 HD
ENDBRANCH  12  16
BRANCH  13  18
HETATM   18  C10 UNL     1      29.068  40.486   1.954  1.00  0.00     0.293 C 
HETATM   19  O3  UNL     1      29.725  40.952   0.959  1.00  0.00    -0.264 OA
HETATM   20  N3  UNL     1      28.150  39.466   1.661  1.00  0.00    -0.271 N 
ATOM     21  H3  UNL     1      27.603  39.061   2.421  1.00  0.00     0.189 HD
BRANCH  20  22
HETATM   22  N4  UNL     1      27.958  38.981   0.345  1.00  0.00    -0.342 N 
ATOM     23  H42 UNL     1      28.644  38.325  -0.028  1.00  0.00     0.176 HD
ATOM     24  H41 UNL     1      27.164  39.268  -0.228  1.00  0.00     0.176 HD
ENDBRANCH  20  22
ENDBRANCH  13  18
BRANCH  14  25
HETATM   25  N6  UNL     1      28.889  43.380   2.690  1.00  0.00    -0.323 N 
ATOM     26  H62 UNL     1      27.965  43.586   2.311  1.00  0.00     0.178 HD
ATOM     27  H61 UNL     1      29.561  44.044   2.304  1.00  0.00     0.178 HD
ENDBRANCH  14  25
BRANCH  15  28
HETATM   28  N7  UNL     1      29.564  43.663   5.478  1.00  0.00    -0.231 N 
ATOM     29  H72 UNL     1      30.423  44.202   5.589  1.00  0.00     0.174 HD
ATOM     30  H71 UNL     1      28.770  44.168   5.870  1.00  0.00     0.174 HD
ENDBRANCH  15  28
ENDBRANCH  10  11
ENDBRANCH   4   6
ENDBRANCH   3   4
TORSDOF 8
ENDMDL
MODEL 2
REMARK VINA RESULT: -5.915567421      2.458      3.978
REMARK  8 active torsions:
REMARK  status: ('A' for Active; 'I' for Inactive)
REMARK    1  A    between atoms: C3_3  and  C4_4 
REMARK    2  A    between atoms: C4_4  and  C5_6 
REMARK    3  A    between atoms: N1_10  and  N2_11 
REMARK    4  A    between atoms: C8_12  and  O2_13 
REMARK    5  A    between atoms: C9_15  and  C10_16 
REMARK       I    between atoms: C10_16  and  N3_18 
REMARK    6  A    between atoms: N3_18  and  N4_20 
REMARK    7  A    between atoms: N5_23  and  N6_24 
REMARK    8  A    between atoms: C11_27  and  N7_28 
ROOT
HETATM    1  C1  UNL     1      34.232  44.371  10.128  1.00  0.00     0.012 C 
HETATM    2  C2  UNL     1      33.921  43.998   9.022  1.00  0.00    -0.110 C 
HETATM    3  C3  UNL     1      33.562  43.581   7.658  1.00  0.00     0.174 C 
ENDROOT
BRANCH   3   4
HETATM    4  C4  UNL     1      32.147  43.161   7.631  1.00  0.00     0.171 C 
HETATM    5  O1  UNL     1      31.720  42.314   8.370  1.00  0.00    -0.294 OA
BRANCH   4   6
HETATM    6  C5  UNL     1      31.234  43.824   6.654  1.00  0.00     0.234 C 
HETATM    7  S1  UNL     1      30.741  45.386   7.564  1.00  0.00    -0.133 SA
HETATM    8  C6  UNL     1      29.371  44.517   8.471  1.00  0.00     0.098 C 
HETATM    9  C7  UNL     1      28.881  43.712   7.293  1.00  0.00     0.156 C 
HETATM   10  N1  UNL     1      29.960  43.176   6.534  1.00  0.00    -0.282 N 
BRANCH  10  11
HETATM   11  N2  UNL     1      29.804  42.047   5.668  1.00  0.00    -0.060 N 
HETATM   12  C8  UNL     1      29.600  42.071   4.340  1.00  0.00     0.215 A 
HETATM   13  C9  UNL     1      29.494  40.788   3.817  1.00  0.00     0.196 A 
HETATM   14  N5  UNL     1      29.648  39.979   4.912  1.00  0.00    -0.082 N 
HETATM   15  C11 UNL     1      29.831  40.745   5.997  1.00  0.00     0.721 A 
BRANCH  12  16
HETATM   16  O2  UNL     1      29.497  43.217   3.526  1.00  0.00    -0.343 OA
ATOM     17  H2  UNL     1      28.874  43.928   3.625  1.00  0.00     0.219 HD
ENDBRANCH  12  16
BRANCH  13  18
HETATM   18  C10 UNL     1      29.275  40.356   2.456  1.00  0.00     0.293 C 
HETATM   19  O3  UNL     1      30.136  40.706   1.576  1.00  0.00    -0.264 OA
HETATM   20  N3  UNL     1      28.201  39.581   1.993  1.00  0.00    -0.271 N 
ATOM     21  H3  UNL     1      27.490  39.276   2.656  1.00  0.00     0.189 HD
BRANCH  20  22
HETATM   22  N4  UNL     1      28.074  39.210   0.632  1.00  0.00    -0.342 N 
ATOM     23  H42 UNL     1      27.251  39.531   0.124  1.00  0.00     0.176 HD
ATOM     24  H41 UNL     1      28.775  38.638   0.159  1.00  0.00     0.176 HD
ENDBRANCH  20  22
ENDBRANCH  13  18
BRANCH  14  25
HETATM   25  N6  UNL     1      29.599  38.572   4.836  1.00  0.00    -0.323 N 
ATOM     26  H62 UNL     1      29.007  37.931   5.364  1.00  0.00     0.178 HD
ATOM     27  H61 UNL     1      30.184  38.032   4.198  1.00  0.00     0.178 HD
ENDBRANCH  14  25
BRANCH  15  28
HETATM   28  N7  UNL     1      30.008  40.215   7.168  1.00  0.00    -0.231 N 
ATOM     29  H72 UNL     1      29.623  40.650   8.006  1.00  0.00     0.174 HD
ATOM     30  H71 UNL     1      30.511  39.360   7.406  1.00  0.00     0.174 HD
ENDBRANCH  15  28
ENDBRANCH  10  11
ENDBRANCH   4   6
ENDBRANCH   3   4
TORSDOF 8
ENDMDL
MODEL 3
REMARK VINA RESULT: -5.899590129      5.042      8.059
REMARK  8 active torsions:
REMARK  status: ('A' for Active; 'I' for Inactive)
REMARK    1  A    between atoms: C3_3  and  C4_4 
REMARK    2  A    between atoms: C4_4  and  C5_6 
REMARK    3  A    between atoms: N1_10  and  N2_11 
REMARK    4  A    between atoms: C8_12  and  O2_13 
REMARK    5  A    between atoms: C9_15  and  C10_16 
REMARK       I    between atoms: C10_16  and  N3_18 
REMARK    6  A    between atoms: N3_18  and  N4_20 
REMARK    7  A    between atoms: N5_23  and  N6_24 
REMARK    8  A    between atoms: C11_27  and  N7_28 
ROOT
HETATM    1  C1  UNL     1      30.572  39.999   4.138  1.00  0.00     0.012 C 
HETATM    2  C2  UNL     1      30.063  39.397   5.054  1.00  0.00    -0.110 C 
HETATM    3  C3  UNL     1      29.407  38.687   6.163  1.00  0.00     0.174 C 
ENDROOT
BRANCH   3   4
HETATM    4  C4  UNL     1      30.323  38.633   7.320  1.00  0.00     0.171 C 
HETATM    5  O1  UNL     1      31.276  37.900   7.344  1.00  0.00    -0.294 OA
BRANCH   4   6
HETATM    6  C5  UNL     1      30.044  39.528   8.482  1.00  0.00     0.234 C 
HETATM    7  S1  UNL     1      29.710  41.172   7.648  1.00  0.00    -0.133 SA
HETATM    8  C6  UNL     1      31.519  41.592   7.578  1.00  0.00     0.098 C 
HETATM    9  C7  UNL     1      31.856  41.092   8.961  1.00  0.00     0.156 C 
HETATM   10  N1  UNL     1      31.215  39.852   9.245  1.00  0.00    -0.282 N 
BRANCH  10  11
HETATM   11  N2  UNL     1      31.687  38.955  10.256  1.00  0.00    -0.060 N 
HETATM   12  C8  UNL     1      32.691  38.069  10.143  1.00  0.00     0.215 A 
HETATM   13  C9  UNL     1      32.879  37.360  11.323  1.00  0.00     0.196 A 
HETATM   14  N5  UNL     1      31.926  37.871  12.163  1.00  0.00    -0.082 N 
HETATM   15  C11 UNL     1      31.233  38.815  11.512  1.00  0.00     0.721 A 
BRANCH  12  16
HETATM   16  O2  UNL     1      33.486  37.842   9.003  1.00  0.00    -0.343 OA
ATOM     17  H2  UNL     1      33.960  37.045   8.792  1.00  0.00     0.219 HD
ENDBRANCH  12  16
BRANCH  13  18
HETATM   18  C10 UNL     1      33.835  36.324  11.639  1.00  0.00     0.293 C 
HETATM   19  O3  UNL     1      34.190  36.195  12.862  1.00  0.00    -0.264 OA
HETATM   20  N3  UNL     1      34.422  35.430  10.731  1.00  0.00    -0.271 N 
ATOM     21  H3  UNL     1      34.170  35.491   9.744  1.00  0.00     0.189 HD
BRANCH  20  22
HETATM   22  N4  UNL     1      35.354  34.446  11.140  1.00  0.00    -0.342 N 
ATOM     23  H42 UNL     1      36.257  34.760  11.495  1.00  0.00     0.176 HD
ATOM     24  H41 UNL     1      35.147  33.448  11.088  1.00  0.00     0.176 HD
ENDBRANCH  20  22
ENDBRANCH  13  18
BRANCH  14  25
HETATM   25  N6  UNL     1      31.754  37.420  13.488  1.00  0.00    -0.323 N 
ATOM     26  H62 UNL     1      31.269  36.584  13.812  1.00  0.00     0.178 HD
ATOM     27  H61 UNL     1      32.131  37.918  14.295  1.00  0.00     0.178 HD
ENDBRANCH  14  25
BRANCH  15  28
HETATM   28  N7  UNL     1      30.270  39.461  12.095  1.00  0.00    -0.231 N 
ATOM     29  H72 UNL     1      29.535  39.913  11.552  1.00  0.00     0.174 HD
ATOM     30  H71 UNL     1      30.114  39.598  13.094  1.00  0.00     0.174 HD
ENDBRANCH  15  28
ENDBRANCH  10  11
ENDBRANCH   4   6
ENDBRANCH   3   4
TORSDOF 8
ENDMDL
MODEL 4
REMARK VINA RESULT: -5.861992112      1.462      2.462
REMARK  8 active torsions:
REMARK  status: ('A' for Active; 'I' for Inactive)
REMARK    1  A    between atoms: C3_3  and  C4_4 
REMARK    2  A    between atoms: C4_4  and  C5_6 
REMARK    3  A    between atoms: N1_10  and  N2_11 
REMARK    4  A    between atoms: C8_12  and  O2_13 
REMARK    5  A    between atoms: C9_15  and  C10_16 
REMARK       I    between atoms: C10_16  and  N3_18 
REMARK    6  A    between atoms: N3_18  and  N4_20 
REMARK    7  A    between atoms: N5_23  and  N6_24 
REMARK    8  A    between atoms: C11_27  and  N7_28 
ROOT
HETATM    1  C1  UNL     1      26.062  43.845   9.516  1.00  0.00     0.012 C 
HETATM    2  C2  UNL     1      26.773  42.875   9.402  1.00  0.00    -0.110 C 
HETATM    3  C3  UNL     1      27.648  41.696   9.307  1.00  0.00     0.174 C 
ENDROOT
BRANCH   3   4
HETATM    4  C4  UNL     1      28.522  41.829   8.124  1.00  0.00     0.171 C 
HETATM    5  O1  UNL     1      28.594  42.853   7.499  1.00  0.00    -0.294 OA
BRANCH   4   6
HETATM    6  C5  UNL     1      29.335  40.647   7.712  1.00  0.00     0.234 C 
HETATM    7  S1  UNL     1      30.377  40.329   9.237  1.00  0.00    -0.133 SA
HETATM    8  C6  UNL     1      31.657  41.571   8.714  1.00  0.00     0.098 C 
HETATM    9  C7  UNL     1      31.671  41.187   7.255  1.00  0.00     0.156 C 
HETATM   10  N1  UNL     1      30.356  40.964   6.756  1.00  0.00    -0.282 N 
BRANCH  10  11
HETATM   11  N2  UNL     1      30.041  41.030   5.361  1.00  0.00    -0.060 N 
HETATM   12  C8  UNL     1      29.951  42.137   4.605  1.00  0.00     0.215 A 
HETATM   13  C9  UNL     1      29.626  41.831   3.290  1.00  0.00     0.196 A 
HETATM   14  N5  UNL     1      29.523  40.466   3.291  1.00  0.00    -0.082 N 
HETATM   15  C11 UNL     1      29.773  40.011   4.527  1.00  0.00     0.721 A 
BRANCH  12  16
HETATM   16  O2  UNL     1      30.151  43.464   5.034  1.00  0.00    -0.343 OA
ATOM     17  H2  UNL     1      29.504  44.035   5.432  1.00  0.00     0.219 HD
ENDBRANCH  12  16
BRANCH  13  18
HETATM   18  C10 UNL     1      29.431  42.706   2.156  1.00  0.00     0.293 C 
HETATM   19  O3  UNL     1      30.060  42.428   1.077  1.00  0.00    -0.264 OA
HETATM   20  N3  UNL     1      28.611  43.843   2.115  1.00  0.00    -0.271 N 
ATOM     21  H3  UNL     1      28.087  44.105   2.950  1.00  0.00     0.189 HD
BRANCH  20  22
HETATM   22  N4  UNL     1      28.487  44.640   0.951  1.00  0.00    -0.342 N 
ATOM     23  H42 UNL     1      28.878  45.581   0.972  1.00  0.00     0.176 HD
ATOM     24  H41 UNL     1      28.024  44.299   0.108  1.00  0.00     0.176 HD
ENDBRANCH  20  22
ENDBRANCH  13  18
BRANCH  14  25
HETATM   25  N6  UNL     1      29.192  39.723   2.138  1.00  0.00    -0.323 N 
ATOM     26  H62 UNL     1      28.639  40.019   1.335  1.00  0.00     0.178 HD
ATOM     27  H61 UNL     1      29.503  38.763   1.991  1.00  0.00     0.178 HD
ENDBRANCH  14  25
BRANCH  15  28
HETATM   28  N7  UNL     1      29.745  38.741   4.792  1.00  0.00    -0.231 N 
ATOM     29  H72 UNL     1      29.721  38.047   4.045  1.00  0.00     0.174 HD
ATOM     30  H71 UNL     1      29.747  38.286   5.705  1.00  0.00     0.174 HD
ENDBRANCH  15  28
ENDBRANCH  10  11
ENDBRANCH   4   6
ENDBRANCH   3   4
TORSDOF 8
ENDMDL
MODEL 5
REMARK VINA RESULT: -5.784014926      5.086      8.050
REMARK  8 active torsions:
REMARK  status: ('A' for Active; 'I' for Inactive)
REMARK    1  A    between atoms: C3_3  and  C4_4 
REMARK    2  A    between atoms: C4_4  and  C5_6 
REMARK    3  A    between atoms: N1_10  and  N2_11 
REMARK    4  A    between atoms: C8_12  and  O2_13 
REMARK    5  A    between atoms: C9_15  and  C10_16 
REMARK       I    between atoms: C10_16  and  N3_18 
REMARK    6  A    between atoms: N3_18  and  N4_20 
REMARK    7  A    between atoms: N5_23  and  N6_24 
REMARK    8  A    between atoms: C11_27  and  N7_28 
ROOT
HETATM    1  C1  UNL     1      34.316  44.290   8.556  1.00  0.00     0.012 C 
HETATM    2  C2  UNL     1      33.234  43.776   8.403  1.00  0.00    -0.110 C 
HETATM    3  C3  UNL     1      31.897  43.190   8.222  1.00  0.00     0.174 C 
ENDROOT
BRANCH   3   4
HETATM    4  C4  UNL     1      31.793  41.953   9.022  1.00  0.00     0.171 C 
HETATM    5  O1  UNL     1      31.565  41.975  10.202  1.00  0.00    -0.294 OA
BRANCH   4   6
HETATM    6  C5  UNL     1      31.974  40.646   8.324  1.00  0.00     0.234 C 
HETATM    7  S1  UNL     1      31.037  40.915   6.723  1.00  0.00    -0.133 SA
HETATM    8  C6  UNL     1      29.418  40.437   7.502  1.00  0.00     0.098 C 
HETATM    9  C7  UNL     1      29.956  39.273   8.295  1.00  0.00     0.156 C 
HETATM   10  N1  UNL     1      31.207  39.580   8.902  1.00  0.00    -0.282 N 
BRANCH  10  11
HETATM   11  N2  UNL     1      31.711  38.862  10.034  1.00  0.00    -0.060 N 
HETATM   12  C8  UNL     1      32.675  37.926  10.031  1.00  0.00     0.215 A 
HETATM   13  C9  UNL     1      32.912  37.436  11.310  1.00  0.00     0.196 A 
HETATM   14  N5  UNL     1      32.031  38.134  12.092  1.00  0.00    -0.082 N 
HETATM   15  C11 UNL     1      31.330  38.973  11.317  1.00  0.00     0.721 A 
BRANCH  12  16
HETATM   16  O2  UNL     1      33.390  37.460   8.911  1.00  0.00    -0.343 OA
ATOM     17  H2  UNL     1      34.113  36.843   8.917  1.00  0.00     0.219 HD
ENDBRANCH  12  16
BRANCH  13  18
HETATM   18  C10 UNL     1      33.850  36.434  11.759  1.00  0.00     0.293 C 
HETATM   19  O3  UNL     1      34.143  36.409  13.004  1.00  0.00    -0.264 OA
HETATM   20  N3  UNL     1      34.482  35.469  10.959  1.00  0.00    -0.271 N 
ATOM     21  H3  UNL     1      34.279  35.447   9.960  1.00  0.00     0.189 HD
BRANCH  20  22
HETATM   22  N4  UNL     1      35.391  34.526  11.495  1.00  0.00    -0.342 N 
ATOM     23  H42 UNL     1      35.431  34.423  12.509  1.00  0.00     0.176 HD
ATOM     24  H41 UNL     1      35.996  33.958  10.901  1.00  0.00     0.176 HD
ENDBRANCH  20  22
ENDBRANCH  13  18
BRANCH  14  25
HETATM   25  N6  UNL     1      31.926  37.940  13.485  1.00  0.00    -0.323 N 
ATOM     26  H62 UNL     1      32.137  38.601  14.232  1.00  0.00     0.178 HD
ATOM     27  H61 UNL     1      31.601  37.065  13.898  1.00  0.00     0.178 HD
ENDBRANCH  14  25
BRANCH  15  28
HETATM   28  N7  UNL     1      30.427  39.757  11.823  1.00  0.00    -0.231 N 
ATOM     29  H72 UNL     1      29.437  39.520  11.774  1.00  0.00     0.174 HD
ATOM     30  H71 UNL     1      30.560  40.645  12.306  1.00  0.00     0.174 HD
ENDBRANCH  15  28
ENDBRANCH  10  11
ENDBRANCH   4   6
ENDBRANCH   3   4
TORSDOF 8
ENDMDL
