MODEL 1
REMARK VINA RESULT: -5.784867923      0.000      0.000
REMARK  8 active torsions:
REMARK  status: ('A' for Active; 'I' for Inactive)
REMARK    1  A    between atoms: N1_1  and  C1_4 
REMARK    2  A    between atoms: N2_5  and  N3_6 
REMARK    3  A    between atoms: C3_10  and  N4_11 
REMARK    4  A    between atoms: N8_26  and  C11_27 
REMARK    5  A    between atoms: C11_27  and  C12_28 
REMARK    6  A    between atoms: C12_28  and  O1_29 
REMARK    7  A    between atoms: C12_28  and  C13_31 
REMARK    8  A    between atoms: C13_31  and  O2_32 
ROOT
HETATM    1  C1  UNL     1      32.067  38.051  11.092  1.00  0.00     0.701 A 
HETATM    2  N2  UNL     1      31.698  38.489   9.866  1.00  0.00    -0.086 N 
HETATM    3  C2  UNL     1      30.849  39.518   9.986  1.00  0.00     0.162 A 
HETATM    4  C3  UNL     1      30.200  40.316   9.071  1.00  0.00     0.138 A 
HETATM    5  N6  UNL     1      29.406  41.310   9.581  1.00  0.00    -0.337 N 
ATOM      6  H6  UNL     1      28.907  41.926   8.939  1.00  0.00     0.168 HD
HETATM    7  C9  UNL     1      29.268  41.492  10.905  1.00  0.00     0.183 A 
HETATM    8  N7  UNL     1      29.906  40.704  11.789  1.00  0.00    -0.336 N 
ATOM      9  H7  UNL     1      29.786  40.862  12.790  1.00  0.00     0.168 HD
HETATM   10  C10 UNL     1      30.713  39.696  11.354  1.00  0.00     0.158 A 
HETATM   11  N8  UNL     1      31.461  38.794  12.014  1.00  0.00    -0.162 N 
ENDROOT
BRANCH   4  12
HETATM   12  N4  UNL     1      30.273  40.140   7.669  1.00  0.00    -0.364 N 
HETATM   13  C4  UNL     1      29.346  39.162   7.146  1.00  0.00     0.126 C 
HETATM   14  C5  UNL     1      29.730  38.658   5.773  1.00  0.00     0.047 C 
HETATM   15  C6  UNL     1      29.548  39.763   4.774  1.00  0.00     0.234 C 
HETATM   16  N5  UNL     1      29.285  41.039   5.394  1.00  0.00    -0.074 N 
HETATM   17  C7  UNL     1      30.566  41.626   5.739  1.00  0.00     0.252 C 
ATOM     18  H52 UNL     1      28.710  41.652   4.816  1.00  0.00     0.277 HD
ATOM     19  H51 UNL     1      28.650  40.972   6.189  1.00  0.00     0.277 HD
HETATM   20  C8  UNL     1      31.218  40.909   6.898  1.00  0.00     0.152 C 
ENDBRANCH   4  12
BRANCH   2  21
HETATM   21  N3  UNL     1      32.147  37.964   8.643  1.00  0.00    -0.324 N 
ATOM     22  H32 UNL     1      33.127  37.805   8.406  1.00  0.00     0.178 HD
ATOM     23  H31 UNL     1      31.551  37.673   7.868  1.00  0.00     0.178 HD
ENDBRANCH   2  21
BRANCH   1  24
HETATM   24  N1  UNL     1      32.893  37.054  11.254  1.00  0.00    -0.233 N 
ATOM     25  H12 UNL     1      33.427  36.542  10.551  1.00  0.00     0.174 HD
ATOM     26  H11 UNL     1      33.095  36.661  12.172  1.00  0.00     0.174 HD
ENDBRANCH   1  24
BRANCH  11  27
HETATM   27  C11 UNL     1      31.577  38.660  13.448  1.00  0.00     0.183 C 
BRANCH  27  28
HETATM   28  C12 UNL     1      30.622  37.702  14.071  1.00  0.00     0.160 C 
BRANCH  28  29
HETATM   29  O1  UNL     1      30.588  36.481  13.428  1.00  0.00    -0.392 OA
ATOM     30  H1  UNL     1      29.707  36.207  13.201  1.00  0.00     0.210 HD
ENDBRANCH  28  29
BRANCH  28  31
HETATM   31  C13 UNL     1      29.249  38.260  14.307  1.00  0.00     0.197 C 
BRANCH  31  32
HETATM   32  O2  UNL     1      28.458  37.212  14.797  1.00  0.00    -0.398 OA
ATOM     33  H2  UNL     1      27.728  37.110  14.198  1.00  0.00     0.209 HD
ENDBRANCH  31  32
ENDBRANCH  28  31
ENDBRANCH  27  28
ENDBRANCH  11  27
TORSDOF 8
ENDMDL
MODEL 2
REMARK VINA RESULT: -5.730466381      4.036      7.293
REMARK  8 active torsions:
REMARK  status: ('A' for Active; 'I' for Inactive)
REMARK    1  A    between atoms: N1_1  and  C1_4 
REMARK    2  A    between atoms: N2_5  and  N3_6 
REMARK    3  A    between atoms: C3_10  and  N4_11 
REMARK    4  A    between atoms: N8_26  and  C11_27 
REMARK    5  A    between atoms: C11_27  and  C12_28 
REMARK    6  A    between atoms: C12_28  and  O1_29 
REMARK    7  A    between atoms: C12_28  and  C13_31 
REMARK    8  A    between atoms: C13_31  and  O2_32 
ROOT
HETATM    1  C1  UNL     1      29.807  39.395   5.845  1.00  0.00     0.701 A 
HETATM    2  N2  UNL     1      29.846  39.501   7.194  1.00  0.00    -0.086 N 
HETATM    3  C2  UNL     1      30.361  40.687   7.544  1.00  0.00     0.162 A 
HETATM    4  C3  UNL     1      30.604  41.288   8.758  1.00  0.00     0.138 A 
HETATM    5  N6  UNL     1      31.136  42.550   8.721  1.00  0.00    -0.337 N 
ATOM      6  H6  UNL     1      31.331  43.034   9.597  1.00  0.00     0.168 HD
HETATM    7  C9  UNL     1      31.407  43.166   7.557  1.00  0.00     0.183 A 
HETATM    8  N7  UNL     1      31.166  42.568   6.377  1.00  0.00    -0.336 N 
ATOM      9  H7  UNL     1      31.380  43.056   5.507  1.00  0.00     0.168 HD
HETATM   10  C10 UNL     1      30.638  41.313   6.338  1.00  0.00     0.158 A 
HETATM   11  N8  UNL     1      30.295  40.513   5.313  1.00  0.00    -0.162 N 
ENDROOT
BRANCH   4  12
HETATM   12  N4  UNL     1      30.382  40.668  10.011  1.00  0.00    -0.364 N 
HETATM   13  C4  UNL     1      31.545  40.010  10.561  1.00  0.00     0.126 C 
HETATM   14  C5  UNL     1      31.201  38.996  11.629  1.00  0.00     0.047 C 
HETATM   15  C6  UNL     1      30.696  39.714  12.846  1.00  0.00     0.234 C 
HETATM   16  N5  UNL     1      30.459  41.117  12.609  1.00  0.00    -0.074 N 
HETATM   17  C7  UNL     1      29.131  41.243  12.041  1.00  0.00     0.252 C 
ATOM     18  H52 UNL     1      30.591  41.689  13.443  1.00  0.00     0.277 HD
ATOM     19  H51 UNL     1      31.181  41.551  12.035  1.00  0.00     0.277 HD
HETATM   20  C8  UNL     1      29.076  40.732  10.621  1.00  0.00     0.152 C 
ENDBRANCH   4  12
BRANCH   2  21
HETATM   21  N3  UNL     1      29.397  38.528   8.102  1.00  0.00    -0.324 N 
ATOM     22  H32 UNL     1      29.769  37.580   8.166  1.00  0.00     0.178 HD
ATOM     23  H31 UNL     1      28.667  38.662   8.802  1.00  0.00     0.178 HD
ENDBRANCH   2  21
BRANCH   1  24
HETATM   24  N1  UNL     1      29.345  38.333   5.245  1.00  0.00    -0.233 N 
ATOM     25  H12 UNL     1      28.724  37.609   5.608  1.00  0.00     0.174 HD
ATOM     26  H11 UNL     1      29.583  38.109   4.280  1.00  0.00     0.174 HD
ENDBRANCH   1  24
BRANCH  11  27
HETATM   27  C11 UNL     1      30.436  40.812   3.906  1.00  0.00     0.183 C 
BRANCH  27  28
HETATM   28  C12 UNL     1      29.170  41.170   3.209  1.00  0.00     0.160 C 
BRANCH  28  29
HETATM   29  O1  UNL     1      28.462  40.067   2.778  1.00  0.00    -0.392 OA
ATOM     30  H1  UNL     1      27.635  40.293   2.368  1.00  0.00     0.210 HD
ENDBRANCH  28  29
BRANCH  28  31
HETATM   31  C13 UNL     1      29.326  42.203   2.131  1.00  0.00     0.197 C 
BRANCH  31  32
HETATM   32  O2  UNL     1      29.817  41.543   0.997  1.00  0.00    -0.398 OA
ATOM     33  H2  UNL     1      29.637  42.102   0.250  1.00  0.00     0.209 HD
ENDBRANCH  31  32
ENDBRANCH  28  31
ENDBRANCH  27  28
ENDBRANCH  11  27
TORSDOF 8
ENDMDL
MODEL 3
REMARK VINA RESULT: -5.592692882      4.284      7.978
REMARK  8 active torsions:
REMARK  status: ('A' for Active; 'I' for Inactive)
REMARK    1  A    between atoms: N1_1  and  C1_4 
REMARK    2  A    between atoms: N2_5  and  N3_6 
REMARK    3  A    between atoms: C3_10  and  N4_11 
REMARK    4  A    between atoms: N8_26  and  C11_27 
REMARK    5  A    between atoms: C11_27  and  C12_28 
REMARK    6  A    between atoms: C12_28  and  O1_29 
REMARK    7  A    between atoms: C12_28  and  C13_31 
REMARK    8  A    between atoms: C13_31  and  O2_32 
ROOT
HETATM    1  C1  UNL     1      29.083  42.122   4.835  1.00  0.00     0.701 A 
HETATM    2  N2  UNL     1      29.315  41.960   6.158  1.00  0.00    -0.086 N 
HETATM    3  C2  UNL     1      29.505  40.663   6.433  1.00  0.00     0.162 A 
HETATM    4  C3  UNL     1      29.782  39.975   7.592  1.00  0.00     0.138 A 
HETATM    5  N6  UNL     1      29.932  38.618   7.478  1.00  0.00    -0.337 N 
ATOM      6  H6  UNL     1      30.140  38.068   8.312  1.00  0.00     0.168 HD
HETATM    7  C9  UNL     1      29.814  37.993   6.293  1.00  0.00     0.183 A 
HETATM    8  N7  UNL     1      29.542  38.676   5.167  1.00  0.00    -0.336 N 
ATOM      9  H7  UNL     1      29.457  38.180   4.280  1.00  0.00     0.168 HD
HETATM   10  C10 UNL     1      29.379  40.029   5.206  1.00  0.00     0.158 A 
HETATM   11  N8  UNL     1      29.122  40.931   4.244  1.00  0.00    -0.162 N 
ENDROOT
BRANCH   4  12
HETATM   12  N4  UNL     1      29.871  40.575   8.871  1.00  0.00    -0.364 N 
HETATM   13  C4  UNL     1      28.609  40.675   9.568  1.00  0.00     0.126 C 
HETATM   14  C5  UNL     1      28.629  41.693  10.686  1.00  0.00     0.047 C 
HETATM   15  C6  UNL     1      29.510  41.191  11.793  1.00  0.00     0.234 C 
HETATM   16  N5  UNL     1      30.264  40.020  11.419  1.00  0.00    -0.074 N 
HETATM   17  C7  UNL     1      31.460  40.472  10.736  1.00  0.00     0.252 C 
ATOM     18  H52 UNL     1      30.465  39.406  12.210  1.00  0.00     0.277 HD
ATOM     19  H51 UNL     1      29.719  39.354  10.871  1.00  0.00     0.277 HD
HETATM   20  C8  UNL     1      31.150  41.023   9.365  1.00  0.00     0.152 C 
ENDBRANCH   4  12
BRANCH   2  21
HETATM   21  N3  UNL     1      29.373  42.993   7.109  1.00  0.00    -0.324 N 
ATOM     22  H32 UNL     1      29.363  43.988   6.885  1.00  0.00     0.178 HD
ATOM     23  H31 UNL     1      29.415  42.865   8.120  1.00  0.00     0.178 HD
ENDBRANCH   2  21
BRANCH   1  24
HETATM   24  N1  UNL     1      28.868  43.295   4.307  1.00  0.00    -0.233 N 
ATOM     25  H12 UNL     1      28.039  43.886   4.369  1.00  0.00     0.174 HD
ATOM     26  H11 UNL     1      29.566  43.767   3.732  1.00  0.00     0.174 HD
ENDBRANCH   1  24
BRANCH  11  27
HETATM   27  C11 UNL     1      28.923  40.655   2.839  1.00  0.00     0.183 C 
BRANCH  27  28
HETATM   28  C12 UNL     1      27.514  40.762   2.369  1.00  0.00     0.160 C 
BRANCH  28  29
HETATM   29  O1  UNL     1      26.799  39.595   2.541  1.00  0.00    -0.392 OA
ATOM     30  H1  UNL     1      26.921  38.977   1.829  1.00  0.00     0.210 HD
ENDBRANCH  28  29
BRANCH  28  31
HETATM   31  C13 UNL     1      27.362  41.325   0.986  1.00  0.00     0.197 C 
BRANCH  31  32
HETATM   32  O2  UNL     1      27.752  40.321   0.089  1.00  0.00    -0.398 OA
ATOM     33  H2  UNL     1      26.994  39.766  -0.054  1.00  0.00     0.209 HD
ENDBRANCH  31  32
ENDBRANCH  28  31
ENDBRANCH  27  28
ENDBRANCH  11  27
TORSDOF 8
ENDMDL
MODEL 4
REMARK VINA RESULT: -5.577924138      3.525      5.443
REMARK  8 active torsions:
REMARK  status: ('A' for Active; 'I' for Inactive)
REMARK    1  A    between atoms: N1_1  and  C1_4 
REMARK    2  A    between atoms: N2_5  and  N3_6 
REMARK    3  A    between atoms: C3_10  and  N4_11 
REMARK    4  A    between atoms: N8_26  and  C11_27 
REMARK    5  A    between atoms: C11_27  and  C12_28 
REMARK    6  A    between atoms: C12_28  and  O1_29 
REMARK    7  A    between atoms: C12_28  and  C13_31 
REMARK    8  A    between atoms: C13_31  and  O2_32 
ROOT
HETATM    1  C1  UNL     1      29.641  39.312   6.428  1.00  0.00     0.701 A 
HETATM    2  N2  UNL     1      29.362  39.913   5.247  1.00  0.00    -0.086 N 
HETATM    3  C2  UNL     1      29.192  41.228   5.434  1.00  0.00     0.162 A 
HETATM    4  C3  UNL     1      28.910  42.272   4.583  1.00  0.00     0.138 A 
HETATM    5  N6  UNL     1      28.829  43.518   5.148  1.00  0.00    -0.337 N 
ATOM      6  H6  UNL     1      28.623  44.322   4.554  1.00  0.00     0.168 HD
HETATM    7  C9  UNL     1      29.014  43.707   6.466  1.00  0.00     0.183 A 
HETATM    8  N7  UNL     1      29.288  42.678   7.288  1.00  0.00    -0.336 N 
ATOM      9  H7  UNL     1      29.424  42.847   8.284  1.00  0.00     0.168 HD
HETATM   10  C10 UNL     1      29.384  41.412   6.795  1.00  0.00     0.158 A 
HETATM   11  N8  UNL     1      29.656  40.235   7.386  1.00  0.00    -0.162 N 
ENDROOT
BRANCH   4  12
HETATM   12  N4  UNL     1      28.660  42.124   3.198  1.00  0.00    -0.364 N 
HETATM   13  C4  UNL     1      27.260  42.029   2.855  1.00  0.00     0.126 C 
HETATM   14  C5  UNL     1      27.025  41.428   1.487  1.00  0.00     0.047 C 
HETATM   15  C6  UNL     1      27.494  42.394   0.438  1.00  0.00     0.234 C 
HETATM   16  N5  UNL     1      28.232  43.503   0.990  1.00  0.00    -0.074 N 
HETATM   17  C7  UNL     1      29.609  43.075   1.145  1.00  0.00     0.252 C 
ATOM     18  H52 UNL     1      28.141  44.357   0.439  1.00  0.00     0.277 HD
ATOM     19  H51 UNL     1      27.826  43.860   1.855  1.00  0.00     0.277 HD
HETATM   20  C8  UNL     1      29.765  42.081   2.271  1.00  0.00     0.152 C 
ENDBRANCH   4  12
BRANCH   2  21
HETATM   21  N3  UNL     1      29.280  39.267   4.002  1.00  0.00    -0.324 N 
ATOM     22  H32 UNL     1      28.883  38.338   3.857  1.00  0.00     0.178 HD
ATOM     23  H31 UNL     1      29.590  39.655   3.112  1.00  0.00     0.178 HD
ENDBRANCH   2  21
BRANCH   1  24
HETATM   24  N1  UNL     1      29.853  38.028   6.520  1.00  0.00    -0.233 N 
ATOM     25  H12 UNL     1      29.565  37.381   7.255  1.00  0.00     0.174 HD
ATOM     26  H11 UNL     1      30.370  37.511   5.810  1.00  0.00     0.174 HD
ENDBRANCH   1  24
BRANCH  11  27
HETATM   27  C11 UNL     1      29.910  40.019   8.792  1.00  0.00     0.183 C 
BRANCH  27  28
HETATM   28  C12 UNL     1      31.348  39.904   9.162  1.00  0.00     0.160 C 
BRANCH  28  29
HETATM   29  O1  UNL     1      32.193  40.431   8.207  1.00  0.00    -0.392 OA
ATOM     30  H1  UNL     1      33.104  40.431   8.478  1.00  0.00     0.210 HD
ENDBRANCH  28  29
BRANCH  28  31
HETATM   31  C13 UNL     1      31.768  38.530   9.598  1.00  0.00     0.197 C 
BRANCH  31  32
HETATM   32  O2  UNL     1      32.227  37.859   8.457  1.00  0.00    -0.398 OA
ATOM     33  H2  UNL     1      31.557  37.230   8.215  1.00  0.00     0.209 HD
ENDBRANCH  31  32
ENDBRANCH  28  31
ENDBRANCH  27  28
ENDBRANCH  11  27
TORSDOF 8
ENDMDL
MODEL 5
REMARK VINA RESULT: -5.574282481      0.961      2.761
REMARK  8 active torsions:
REMARK  status: ('A' for Active; 'I' for Inactive)
REMARK    1  A    between atoms: N1_1  and  C1_4 
REMARK    2  A    between atoms: N2_5  and  N3_6 
REMARK    3  A    between atoms: C3_10  and  N4_11 
REMARK    4  A    between atoms: N8_26  and  C11_27 
REMARK    5  A    between atoms: C11_27  and  C12_28 
REMARK    6  A    between atoms: C12_28  and  O1_29 
REMARK    7  A    between atoms: C12_28  and  C13_31 
REMARK    8  A    between atoms: C13_31  and  O2_32 
ROOT
HETATM    1  C1  UNL     1      30.150  40.200  11.990  1.00  0.00     0.701 A 
HETATM    2  N2  UNL     1      30.026  40.346  10.650  1.00  0.00    -0.086 N 
HETATM    3  C2  UNL     1      30.835  39.483  10.021  1.00  0.00     0.162 A 
HETATM    4  C3  UNL     1      31.078  39.216   8.693  1.00  0.00     0.138 A 
HETATM    5  N6  UNL     1      31.982  38.222   8.424  1.00  0.00    -0.337 N 
ATOM      6  H6  UNL     1      32.193  37.989   7.454  1.00  0.00     0.168 HD
HETATM    7  C9  UNL     1      32.599  37.545   9.409  1.00  0.00     0.183 A 
HETATM    8  N7  UNL     1      32.353  37.816  10.703  1.00  0.00    -0.336 N 
ATOM      9  H7  UNL     1      32.833  37.288  11.432  1.00  0.00     0.168 HD
HETATM   10  C10 UNL     1      31.465  38.792  11.045  1.00  0.00     0.158 A 
HETATM   11  N8  UNL     1      31.038  39.241  12.237  1.00  0.00    -0.162 N 
ENDROOT
BRANCH   4  12
HETATM   12  N4  UNL     1      30.494  39.928   7.619  1.00  0.00    -0.364 N 
HETATM   13  C4  UNL     1      31.187  41.147   7.269  1.00  0.00     0.126 C 
HETATM   14  C5  UNL     1      30.334  42.103   6.465  1.00  0.00     0.047 C 
HETATM   15  C6  UNL     1      30.099  41.524   5.100  1.00  0.00     0.234 C 
HETATM   16  N5  UNL     1      30.536  40.155   4.991  1.00  0.00    -0.074 N 
HETATM   17  C7  UNL     1      29.461  39.314   5.480  1.00  0.00     0.252 C 
ATOM     18  H52 UNL     1      30.838  39.907   4.048  1.00  0.00     0.277 HD
ATOM     19  H51 UNL     1      31.424  39.981   5.463  1.00  0.00     0.277 HD
HETATM   20  C8  UNL     1      29.308  39.414   6.979  1.00  0.00     0.152 C 
ENDBRANCH   4  12
BRANCH   2  21
HETATM   21  N3  UNL     1      29.166  41.249  10.003  1.00  0.00    -0.324 N 
ATOM     22  H32 UNL     1      28.445  40.982   9.333  1.00  0.00     0.178 HD
ATOM     23  H31 UNL     1      29.157  42.259  10.140  1.00  0.00     0.178 HD
ENDBRANCH   2  21
BRANCH   1  24
HETATM   24  N1  UNL     1      29.466  40.924  12.833  1.00  0.00    -0.233 N 
ATOM     25  H12 UNL     1      29.628  41.885  13.133  1.00  0.00     0.174 HD
ATOM     26  H11 UNL     1      28.641  40.565  13.311  1.00  0.00     0.174 HD
ENDBRANCH   1  24
BRANCH  11  27
HETATM   27  C11 UNL     1      31.466  38.771  13.535  1.00  0.00     0.183 C 
BRANCH  27  28
HETATM   28  C12 UNL     1      30.839  37.497  13.983  1.00  0.00     0.160 C 
BRANCH  28  29
HETATM   29  O1  UNL     1      31.094  36.442  13.131  1.00  0.00    -0.392 OA
ATOM     30  H1  UNL     1      31.509  35.706  13.566  1.00  0.00     0.210 HD
ENDBRANCH  28  29
BRANCH  28  31
HETATM   31  C13 UNL     1      29.382  37.611  14.328  1.00  0.00     0.197 C 
BRANCH  31  32
HETATM   32  O2  UNL     1      29.237  38.752  15.128  1.00  0.00    -0.398 OA
ATOM     33  H2  UNL     1      28.619  38.534  15.815  1.00  0.00     0.209 HD
ENDBRANCH  31  32
ENDBRANCH  28  31
ENDBRANCH  27  28
ENDBRANCH  11  27
TORSDOF 8
ENDMDL
