MODEL 1
REMARK VINA RESULT: -6.118072439      0.000      0.000
REMARK  10 active torsions:
REMARK  status: ('A' for Active; 'I' for Inactive)
REMARK    1  A    between atoms: N1_2  and  N2_3 
REMARK    2  A    between atoms: N1_2  and  C2_6 
REMARK    3  A    between atoms: C3_9  and  N4_10 
REMARK    4  A    between atoms: N4_10  and  O1_12 
REMARK    5  A    between atoms: C5_19  and  C6_20 
REMARK    6  A    between atoms: C7_25  and  N9_26 
REMARK    7  A    between atoms: N9_26  and  C8_28 
REMARK    8  A    between atoms: C8_28  and  C9_29 
REMARK    9  A    between atoms: C9_29  and  O3_30 
REMARK   10  A    between atoms: C9_29  and  O4_32 
ROOT
HETATM    1  C2  UNL     1      30.892  39.638  10.515  1.00  0.00     0.154 A 
HETATM    2  N3  UNL     1      31.695  38.596  10.899  1.00  0.00    -0.172 N 
ATOM      3  H3  UNL     1      31.882  38.452  11.891  1.00  0.00     0.186 HD
HETATM    4  C3  UNL     1      32.235  37.771  10.010  1.00  0.00     0.705 A 
HETATM    5  N5  UNL     1      32.008  37.937   8.702  1.00  0.00    -0.174 N 
ATOM      6  H5  UNL     1      32.437  37.289   8.042  1.00  0.00     0.186 HD
HETATM    7  C4  UNL     1      31.230  38.933   8.224  1.00  0.00     0.140 A 
HETATM    8  N6  UNL     1      31.014  39.058   6.895  1.00  0.00    -0.323 N 
ATOM      9  H6  UNL     1      31.450  38.404   6.245  1.00  0.00     0.169 HD
HETATM   10  C5  UNL     1      30.230  40.037   6.429  1.00  0.00     0.174 A 
HETATM   11  N8  UNL     1      29.682  40.867   7.323  1.00  0.00    -0.324 N 
ATOM     12  H8  UNL     1      29.081  41.614   6.975  1.00  0.00     0.169 HD
HETATM   13  C7  UNL     1      29.871  40.781   8.665  1.00  0.00     0.120 A 
HETATM   14  C10 UNL     1      30.667  39.793   9.171  1.00  0.00     0.098 A 
ENDROOT
BRANCH  13  15
HETATM   15  N9  UNL     1      29.288  41.600   9.464  1.00  0.00    -0.371 N 
ATOM     16  H9  UNL     1      29.718  41.857  10.353  1.00  0.00     0.161 HD
BRANCH  15  17
HETATM   17  C8  UNL     1      28.011  42.149   9.077  1.00  0.00     0.181 C 
BRANCH  17  18
HETATM   18  C9  UNL     1      26.946  41.871  10.125  1.00  0.00     0.271 C 
BRANCH  18  19
HETATM   19  O3  UNL     1      26.798  40.504  10.347  1.00  0.00    -0.370 OA
ATOM     20  H3  UNL     1      27.510  40.161  10.874  1.00  0.00     0.212 HD
ENDBRANCH  18  19
BRANCH  18  21
HETATM   21  O4  UNL     1      27.396  42.446  11.311  1.00  0.00    -0.370 OA
ATOM     22  H4  UNL     1      26.927  43.265  11.412  1.00  0.00     0.212 HD
ENDBRANCH  18  21
ENDBRANCH  17  18
ENDBRANCH  15  17
ENDBRANCH  13  15
BRANCH  10  23
HETATM   23  C6  UNL     1      29.980  40.192   4.980  1.00  0.00     0.298 C 
HETATM   24  N7  UNL     1      30.465  41.345   4.300  1.00  0.00    -0.054 NA
HETATM   25  O2  UNL     1      29.348  39.301   4.389  1.00  0.00    -0.268 OA
ENDBRANCH  10  23
BRANCH   1  26
HETATM   26  N1  UNL     1      30.403  40.507  11.516  1.00  0.00    -0.286 N 
HETATM   27  C1  UNL     1      31.070  41.732  11.896  1.00  0.00     0.179 C 
BRANCH  26  28
HETATM   28  N2  UNL     1      29.230  40.166  12.186  1.00  0.00    -0.342 N 
ATOM     29  H22 UNL     1      29.094  40.499  13.140  1.00  0.00     0.177 HD
ATOM     30  H21 UNL     1      28.540  39.601  11.689  1.00  0.00     0.177 HD
ENDBRANCH  26  28
ENDBRANCH   1  26
BRANCH   4  31
HETATM   31  N4  UNL     1      32.979  36.813  10.415  1.00  0.00    -0.098 N 
ATOM     32  H4  UNL     1      32.708  36.332  11.273  1.00  0.00     0.213 HD
BRANCH  31  33
HETATM   33  O1  UNL     1      34.114  36.389   9.778  1.00  0.00    -0.276 OA
ATOM     34  H1  UNL     1      34.124  35.922   8.951  1.00  0.00     0.245 HD
ENDBRANCH  31  33
ENDBRANCH   4  31
TORSDOF 10
ENDMDL
MODEL 2
REMARK VINA RESULT: -5.665583125      4.248      7.657
REMARK  10 active torsions:
REMARK  status: ('A' for Active; 'I' for Inactive)
REMARK    1  A    between atoms: N1_2  and  N2_3 
REMARK    2  A    between atoms: N1_2  and  C2_6 
REMARK    3  A    between atoms: C3_9  and  N4_10 
REMARK    4  A    between atoms: N4_10  and  O1_12 
REMARK    5  A    between atoms: C5_19  and  C6_20 
REMARK    6  A    between atoms: C7_25  and  N9_26 
REMARK    7  A    between atoms: N9_26  and  C8_28 
REMARK    8  A    between atoms: C8_28  and  C9_29 
REMARK    9  A    between atoms: C9_29  and  O3_30 
REMARK   10  A    between atoms: C9_29  and  O4_32 
ROOT
HETATM    1  C2  UNL     1      27.916  42.696   2.525  1.00  0.00     0.154 A 
HETATM    2  N3  UNL     1      27.633  42.218   1.272  1.00  0.00    -0.172 N 
ATOM      3  H3  UNL     1      27.244  42.852   0.574  1.00  0.00     0.186 HD
HETATM    4  C3  UNL     1      27.853  40.950   0.946  1.00  0.00     0.705 A 
HETATM    5  N5  UNL     1      28.361  40.097   1.841  1.00  0.00    -0.174 N 
ATOM      6  H5  UNL     1      28.519  39.128   1.562  1.00  0.00     0.186 HD
HETATM    7  C4  UNL     1      28.674  40.471   3.101  1.00  0.00     0.140 A 
HETATM    8  N6  UNL     1      29.200  39.579   3.972  1.00  0.00    -0.323 N 
ATOM      9  H6  UNL     1      29.351  38.613   3.682  1.00  0.00     0.169 HD
HETATM   10  C5  UNL     1      29.522  39.960   5.213  1.00  0.00     0.174 A 
HETATM   11  N8  UNL     1      29.304  41.238   5.543  1.00  0.00    -0.324 N 
ATOM     12  H8  UNL     1      29.549  41.535   6.487  1.00  0.00     0.169 HD
HETATM   13  C7  UNL     1      28.778  42.167   4.704  1.00  0.00     0.120 A 
HETATM   14  C10 UNL     1      28.438  41.808   3.430  1.00  0.00     0.098 A 
ENDROOT
BRANCH  13  15
HETATM   15  N9  UNL     1      28.624  43.384   5.085  1.00  0.00    -0.371 N 
ATOM     16  H9  UNL     1      28.392  44.116   4.412  1.00  0.00     0.161 HD
BRANCH  15  17
HETATM   17  C8  UNL     1      28.785  43.693   6.485  1.00  0.00     0.181 C 
BRANCH  17  18
HETATM   18  C9  UNL     1      29.736  44.861   6.690  1.00  0.00     0.271 C 
BRANCH  18  19
HETATM   19  O3  UNL     1      31.057  44.430   6.774  1.00  0.00    -0.370 OA
ATOM     20  H3  UNL     1      31.321  44.302   7.678  1.00  0.00     0.212 HD
ENDBRANCH  18  19
BRANCH  18  21
HETATM   21  O4  UNL     1      29.625  45.666   5.559  1.00  0.00    -0.370 OA
ATOM     22  H4  UNL     1      29.779  46.559   5.845  1.00  0.00     0.212 HD
ENDBRANCH  18  21
ENDBRANCH  17  18
ENDBRANCH  15  17
ENDBRANCH  13  15
BRANCH  10  23
HETATM   23  C6  UNL     1      30.097  39.002   6.182  1.00  0.00     0.298 C 
HETATM   24  N7  UNL     1      29.812  37.613   6.055  1.00  0.00    -0.054 NA
HETATM   25  O2  UNL     1      30.823  39.441   7.089  1.00  0.00    -0.268 OA
ENDBRANCH  10  23
BRANCH   1  26
HETATM   26  N1  UNL     1      27.598  44.043   2.812  1.00  0.00    -0.286 N 
HETATM   27  C1  UNL     1      26.305  44.463   3.305  1.00  0.00     0.179 C 
BRANCH  26  28
HETATM   28  N2  UNL     1      28.567  45.021   2.599  1.00  0.00    -0.342 N 
ATOM     29  H22 UNL     1      28.351  45.799   1.976  1.00  0.00     0.177 HD
ATOM     30  H21 UNL     1      29.459  44.927   3.086  1.00  0.00     0.177 HD
ENDBRANCH  26  28
ENDBRANCH   1  26
BRANCH   4  31
HETATM   31  N4  UNL     1      27.573  40.550  -0.236  1.00  0.00    -0.098 N 
ATOM     32  H4  UNL     1      27.831  39.596  -0.488  1.00  0.00     0.213 HD
BRANCH  31  33
HETATM   33  O1  UNL     1      26.950  41.314  -1.186  1.00  0.00    -0.276 OA
ATOM     34  H1  UNL     1      26.012  41.326  -1.337  1.00  0.00     0.245 HD
ENDBRANCH  31  33
ENDBRANCH   4  31
TORSDOF 10
ENDMDL
MODEL 3
REMARK VINA RESULT: -5.597861044      2.594      5.447
REMARK  10 active torsions:
REMARK  status: ('A' for Active; 'I' for Inactive)
REMARK    1  A    between atoms: N1_2  and  N2_3 
REMARK    2  A    between atoms: N1_2  and  C2_6 
REMARK    3  A    between atoms: C3_9  and  N4_10 
REMARK    4  A    between atoms: N4_10  and  O1_12 
REMARK    5  A    between atoms: C5_19  and  C6_20 
REMARK    6  A    between atoms: C7_25  and  N9_26 
REMARK    7  A    between atoms: N9_26  and  C8_28 
REMARK    8  A    between atoms: C8_28  and  C9_29 
REMARK    9  A    between atoms: C9_29  and  O3_30 
REMARK   10  A    between atoms: C9_29  and  O4_32 
ROOT
HETATM    1  C2  UNL     1      29.995  41.436   6.811  1.00  0.00     0.154 A 
HETATM    2  N3  UNL     1      29.440  41.030   5.626  1.00  0.00    -0.172 N 
ATOM      3  H3  UNL     1      28.989  41.720   5.026  1.00  0.00     0.186 HD
HETATM    4  C3  UNL     1      29.474  39.759   5.242  1.00  0.00     0.705 A 
HETATM    5  N5  UNL     1      30.057  38.833   6.010  1.00  0.00    -0.174 N 
ATOM      6  H5  UNL     1      30.067  37.865   5.689  1.00  0.00     0.186 HD
HETATM    7  C4  UNL     1      30.634  39.133   7.194  1.00  0.00     0.140 A 
HETATM    8  N6  UNL     1      31.226  38.168   7.935  1.00  0.00    -0.323 N 
ATOM      9  H6  UNL     1      31.228  37.203   7.604  1.00  0.00     0.169 HD
HETATM   10  C5  UNL     1      31.809  38.475   9.099  1.00  0.00     0.174 A 
HETATM   11  N8  UNL     1      31.778  39.755   9.486  1.00  0.00    -0.324 N 
ATOM     12  H8  UNL     1      32.223  39.996  10.372  1.00  0.00     0.169 HD
HETATM   13  C7  UNL     1      31.196  40.756   8.778  1.00  0.00     0.120 A 
HETATM   14  C10 UNL     1      30.591  40.474   7.585  1.00  0.00     0.098 A 
ENDROOT
BRANCH  13  15
HETATM   15  N9  UNL     1      31.231  41.968   9.202  1.00  0.00    -0.371 N 
ATOM     16  H9  UNL     1      30.451  42.603   9.032  1.00  0.00     0.161 HD
BRANCH  15  17
HETATM   17  C8  UNL     1      32.398  42.410   9.926  1.00  0.00     0.181 C 
BRANCH  17  18
HETATM   18  C9  UNL     1      33.294  43.277   9.057  1.00  0.00     0.271 C 
BRANCH  18  19
HETATM   19  O3  UNL     1      33.540  42.676   7.825  1.00  0.00    -0.370 OA
ATOM     20  H3  UNL     1      33.244  41.773   7.817  1.00  0.00     0.212 HD
ENDBRANCH  18  19
BRANCH  18  21
HETATM   21  O4  UNL     1      32.596  44.458   8.820  1.00  0.00    -0.370 OA
ATOM     22  H4  UNL     1      33.159  45.004   8.283  1.00  0.00     0.212 HD
ENDBRANCH  18  21
ENDBRANCH  17  18
ENDBRANCH  15  17
ENDBRANCH  13  15
BRANCH  10  23
HETATM   23  C6  UNL     1      32.461  37.436   9.924  1.00  0.00     0.298 C 
HETATM   24  N7  UNL     1      33.641  36.796   9.449  1.00  0.00    -0.054 NA
HETATM   25  O2  UNL     1      31.957  37.148  11.022  1.00  0.00    -0.268 OA
ENDBRANCH  10  23
BRANCH   1  26
HETATM   26  N1  UNL     1      29.866  42.795   7.177  1.00  0.00    -0.286 N 
HETATM   27  C1  UNL     1      28.775  43.297   7.982  1.00  0.00     0.179 C 
BRANCH  26  28
HETATM   28  N2  UNL     1      30.824  43.704   6.731  1.00  0.00    -0.342 N 
ATOM     29  H22 UNL     1      30.525  44.489   6.153  1.00  0.00     0.177 HD
ATOM     30  H21 UNL     1      31.793  43.555   7.013  1.00  0.00     0.177 HD
ENDBRANCH  26  28
ENDBRANCH   1  26
BRANCH   4  31
HETATM   31  N4  UNL     1      28.941  39.428   4.128  1.00  0.00    -0.098 N 
ATOM     32  H4  UNL     1      28.159  38.774   4.151  1.00  0.00     0.213 HD
BRANCH  31  33
HETATM   33  O1  UNL     1      29.349  39.890   2.905  1.00  0.00    -0.276 OA
ATOM     34  H1  UNL     1      29.772  40.728   2.761  1.00  0.00     0.245 HD
ENDBRANCH  31  33
ENDBRANCH   4  31
TORSDOF 10
ENDMDL
MODEL 4
REMARK VINA RESULT: -5.558332059      1.687      4.796
REMARK  10 active torsions:
REMARK  status: ('A' for Active; 'I' for Inactive)
REMARK    1  A    between atoms: N1_2  and  N2_3 
REMARK    2  A    between atoms: N1_2  and  C2_6 
REMARK    3  A    between atoms: C3_9  and  N4_10 
REMARK    4  A    between atoms: N4_10  and  O1_12 
REMARK    5  A    between atoms: C5_19  and  C6_20 
REMARK    6  A    between atoms: C7_25  and  N9_26 
REMARK    7  A    between atoms: N9_26  and  C8_28 
REMARK    8  A    between atoms: C8_28  and  C9_29 
REMARK    9  A    between atoms: C9_29  and  O3_30 
REMARK   10  A    between atoms: C9_29  and  O4_32 
ROOT
HETATM    1  C2  UNL     1      29.232  40.255   8.260  1.00  0.00     0.154 A 
HETATM    2  N3  UNL     1      28.894  39.953   6.967  1.00  0.00    -0.172 N 
ATOM      3  H3  UNL     1      28.172  40.502   6.500  1.00  0.00     0.186 HD
HETATM    4  C3  UNL     1      29.484  38.964   6.306  1.00  0.00     0.705 A 
HETATM    5  N5  UNL     1      30.434  38.228   6.893  1.00  0.00    -0.174 N 
ATOM      6  H5  UNL     1      30.869  37.473   6.362  1.00  0.00     0.186 HD
HETATM    7  C4  UNL     1      30.838  38.447   8.164  1.00  0.00     0.140 A 
HETATM    8  N6  UNL     1      31.812  37.687   8.715  1.00  0.00    -0.323 N 
ATOM      9  H6  UNL     1      32.239  36.935   8.174  1.00  0.00     0.169 HD
HETATM   10  C5  UNL     1      32.219  37.919   9.968  1.00  0.00     0.174 A 
HETATM   11  N8  UNL     1      31.628  38.918  10.634  1.00  0.00    -0.324 N 
ATOM     12  H8  UNL     1      31.935  39.102  11.589  1.00  0.00     0.169 HD
HETATM   13  C7  UNL     1      30.646  39.705  10.122  1.00  0.00     0.120 A 
HETATM   14  C10 UNL     1      30.209  39.491   8.846  1.00  0.00     0.098 A 
ENDROOT
BRANCH  13  15
HETATM   15  N9  UNL     1      30.145  40.664  10.815  1.00  0.00    -0.371 N 
ATOM     16  H9  UNL     1      29.483  41.318  10.397  1.00  0.00     0.161 HD
BRANCH  15  17
HETATM   17  C8  UNL     1      30.540  40.795  12.196  1.00  0.00     0.181 C 
BRANCH  17  18
HETATM   18  C9  UNL     1      29.505  40.187  13.129  1.00  0.00     0.271 C 
BRANCH  18  19
HETATM   19  O3  UNL     1      28.254  40.118  12.520  1.00  0.00    -0.370 OA
ATOM     20  H3  UNL     1      27.837  39.280  12.684  1.00  0.00     0.212 HD
ENDBRANCH  18  19
BRANCH  18  21
HETATM   21  O4  UNL     1      29.921  38.885  13.390  1.00  0.00    -0.370 OA
ATOM     22  H4  UNL     1      29.142  38.392  13.623  1.00  0.00     0.212 HD
ENDBRANCH  18  21
ENDBRANCH  17  18
ENDBRANCH  15  17
ENDBRANCH  13  15
BRANCH  10  23
HETATM   23  C6  UNL     1      33.282  37.102  10.591  1.00  0.00     0.298 C 
HETATM   24  N7  UNL     1      34.083  36.250   9.779  1.00  0.00    -0.054 NA
HETATM   25  O2  UNL     1      33.449  37.183  11.819  1.00  0.00    -0.268 OA
ENDBRANCH  10  23
BRANCH   1  26
HETATM   26  N1  UNL     1      28.517  41.284   8.913  1.00  0.00    -0.286 N 
HETATM   27  C1  UNL     1      28.856  42.684   8.790  1.00  0.00     0.179 C 
BRANCH  26  28
HETATM   28  N2  UNL     1      27.443  40.940   9.731  1.00  0.00    -0.342 N 
ATOM     29  H22 UNL     1      26.496  41.031   9.364  1.00  0.00     0.177 HD
ATOM     30  H21 UNL     1      27.646  40.597  10.671  1.00  0.00     0.177 HD
ENDBRANCH  26  28
ENDBRANCH   1  26
BRANCH   4  31
HETATM   31  N4  UNL     1      29.135  38.720   5.101  1.00  0.00    -0.098 N 
ATOM     32  H4  UNL     1      28.744  37.800   4.897  1.00  0.00     0.213 HD
BRANCH  31  33
HETATM   33  O1  UNL     1      29.250  39.607   4.065  1.00  0.00    -0.276 OA
ATOM     34  H1  UNL     1      28.589  40.246   3.828  1.00  0.00     0.245 HD
ENDBRANCH  31  33
ENDBRANCH   4  31
TORSDOF 10
ENDMDL
MODEL 5
REMARK VINA RESULT: -5.530706513      4.066      6.775
REMARK  10 active torsions:
REMARK  status: ('A' for Active; 'I' for Inactive)
REMARK    1  A    between atoms: N1_2  and  N2_3 
REMARK    2  A    between atoms: N1_2  and  C2_6 
REMARK    3  A    between atoms: C3_9  and  N4_10 
REMARK    4  A    between atoms: N4_10  and  O1_12 
REMARK    5  A    between atoms: C5_19  and  C6_20 
REMARK    6  A    between atoms: C7_25  and  N9_26 
REMARK    7  A    between atoms: N9_26  and  C8_28 
REMARK    8  A    between atoms: C8_28  and  C9_29 
REMARK    9  A    between atoms: C9_29  and  O3_30 
REMARK   10  A    between atoms: C9_29  and  O4_32 
ROOT
HETATM    1  C2  UNL     1      29.372  40.611   4.322  1.00  0.00     0.154 A 
HETATM    2  N3  UNL     1      29.243  39.942   3.132  1.00  0.00    -0.172 N 
ATOM      3  H3  UNL     1      29.609  38.993   3.053  1.00  0.00     0.186 HD
HETATM    4  C3  UNL     1      28.654  40.500   2.081  1.00  0.00     0.705 A 
HETATM    5  N5  UNL     1      28.166  41.743   2.157  1.00  0.00    -0.174 N 
ATOM      6  H5  UNL     1      27.720  42.147   1.333  1.00  0.00     0.186 HD
HETATM    7  C4  UNL     1      28.244  42.484   3.284  1.00  0.00     0.140 A 
HETATM    8  N6  UNL     1      27.725  43.733   3.323  1.00  0.00    -0.323 N 
ATOM      9  H6  UNL     1      27.283  44.126   2.492  1.00  0.00     0.169 HD
HETATM   10  C5  UNL     1      27.791  44.455   4.446  1.00  0.00     0.174 A 
HETATM   11  N8  UNL     1      28.381  43.893   5.508  1.00  0.00    -0.324 N 
ATOM     12  H8  UNL     1      28.433  44.438   6.368  1.00  0.00     0.169 HD
HETATM   13  C7  UNL     1      28.916  42.645   5.516  1.00  0.00     0.120 A 
HETATM   14  C10 UNL     1      28.865  41.884   4.382  1.00  0.00     0.098 A 
ENDROOT
BRANCH  13  15
HETATM   15  N9  UNL     1      29.443  42.163   6.583  1.00  0.00    -0.371 N 
ATOM     16  H9  UNL     1      29.502  41.155   6.726  1.00  0.00     0.161 HD
BRANCH  15  17
HETATM   17  C8  UNL     1      29.951  43.080   7.575  1.00  0.00     0.181 C 
BRANCH  17  18
HETATM   18  C9  UNL     1      31.418  42.819   7.872  1.00  0.00     0.271 C 
BRANCH  18  19
HETATM   19  O3  UNL     1      31.638  41.484   8.204  1.00  0.00    -0.370 OA
ATOM     20  H3  UNL     1      32.349  41.114   7.694  1.00  0.00     0.212 HD
ENDBRANCH  18  19
BRANCH  18  21
HETATM   21  O4  UNL     1      32.115  43.082   6.696  1.00  0.00    -0.370 OA
ATOM     22  H4  UNL     1      33.038  43.078   6.920  1.00  0.00     0.212 HD
ENDBRANCH  18  21
ENDBRANCH  17  18
ENDBRANCH  15  17
ENDBRANCH  13  15
BRANCH  10  23
HETATM   23  C6  UNL     1      27.231  45.822   4.511  1.00  0.00     0.298 C 
HETATM   24  N7  UNL     1      26.060  46.069   5.282  1.00  0.00    -0.054 NA
HETATM   25  O2  UNL     1      27.805  46.727   3.884  1.00  0.00    -0.268 OA
ENDBRANCH  10  23
BRANCH   1  26
HETATM   26  N1  UNL     1      30.063  39.971   5.375  1.00  0.00    -0.286 N 
HETATM   27  C1  UNL     1      29.429  39.054   6.295  1.00  0.00     0.179 C 
BRANCH  26  28
HETATM   28  N2  UNL     1      31.419  40.244   5.552  1.00  0.00    -0.342 N 
ATOM     29  H22 UNL     1      32.101  39.535   5.285  1.00  0.00     0.177 HD
ATOM     30  H21 UNL     1      31.678  41.153   5.935  1.00  0.00     0.177 HD
ENDBRANCH  26  28
ENDBRANCH   1  26
BRANCH   4  31
HETATM   31  N4  UNL     1      28.557  39.837   0.992  1.00  0.00    -0.098 N 
ATOM     32  H4  UNL     1      27.913  40.183   0.281  1.00  0.00     0.213 HD
BRANCH  31  33
HETATM   33  O1  UNL     1      29.258  38.694   0.716  1.00  0.00    -0.276 OA
ATOM     34  H1  UNL     1      29.379  37.977   1.326  1.00  0.00     0.245 HD
ENDBRANCH  31  33
ENDBRANCH   4  31
TORSDOF 10
ENDMDL
