MODEL 1
REMARK VINA RESULT: -7.403408992      0.000      0.000
REMARK  12 active torsions:
REMARK  status: ('A' for Active; 'I' for Inactive)
REMARK    1  A    between atoms: N1_1  and  C1_4 
REMARK    2  A    between atoms: C4_12  and  N4_13 
REMARK    3  A    between atoms: C5_17  and  C6_18 
REMARK    4  A    between atoms: C6_18  and  O2_19 
REMARK    5  A    between atoms: C7_21  and  C8_22 
REMARK    6  A    between atoms: N8_24  and  N9_26 
REMARK    7  A    between atoms: N10_29  and  C9_30 
REMARK    8  A    between atoms: C9_30  and  C10_31 
REMARK    9  A    between atoms: C10_31  and  C11_32 
REMARK   10  A    between atoms: C11_32  and  C12_34 
REMARK   11  A    between atoms: C12_34  and  O4_35 
REMARK   12  A    between atoms: C12_34  and  O5_37 
ROOT
HETATM    1  C1  UNL     1      28.868  40.408   1.793  1.00  0.00     0.680 A 
HETATM    2  N2  UNL     1      28.841  41.766   1.651  1.00  0.00    -0.154 N 
ATOM      3  H2  UNL     1      28.758  42.172   0.719  1.00  0.00     0.187 HD
HETATM    4  C2  UNL     1      28.922  42.575   2.716  1.00  0.00     0.290 A 
HETATM    5  O1  UNL     1      28.900  43.822   2.617  1.00  0.00    -0.265 OA
HETATM    6  C3  UNL     1      29.036  42.017   3.966  1.00  0.00     0.162 A 
HETATM    7  N3  UNL     1      29.136  42.541   5.218  1.00  0.00    -0.180 N 
ATOM      8  H3  UNL     1      29.142  43.536   5.438  1.00  0.00     0.184 HD
HETATM    9  C4  UNL     1      29.224  41.547   6.121  1.00  0.00     0.707 A 
HETATM   10  N10 UNL     1      29.176  40.403   5.413  1.00  0.00    -0.163 N 
HETATM   11  C13 UNL     1      29.062  40.642   4.103  1.00  0.00     0.172 A 
HETATM   12  N11 UNL     1      28.977  39.838   3.003  1.00  0.00    -0.174 N 
ATOM     13  H11 UNL     1      28.997  38.823   3.099  1.00  0.00     0.186 HD
ENDROOT
BRANCH   9  14
HETATM   14  N4  UNL     1      29.344  41.749   7.523  1.00  0.00    -0.065 N 
HETATM   15  N5  UNL     1      28.484  41.323   8.463  1.00  0.00     0.001 NA
HETATM   16  N6  UNL     1      28.914  41.693   9.671  1.00  0.00    -0.283 N 
HETATM   17  C5  UNL     1      30.066  42.367   9.539  1.00  0.00     0.079 A 
ATOM     18  H6  UNL     1      28.443  41.494  10.554  1.00  0.00     0.184 HD
HETATM   19  C7  UNL     1      30.325  42.395   8.181  1.00  0.00     0.141 A 
BRANCH  17  20
HETATM   20  C6  UNL     1      30.897  42.963  10.600  1.00  0.00     0.224 C 
BRANCH  20  21
HETATM   21  O2  UNL     1      32.041  42.203  10.835  1.00  0.00    -0.395 OA
ATOM     22  H2  UNL     1      32.811  42.754  10.918  1.00  0.00     0.209 HD
ENDBRANCH  20  21
ENDBRANCH  17  20
BRANCH  19  23
HETATM   23  C8  UNL     1      31.489  43.035   7.608  1.00  0.00     0.161 C 
HETATM   24  N7  UNL     1      31.326  44.252   6.911  1.00  0.00    -0.079 NA
HETATM   25  N8  UNL     1      32.670  42.544   7.705  1.00  0.00    -0.292 N 
ATOM     26  H8  UNL     1      32.773  41.665   8.211  1.00  0.00     0.187 HD
BRANCH  25  27
HETATM   27  N9  UNL     1      33.808  43.113   7.178  1.00  0.00    -0.344 N 
ATOM     28  H92 UNL     1      33.916  44.118   7.314  1.00  0.00     0.176 HD
ATOM     29  H91 UNL     1      34.535  42.607   6.673  1.00  0.00     0.176 HD
ENDBRANCH  25  27
ENDBRANCH  19  23
ENDBRANCH   9  14
BRANCH  10  30
HETATM   30  C9  UNL     1      29.239  39.083   5.986  1.00  0.00     0.157 C 
BRANCH  30  31
HETATM   31  C10 UNL     1      30.636  38.845   6.512  1.00  0.00     0.104 C 
BRANCH  31  32
HETATM   32  C11 UNL     1      30.618  38.297   7.891  1.00  0.00     0.182 C 
HETATM   33  O3  UNL     1      29.628  37.691   8.254  1.00  0.00    -0.293 OA
BRANCH  32  34
HETATM   34  C12 UNL     1      31.744  38.453   8.844  1.00  0.00     0.325 C 
BRANCH  34  35
HETATM   35  O4  UNL     1      32.789  37.580   8.569  1.00  0.00    -0.365 OA
ATOM     36  H4  UNL     1      33.588  37.823   9.022  1.00  0.00     0.213 HD
ENDBRANCH  34  35
BRANCH  34  37
HETATM   37  O5  UNL     1      32.238  39.751   8.748  1.00  0.00    -0.365 OA
ATOM     38  H5  UNL     1      32.593  40.007   9.590  1.00  0.00     0.213 HD
ENDBRANCH  34  37
ENDBRANCH  32  34
ENDBRANCH  31  32
ENDBRANCH  30  31
ENDBRANCH  10  30
BRANCH   1  39
HETATM   39  N1  UNL     1      28.789  39.630   0.770  1.00  0.00    -0.234 N 
ATOM     40  H12 UNL     1      28.427  40.023  -0.099  1.00  0.00     0.174 HD
ATOM     41  H11 UNL     1      29.078  38.654   0.827  1.00  0.00     0.174 HD
ENDBRANCH   1  39
TORSDOF 12
ENDMDL
MODEL 2
REMARK VINA RESULT: -6.704243412      2.486      4.701
REMARK  12 active torsions:
REMARK  status: ('A' for Active; 'I' for Inactive)
REMARK    1  A    between atoms: N1_1  and  C1_4 
REMARK    2  A    between atoms: C4_12  and  N4_13 
REMARK    3  A    between atoms: C5_17  and  C6_18 
REMARK    4  A    between atoms: C6_18  and  O2_19 
REMARK    5  A    between atoms: C7_21  and  C8_22 
REMARK    6  A    between atoms: N8_24  and  N9_26 
REMARK    7  A    between atoms: N10_29  and  C9_30 
REMARK    8  A    between atoms: C9_30  and  C10_31 
REMARK    9  A    between atoms: C10_31  and  C11_32 
REMARK   10  A    between atoms: C11_32  and  C12_34 
REMARK   11  A    between atoms: C12_34  and  O4_35 
REMARK   12  A    between atoms: C12_34  and  O5_37 
ROOT
HETATM    1  C1  UNL     1      27.822  45.007   4.155  1.00  0.00     0.680 A 
HETATM    2  N2  UNL     1      27.063  45.239   5.266  1.00  0.00    -0.154 N 
ATOM      3  H2  UNL     1      26.445  46.050   5.290  1.00  0.00     0.187 HD
HETATM    4  C2  UNL     1      27.117  44.420   6.325  1.00  0.00     0.290 A 
HETATM    5  O1  UNL     1      26.434  44.607   7.356  1.00  0.00    -0.265 OA
HETATM    6  C3  UNL     1      27.955  43.333   6.280  1.00  0.00     0.162 A 
HETATM    7  N3  UNL     1      28.238  42.333   7.160  1.00  0.00    -0.180 N 
ATOM      8  H3  UNL     1      27.823  42.233   8.086  1.00  0.00     0.184 HD
HETATM    9  C4  UNL     1      29.146  41.498   6.623  1.00  0.00     0.707 A 
HETATM   10  N10 UNL     1      29.421  41.991   5.402  1.00  0.00    -0.163 N 
HETATM   11  C13 UNL     1      28.721  43.103   5.153  1.00  0.00     0.172 A 
HETATM   12  N11 UNL     1      28.648  43.951   4.086  1.00  0.00    -0.174 N 
ATOM     13  H11 UNL     1      29.212  43.786   3.252  1.00  0.00     0.186 HD
ENDROOT
BRANCH   9  14
HETATM   14  N4  UNL     1      29.663  40.349   7.282  1.00  0.00    -0.065 N 
HETATM   15  N5  UNL     1      29.090  39.135   7.325  1.00  0.00     0.001 NA
HETATM   16  N6  UNL     1      29.854  38.299   8.031  1.00  0.00    -0.283 N 
HETATM   17  C5  UNL     1      30.941  38.955   8.460  1.00  0.00     0.079 A 
ATOM     18  H6  UNL     1      29.645  37.317   8.215  1.00  0.00     0.184 HD
HETATM   19  C7  UNL     1      30.808  40.246   7.981  1.00  0.00     0.141 A 
BRANCH  17  20
HETATM   20  C6  UNL     1      32.056  38.436   9.273  1.00  0.00     0.224 C 
BRANCH  20  21
HETATM   21  O2  UNL     1      32.830  37.529   8.552  1.00  0.00    -0.395 OA
ATOM     22  H2  UNL     1      33.656  37.357   8.986  1.00  0.00     0.209 HD
ENDBRANCH  20  21
ENDBRANCH  17  20
BRANCH  19  23
HETATM   23  C8  UNL     1      31.783  41.288   8.223  1.00  0.00     0.161 C 
HETATM   24  N7  UNL     1      31.939  41.785   9.535  1.00  0.00    -0.079 NA
HETATM   25  N8  UNL     1      32.516  41.782   7.295  1.00  0.00    -0.292 N 
ATOM     26  H8  UNL     1      32.394  41.413   6.352  1.00  0.00     0.187 HD
BRANCH  25  27
HETATM   27  N9  UNL     1      33.456  42.772   7.473  1.00  0.00    -0.344 N 
ATOM     28  H92 UNL     1      33.097  43.711   7.645  1.00  0.00     0.176 HD
ATOM     29  H91 UNL     1      34.466  42.633   7.446  1.00  0.00     0.176 HD
ENDBRANCH  25  27
ENDBRANCH  19  23
ENDBRANCH   9  14
BRANCH  10  30
HETATM   30  C9  UNL     1      30.350  41.403   4.471  1.00  0.00     0.157 C 
BRANCH  30  31
HETATM   31  C10 UNL     1      29.619  40.381   3.632  1.00  0.00     0.104 C 
BRANCH  31  32
HETATM   32  C11 UNL     1      29.347  40.888   2.263  1.00  0.00     0.182 C 
HETATM   33  O3  UNL     1      29.975  41.855   1.875  1.00  0.00    -0.293 OA
BRANCH  32  34
HETATM   34  C12 UNL     1      28.351  40.276   1.352  1.00  0.00     0.325 C 
BRANCH  34  35
HETATM   35  O4  UNL     1      28.861  39.170   0.682  1.00  0.00    -0.365 OA
ATOM     36  H4  UNL     1      28.557  38.352   1.057  1.00  0.00     0.213 HD
ENDBRANCH  34  35
BRANCH  34  37
HETATM   37  O5  UNL     1      27.257  39.851   2.100  1.00  0.00    -0.365 OA
ATOM     38  H5  UNL     1      26.771  39.209   1.597  1.00  0.00     0.213 HD
ENDBRANCH  34  37
ENDBRANCH  32  34
ENDBRANCH  31  32
ENDBRANCH  30  31
ENDBRANCH  10  30
BRANCH   1  39
HETATM   39  N1  UNL     1      27.770  45.793   3.136  1.00  0.00    -0.234 N 
ATOM     40  H12 UNL     1      27.036  45.630   2.448  1.00  0.00     0.174 HD
ATOM     41  H11 UNL     1      28.441  46.553   3.022  1.00  0.00     0.174 HD
ENDBRANCH   1  39
TORSDOF 12
ENDMDL
MODEL 3
REMARK VINA RESULT: -6.668504229      2.410      4.861
REMARK  12 active torsions:
REMARK  status: ('A' for Active; 'I' for Inactive)
REMARK    1  A    between atoms: N1_1  and  C1_4 
REMARK    2  A    between atoms: C4_12  and  N4_13 
REMARK    3  A    between atoms: C5_17  and  C6_18 
REMARK    4  A    between atoms: C6_18  and  O2_19 
REMARK    5  A    between atoms: C7_21  and  C8_22 
REMARK    6  A    between atoms: N8_24  and  N9_26 
REMARK    7  A    between atoms: N10_29  and  C9_30 
REMARK    8  A    between atoms: C9_30  and  C10_31 
REMARK    9  A    between atoms: C10_31  and  C11_32 
REMARK   10  A    between atoms: C11_32  and  C12_34 
REMARK   11  A    between atoms: C12_34  and  O4_35 
REMARK   12  A    between atoms: C12_34  and  O5_37 
ROOT
HETATM    1  C1  UNL     1      27.683  45.066   3.655  1.00  0.00     0.680 A 
HETATM    2  N2  UNL     1      27.072  45.420   4.824  1.00  0.00    -0.154 N 
ATOM      3  H2  UNL     1      26.520  46.278   4.861  1.00  0.00     0.187 HD
HETATM    4  C2  UNL     1      27.184  44.661   5.922  1.00  0.00     0.290 A 
HETATM    5  O1  UNL     1      26.636  44.961   7.006  1.00  0.00    -0.265 OA
HETATM    6  C3  UNL     1      27.931  43.510   5.859  1.00  0.00     0.162 A 
HETATM    7  N3  UNL     1      28.237  42.544   6.767  1.00  0.00    -0.180 N 
ATOM      8  H3  UNL     1      27.922  42.529   7.737  1.00  0.00     0.184 HD
HETATM    9  C4  UNL     1      29.016  41.610   6.192  1.00  0.00     0.707 A 
HETATM   10  N10 UNL     1      29.188  42.009   4.919  1.00  0.00    -0.163 N 
HETATM   11  C13 UNL     1      28.547  43.157   4.674  1.00  0.00     0.172 A 
HETATM   12  N11 UNL     1      28.418  43.946   3.568  1.00  0.00    -0.174 N 
ATOM     13  H11 UNL     1      28.871  43.689   2.691  1.00  0.00     0.186 HD
ENDROOT
BRANCH   9  14
HETATM   14  N4  UNL     1      29.519  40.462   6.865  1.00  0.00    -0.065 N 
HETATM   15  N5  UNL     1      28.984  39.230   6.840  1.00  0.00     0.001 NA
HETATM   16  N6  UNL     1      29.719  38.403   7.586  1.00  0.00    -0.283 N 
HETATM   17  C5  UNL     1      30.749  39.083   8.110  1.00  0.00     0.079 A 
ATOM     18  H6  UNL     1      29.529  37.411   7.733  1.00  0.00     0.184 HD
HETATM   19  C7  UNL     1      30.610  40.379   7.648  1.00  0.00     0.141 A 
BRANCH  17  20
HETATM   20  C6  UNL     1      31.814  38.581   8.995  1.00  0.00     0.224 C 
BRANCH  20  21
HETATM   21  O2  UNL     1      32.648  37.685   8.328  1.00  0.00    -0.395 OA
ATOM     22  H2  UNL     1      33.281  37.296   8.919  1.00  0.00     0.209 HD
ENDBRANCH  20  21
ENDBRANCH  17  20
BRANCH  19  23
HETATM   23  C8  UNL     1      31.529  41.445   7.985  1.00  0.00     0.161 C 
HETATM   24  N7  UNL     1      31.381  42.109   9.222  1.00  0.00    -0.079 NA
HETATM   25  N8  UNL     1      32.478  41.816   7.207  1.00  0.00    -0.292 N 
ATOM     26  H8  UNL     1      32.575  41.327   6.317  1.00  0.00     0.187 HD
BRANCH  25  27
HETATM   27  N9  UNL     1      33.377  42.822   7.481  1.00  0.00    -0.344 N 
ATOM     28  H92 UNL     1      33.423  43.137   8.450  1.00  0.00     0.176 HD
ATOM     29  H91 UNL     1      33.989  43.264   6.794  1.00  0.00     0.176 HD
ENDBRANCH  25  27
ENDBRANCH  19  23
ENDBRANCH   9  14
BRANCH  10  30
HETATM   30  C9  UNL     1      29.963  41.297   3.934  1.00  0.00     0.157 C 
BRANCH  30  31
HETATM   31  C10 UNL     1      29.051  40.355   3.184  1.00  0.00     0.104 C 
BRANCH  31  32
HETATM   32  C11 UNL     1      29.164  40.536   1.715  1.00  0.00     0.182 C 
HETATM   33  O3  UNL     1      29.534  39.589   1.047  1.00  0.00    -0.293 OA
BRANCH  32  34
HETATM   34  C12 UNL     1      28.849  41.811   1.025  1.00  0.00     0.325 C 
BRANCH  34  35
HETATM   35  O4  UNL     1      29.981  42.410   0.487  1.00  0.00    -0.365 OA
ATOM     36  H4  UNL     1      29.894  42.567  -0.446  1.00  0.00     0.213 HD
ENDBRANCH  34  35
BRANCH  34  37
HETATM   37  O5  UNL     1      27.967  41.552  -0.020  1.00  0.00    -0.365 OA
ATOM     38  H5  UNL     1      27.979  42.287  -0.621  1.00  0.00     0.213 HD
ENDBRANCH  34  37
ENDBRANCH  32  34
ENDBRANCH  31  32
ENDBRANCH  30  31
ENDBRANCH  10  30
BRANCH   1  39
HETATM   39  N1  UNL     1      27.575  45.795   2.599  1.00  0.00    -0.234 N 
ATOM     40  H12 UNL     1      26.637  45.983   2.247  1.00  0.00     0.174 HD
ATOM     41  H11 UNL     1      28.400  46.170   2.131  1.00  0.00     0.174 HD
ENDBRANCH   1  39
TORSDOF 12
ENDMDL
MODEL 4
REMARK VINA RESULT: -6.440823575      2.631      4.281
REMARK  12 active torsions:
REMARK  status: ('A' for Active; 'I' for Inactive)
REMARK    1  A    between atoms: N1_1  and  C1_4 
REMARK    2  A    between atoms: C4_12  and  N4_13 
REMARK    3  A    between atoms: C5_17  and  C6_18 
REMARK    4  A    between atoms: C6_18  and  O2_19 
REMARK    5  A    between atoms: C7_21  and  C8_22 
REMARK    6  A    between atoms: N8_24  and  N9_26 
REMARK    7  A    between atoms: N10_29  and  C9_30 
REMARK    8  A    between atoms: C9_30  and  C10_31 
REMARK    9  A    between atoms: C10_31  and  C11_32 
REMARK   10  A    between atoms: C11_32  and  C12_34 
REMARK   11  A    between atoms: C12_34  and  O4_35 
REMARK   12  A    between atoms: C12_34  and  O5_37 
ROOT
HETATM    1  C1  UNL     1      29.444  40.990   4.192  1.00  0.00     0.680 A 
HETATM    2  N2  UNL     1      29.448  39.626   4.248  1.00  0.00    -0.154 N 
ATOM      3  H2  UNL     1      29.507  39.089   3.383  1.00  0.00     0.187 HD
HETATM    4  C2  UNL     1      29.377  38.981   5.421  1.00  0.00     0.290 A 
HETATM    5  O1  UNL     1      29.379  37.733   5.503  1.00  0.00    -0.265 OA
HETATM    6  C3  UNL     1      29.296  39.716   6.578  1.00  0.00     0.162 A 
HETATM    7  N3  UNL     1      29.214  39.381   7.894  1.00  0.00    -0.180 N 
ATOM      8  H3  UNL     1      29.198  38.427   8.257  1.00  0.00     0.184 HD
HETATM    9  C4  UNL     1      29.158  40.496   8.645  1.00  0.00     0.707 A 
HETATM   10  N10 UNL     1      29.208  41.524   7.779  1.00  0.00    -0.163 N 
HETATM   11  C13 UNL     1      29.292  41.096   6.515  1.00  0.00     0.172 A 
HETATM   12  N11 UNL     1      29.366  41.731   5.309  1.00  0.00    -0.174 N 
ATOM     13  H11 UNL     1      29.363  42.750   5.257  1.00  0.00     0.186 HD
ENDROOT
BRANCH   9  14
HETATM   14  N4  UNL     1      29.063  40.500  10.064  1.00  0.00    -0.065 N 
HETATM   15  N5  UNL     1      28.010  40.915  10.788  1.00  0.00     0.001 NA
HETATM   16  N6  UNL     1      28.272  40.776  12.089  1.00  0.00    -0.283 N 
HETATM   17  C5  UNL     1      29.504  40.267  12.235  1.00  0.00     0.079 A 
ATOM     18  H6  UNL     1      27.638  41.018  12.850  1.00  0.00     0.184 HD
HETATM   19  C7  UNL     1      29.991  40.098  10.952  1.00  0.00     0.141 A 
BRANCH  17  20
HETATM   20  C6  UNL     1      30.213  39.948  13.488  1.00  0.00     0.224 C 
BRANCH  20  21
HETATM   21  O2  UNL     1      30.281  38.571  13.695  1.00  0.00    -0.395 OA
ATOM     22  H2  UNL     1      30.502  38.368  14.596  1.00  0.00     0.209 HD
ENDBRANCH  20  21
ENDBRANCH  17  20
BRANCH  19  23
HETATM   23  C8  UNL     1      31.304  39.564  10.665  1.00  0.00     0.161 C 
HETATM   24  N7  UNL     1      32.342  40.456  10.316  1.00  0.00    -0.079 NA
HETATM   25  N8  UNL     1      31.572  38.312  10.713  1.00  0.00    -0.292 N 
ATOM     26  H8  UNL     1      30.813  37.679  10.968  1.00  0.00     0.187 HD
BRANCH  25  27
HETATM   27  N9  UNL     1      32.802  37.755  10.450  1.00  0.00    -0.344 N 
ATOM     28  H92 UNL     1      33.605  38.197  10.897  1.00  0.00     0.176 HD
ATOM     29  H91 UNL     1      32.963  36.946   9.849  1.00  0.00     0.176 HD
ENDBRANCH  25  27
ENDBRANCH  19  23
ENDBRANCH   9  14
BRANCH  10  30
HETATM   30  C9  UNL     1      29.175  42.915   8.155  1.00  0.00     0.157 C 
BRANCH  30  31
HETATM   31  C10 UNL     1      30.526  43.301   8.712  1.00  0.00     0.104 C 
BRANCH  31  32
HETATM   32  C11 UNL     1      31.544  43.436   7.640  1.00  0.00     0.182 C 
HETATM   33  O3  UNL     1      31.250  44.077   6.649  1.00  0.00    -0.293 OA
BRANCH  32  34
HETATM   34  C12 UNL     1      32.894  42.828   7.719  1.00  0.00     0.325 C 
BRANCH  34  35
HETATM   35  O4  UNL     1      33.431  42.906   8.999  1.00  0.00    -0.365 OA
ATOM     36  H4  UNL     1      33.352  42.086   9.471  1.00  0.00     0.213 HD
ENDBRANCH  34  35
BRANCH  34  37
HETATM   37  O5  UNL     1      32.803  41.482   7.379  1.00  0.00    -0.365 OA
ATOM     38  H5  UNL     1      33.210  40.964   8.063  1.00  0.00     0.213 HD
ENDBRANCH  34  37
ENDBRANCH  32  34
ENDBRANCH  31  32
ENDBRANCH  30  31
ENDBRANCH  10  30
BRANCH   1  39
HETATM   39  N1  UNL     1      29.513  41.611   3.066  1.00  0.00    -0.234 N 
ATOM     40  H12 UNL     1      29.332  41.075   2.217  1.00  0.00     0.174 HD
ATOM     41  H11 UNL     1      29.741  42.604   3.024  1.00  0.00     0.174 HD
ENDBRANCH   1  39
TORSDOF 12
ENDMDL
MODEL 5
REMARK VINA RESULT: -6.323071037      2.382      4.088
REMARK  12 active torsions:
REMARK  status: ('A' for Active; 'I' for Inactive)
REMARK    1  A    between atoms: N1_1  and  C1_4 
REMARK    2  A    between atoms: C4_12  and  N4_13 
REMARK    3  A    between atoms: C5_17  and  C6_18 
REMARK    4  A    between atoms: C6_18  and  O2_19 
REMARK    5  A    between atoms: C7_21  and  C8_22 
REMARK    6  A    between atoms: N8_24  and  N9_26 
REMARK    7  A    between atoms: N10_29  and  C9_30 
REMARK    8  A    between atoms: C9_30  and  C10_31 
REMARK    9  A    between atoms: C10_31  and  C11_32 
REMARK   10  A    between atoms: C11_32  and  C12_34 
REMARK   11  A    between atoms: C12_34  and  O4_35 
REMARK   12  A    between atoms: C12_34  and  O5_37 
ROOT
HETATM    1  C1  UNL     1      29.705  40.997   4.184  1.00  0.00     0.680 A 
HETATM    2  N2  UNL     1      29.652  39.635   4.258  1.00  0.00    -0.154 N 
ATOM      3  H2  UNL     1      29.783  39.081   3.412  1.00  0.00     0.187 HD
HETATM    4  C2  UNL     1      29.431  39.013   5.424  1.00  0.00     0.290 A 
HETATM    5  O1  UNL     1      29.377  37.767   5.523  1.00  0.00    -0.265 OA
HETATM    6  C3  UNL     1      29.254  39.771   6.556  1.00  0.00     0.162 A 
HETATM    7  N3  UNL     1      29.017  39.461   7.861  1.00  0.00    -0.180 N 
ATOM      8  H3  UNL     1      28.926  38.516   8.232  1.00  0.00     0.184 HD
HETATM    9  C4  UNL     1      28.923  40.590   8.586  1.00  0.00     0.707 A 
HETATM   10  N10 UNL     1      29.105  41.601   7.716  1.00  0.00    -0.163 N 
HETATM   11  C13 UNL     1      29.308  41.149   6.475  1.00  0.00     0.172 A 
HETATM   12  N11 UNL     1      29.536  41.759   5.276  1.00  0.00    -0.174 N 
ATOM     13  H11 UNL     1      29.577  42.777   5.210  1.00  0.00     0.186 HD
ENDROOT
BRANCH   9  14
HETATM   14  N4  UNL     1      28.676  40.623   9.986  1.00  0.00    -0.065 N 
HETATM   15  N5  UNL     1      27.479  40.766  10.578  1.00  0.00     0.001 NA
HETATM   16  N6  UNL     1      27.625  40.752  11.904  1.00  0.00    -0.283 N 
HETATM   17  C5  UNL     1      28.924  40.599  12.200  1.00  0.00     0.079 A 
ATOM     18  H6  UNL     1      26.870  40.844  12.584  1.00  0.00     0.184 HD
HETATM   19  C7  UNL     1      29.575  40.519  10.983  1.00  0.00     0.141 A 
BRANCH  17  20
HETATM   20  C6  UNL     1      29.551  40.530  13.532  1.00  0.00     0.224 C 
BRANCH  20  21
HETATM   21  O2  UNL     1      30.142  41.744  13.878  1.00  0.00    -0.395 OA
ATOM     22  H2  UNL     1      29.492  42.376  14.161  1.00  0.00     0.209 HD
ENDBRANCH  20  21
ENDBRANCH  17  20
BRANCH  19  23
HETATM   23  C8  UNL     1      31.006  40.348  10.857  1.00  0.00     0.161 C 
HETATM   24  N7  UNL     1      31.502  39.166  10.266  1.00  0.00    -0.079 NA
HETATM   25  N8  UNL     1      31.849  41.226  11.259  1.00  0.00    -0.292 N 
ATOM     26  H8  UNL     1      31.476  42.075  11.683  1.00  0.00     0.187 HD
BRANCH  25  27
HETATM   27  N9  UNL     1      33.217  41.110  11.162  1.00  0.00    -0.344 N 
ATOM     28  H92 UNL     1      33.567  40.424  10.494  1.00  0.00     0.176 HD
ATOM     29  H91 UNL     1      33.891  41.654  11.702  1.00  0.00     0.176 HD
ENDBRANCH  25  27
ENDBRANCH  19  23
ENDBRANCH   9  14
BRANCH  10  30
HETATM   30  C9  UNL     1      29.084  42.998   8.069  1.00  0.00     0.157 C 
BRANCH  30  31
HETATM   31  C10 UNL     1      30.405  43.360   8.707  1.00  0.00     0.104 C 
BRANCH  31  32
HETATM   32  C11 UNL     1      31.514  43.345   7.720  1.00  0.00     0.182 C 
HETATM   33  O3  UNL     1      31.372  43.976   6.690  1.00  0.00    -0.293 OA
BRANCH  32  34
HETATM   34  C12 UNL     1      32.779  42.600   7.929  1.00  0.00     0.325 C 
BRANCH  34  35
HETATM   35  O4  UNL     1      33.436  42.995   9.089  1.00  0.00    -0.365 OA
ATOM     36  H4  UNL     1      33.854  43.842   8.993  1.00  0.00     0.213 HD
ENDBRANCH  34  35
BRANCH  34  37
HETATM   37  O5  UNL     1      32.489  41.244   8.046  1.00  0.00    -0.365 OA
ATOM     38  H5  UNL     1      31.913  40.990   7.335  1.00  0.00     0.213 HD
ENDBRANCH  34  37
ENDBRANCH  32  34
ENDBRANCH  31  32
ENDBRANCH  30  31
ENDBRANCH  10  30
BRANCH   1  39
HETATM   39  N1  UNL     1      29.918  41.595   3.064  1.00  0.00    -0.234 N 
ATOM     40  H12 UNL     1      29.160  41.611   2.382  1.00  0.00     0.174 HD
ATOM     41  H11 UNL     1      30.815  42.038   2.865  1.00  0.00     0.174 HD
ENDBRANCH   1  39
TORSDOF 12
ENDMDL
