MODEL 1
REMARK VINA RESULT: -7.066251610      0.000      0.000
REMARK  8 active torsions:
REMARK  status: ('A' for Active; 'I' for Inactive)
REMARK    1  A    between atoms: O1_2  and  C2_3 
REMARK    2  A    between atoms: C2_3  and  O2_4 
REMARK    3  A    between atoms: C2_3  and  C3_6 
REMARK    4  A    between atoms: C4_11  and  N3_12 
REMARK       I    between atoms: N3_12  and  C5_14 
REMARK       I    between atoms: C5_14  and  N5_18 
REMARK    5  A    between atoms: N5_18  and  N6_20 
REMARK    6  A    between atoms: C8_31  and  N10_32 
REMARK    7  A    between atoms: N11_36  and  C9_37 
REMARK    8  A    between atoms: C9_37  and  C10_38 
ROOT
HETATM    1  C3  UNL     1      31.022  39.703   8.122  1.00  0.00     0.208 C 
HETATM    2  N1  UNL     1      29.639  39.515   7.655  1.00  0.00    -0.307 N 
ATOM      3  H1  UNL     1      28.900  39.513   8.358  1.00  0.00     0.181 HD
HETATM    4  N2  UNL     1      29.258  39.339   6.322  1.00  0.00    -0.134 N 
ATOM      5  H2  UNL     1      28.432  38.761   6.163  1.00  0.00     0.205 HD
HETATM    6  C4  UNL     1      29.836  39.827   5.248  1.00  0.00     0.725 C 
HETATM    7  N7  UNL     1      31.011  40.667   5.276  1.00  0.00    -0.130 N 
ATOM      8  H7  UNL     1      31.533  40.776   4.407  1.00  0.00     0.205 HD
HETATM    9  N8  UNL     1      31.489  41.347   6.410  1.00  0.00    -0.286 N 
ATOM     10  H8  UNL     1      31.873  42.272   6.220  1.00  0.00     0.187 HD
HETATM   11  C6  UNL     1      31.524  40.985   7.686  1.00  0.00     0.077 C 
HETATM   12  C7  UNL     1      32.095  42.006   8.534  1.00  0.00     0.036 C 
HETATM   13  N9  UNL     1      32.271  41.988   9.787  1.00  0.00    -0.348 N 
ATOM     14  H9  UNL     1      31.969  41.137  10.260  1.00  0.00     0.163 HD
HETATM   15  C8  UNL     1      32.837  42.998  10.634  1.00  0.00     0.385 C 
HETATM   16  N11 UNL     1      33.558  44.003   9.930  1.00  0.00    -0.361 N 
HETATM   17  C11 UNL     1      33.840  43.679   8.565  1.00  0.00     0.127 C 
HETATM   18  C12 UNL     1      32.551  43.289   7.872  1.00  0.00     0.078 C 
ENDROOT
BRANCH   1  19
HETATM   19  C2  UNL     1      31.190  39.242   9.503  1.00  0.00     0.286 C 
BRANCH  19  20
HETATM   20  O1  UNL     1      31.459  37.923   9.725  1.00  0.00    -0.364 OA
HETATM   21  C1  UNL     1      32.365  37.712  10.751  1.00  0.00     0.204 C 
ENDBRANCH  19  20
BRANCH  19  22
HETATM   22  O2  UNL     1      30.196  39.778  10.342  1.00  0.00    -0.369 OA
ATOM     23  H2  UNL     1      30.187  40.728  10.379  1.00  0.00     0.212 HD
ENDBRANCH  19  22
ENDBRANCH   1  19
BRANCH   6  24
HETATM   24  N3  UNL     1      29.304  39.539   3.984  1.00  0.00    -0.018 N 
HETATM   25  C5  UNL     1      28.874  40.493   3.033  1.00  0.00     0.709 C 
HETATM   26  N4  UNL     1      27.721  41.063   3.145  1.00  0.00    -0.233 N 
HETATM   27  N5  UNL     1      29.758  40.798   1.956  1.00  0.00    -0.072 N 
ATOM     28  H42 UNL     1      27.089  40.845   3.915  1.00  0.00     0.174 HD
ATOM     29  H41 UNL     1      27.411  41.751   2.459  1.00  0.00     0.174 HD
ATOM     30  H5  UNL     1      30.425  40.108   1.611  1.00  0.00     0.212 HD
ATOM     31  H3  UNL     1      29.220  38.555   3.727  1.00  0.00     0.203 HD
BRANCH  27  32
HETATM   32  N6  UNL     1      29.680  42.066   1.391  1.00  0.00    -0.024 N 
HETATM   33  O3  UNL     1      29.483  42.252   0.179  1.00  0.00    -0.516 OA
HETATM   34  O4  UNL     1      29.830  43.157   2.205  1.00  0.00    -0.516 OA
ENDBRANCH  27  32
ENDBRANCH   6  24
BRANCH  15  35
HETATM   35  N10 UNL     1      31.873  43.644  11.493  1.00  0.00    -0.041 N 
ATOM     36 3H10 UNL     1      31.762  44.625  11.235  1.00  0.00     0.279 HD
ATOM     37 2H10 UNL     1      30.932  43.305  11.295  1.00  0.00     0.279 HD
ATOM     38 1H10 UNL     1      32.084  43.557  12.487  1.00  0.00     0.279 HD
ENDBRANCH  15  35
BRANCH  16  39
HETATM   39  C9  UNL     1      34.633  44.628  10.596  1.00  0.00     0.233 C 
BRANCH  39  40
HETATM   40  C10 UNL     1      35.475  43.792  11.442  1.00  0.00     0.191 C 
HETATM   41  O5  UNL     1      36.289  42.982  10.931  1.00  0.00    -0.647 OA
HETATM   42  O6  UNL     1      35.420  43.846  12.825  1.00  0.00    -0.647 OA
ENDBRANCH  39  40
ENDBRANCH  16  39
TORSDOF 8
ENDMDL
MODEL 2
REMARK VINA RESULT: -7.011783941      0.690      1.229
REMARK  8 active torsions:
REMARK  status: ('A' for Active; 'I' for Inactive)
REMARK    1  A    between atoms: O1_2  and  C2_3 
REMARK    2  A    between atoms: C2_3  and  O2_4 
REMARK    3  A    between atoms: C2_3  and  C3_6 
REMARK    4  A    between atoms: C4_11  and  N3_12 
REMARK       I    between atoms: N3_12  and  C5_14 
REMARK       I    between atoms: C5_14  and  N5_18 
REMARK    5  A    between atoms: N5_18  and  N6_20 
REMARK    6  A    between atoms: C8_31  and  N10_32 
REMARK    7  A    between atoms: N11_36  and  C9_37 
REMARK    8  A    between atoms: C9_37  and  C10_38 
ROOT
HETATM    1  C3  UNL     1      30.860  39.926   8.191  1.00  0.00     0.208 C 
HETATM    2  N1  UNL     1      29.492  39.806   7.661  1.00  0.00    -0.307 N 
ATOM      3  H1  UNL     1      28.721  39.944   8.315  1.00  0.00     0.181 HD
HETATM    4  N2  UNL     1      29.167  39.517   6.333  1.00  0.00    -0.134 N 
ATOM      5  H2  UNL     1      28.301  38.998   6.186  1.00  0.00     0.205 HD
HETATM    6  C4  UNL     1      29.842  39.833   5.252  1.00  0.00     0.725 C 
HETATM    7  N7  UNL     1      31.086  40.568   5.264  1.00  0.00    -0.130 N 
ATOM      8  H7  UNL     1      31.660  40.536   4.422  1.00  0.00     0.205 HD
HETATM    9  N8  UNL     1      31.563  41.326   6.347  1.00  0.00    -0.286 N 
ATOM     10  H8  UNL     1      32.039  42.189   6.085  1.00  0.00     0.187 HD
HETATM   11  C6  UNL     1      31.499  41.106   7.654  1.00  0.00     0.077 C 
HETATM   12  C7  UNL     1      32.115  42.162   8.423  1.00  0.00     0.036 C 
HETATM   13  N9  UNL     1      32.223  42.267   9.680  1.00  0.00    -0.348 N 
ATOM     14  H9  UNL     1      31.821  41.502  10.221  1.00  0.00     0.163 HD
HETATM   15  C8  UNL     1      32.834  43.313  10.449  1.00  0.00     0.385 C 
HETATM   16  N11 UNL     1      33.679  44.169   9.689  1.00  0.00    -0.361 N 
HETATM   17  C11 UNL     1      34.001  43.674   8.385  1.00  0.00     0.127 C 
HETATM   18  C12 UNL     1      32.720  43.321   7.659  1.00  0.00     0.078 C 
ENDROOT
BRANCH   1  19
HETATM   19  C2  UNL     1      30.914  39.608   9.620  1.00  0.00     0.286 C 
BRANCH  19  20
HETATM   20  O1  UNL     1      30.201  40.381  10.490  1.00  0.00    -0.364 OA
HETATM   21  C1  UNL     1      30.327  39.982  11.811  1.00  0.00     0.204 C 
ENDBRANCH  19  20
BRANCH  19  22
HETATM   22  O2  UNL     1      32.232  39.342  10.032  1.00  0.00    -0.369 OA
ATOM     23  H2  UNL     1      32.313  38.616  10.638  1.00  0.00     0.212 HD
ENDBRANCH  19  22
ENDBRANCH   1  19
BRANCH   6  24
HETATM   24  N3  UNL     1      29.353  39.453   3.995  1.00  0.00    -0.018 N 
HETATM   25  C5  UNL     1      28.847  40.330   3.007  1.00  0.00     0.709 C 
HETATM   26  N4  UNL     1      27.645  40.794   3.090  1.00  0.00    -0.233 N 
HETATM   27  N5  UNL     1      29.710  40.678   1.927  1.00  0.00    -0.072 N 
ATOM     28  H42 UNL     1      27.028  40.545   3.863  1.00  0.00     0.174 HD
ATOM     29  H41 UNL     1      27.280  41.426   2.378  1.00  0.00     0.174 HD
ATOM     30  H5  UNL     1      30.442  40.041   1.612  1.00  0.00     0.212 HD
ATOM     31  H3  UNL     1      29.362  38.457   3.773  1.00  0.00     0.203 HD
BRANCH  27  32
HETATM   32  N6  UNL     1      29.522  41.913   1.317  1.00  0.00    -0.024 N 
HETATM   33  O3  UNL     1      30.261  42.889   1.531  1.00  0.00    -0.516 OA
HETATM   34  O4  UNL     1      28.476  42.062   0.446  1.00  0.00    -0.516 OA
ENDBRANCH  27  32
ENDBRANCH   6  24
BRANCH  15  35
HETATM   35  N10 UNL     1      31.889  44.129  11.174  1.00  0.00    -0.041 N 
ATOM     36 3H10 UNL     1      30.935  43.811  11.004  1.00  0.00     0.279 HD
ATOM     37 2H10 UNL     1      31.955  43.949  12.177  1.00  0.00     0.279 HD
ATOM     38 1H10 UNL     1      31.975  45.127  10.983  1.00  0.00     0.279 HD
ENDBRANCH  15  35
BRANCH  16  39
HETATM   39  C9  UNL     1      34.770  44.771  10.351  1.00  0.00     0.233 C 
BRANCH  39  40
HETATM   40  C10 UNL     1      35.514  43.951  11.298  1.00  0.00     0.191 C 
HETATM   41  O5  UNL     1      35.492  44.215  12.527  1.00  0.00    -0.647 OA
HETATM   42  O6  UNL     1      36.268  42.860  10.900  1.00  0.00    -0.647 OA
ENDBRANCH  39  40
ENDBRANCH  16  39
TORSDOF 8
ENDMDL
MODEL 3
REMARK VINA RESULT: -7.010045374      3.382      8.544
REMARK  8 active torsions:
REMARK  status: ('A' for Active; 'I' for Inactive)
REMARK    1  A    between atoms: O1_2  and  C2_3 
REMARK    2  A    between atoms: C2_3  and  O2_4 
REMARK    3  A    between atoms: C2_3  and  C3_6 
REMARK    4  A    between atoms: C4_11  and  N3_12 
REMARK       I    between atoms: N3_12  and  C5_14 
REMARK       I    between atoms: C5_14  and  N5_18 
REMARK    5  A    between atoms: N5_18  and  N6_20 
REMARK    6  A    between atoms: C8_31  and  N10_32 
REMARK    7  A    between atoms: N11_36  and  C9_37 
REMARK    8  A    between atoms: C9_37  and  C10_38 
ROOT
HETATM    1  C3  UNL     1      32.102  40.963   8.899  1.00  0.00     0.208 C 
HETATM    2  N1  UNL     1      31.735  40.622  10.284  1.00  0.00    -0.307 N 
ATOM      3  H1  UNL     1      31.217  41.319  10.819  1.00  0.00     0.181 HD
HETATM    4  N2  UNL     1      32.041  39.417  10.922  1.00  0.00    -0.134 N 
ATOM      5  H2  UNL     1      32.187  39.468  11.931  1.00  0.00     0.205 HD
HETATM    6  C4  UNL     1      32.164  38.227  10.381  1.00  0.00     0.725 C 
HETATM    7  N7  UNL     1      31.990  37.961   8.971  1.00  0.00    -0.130 N 
ATOM      8  H7  UNL     1      32.357  37.081   8.609  1.00  0.00     0.205 HD
HETATM    9  N8  UNL     1      31.351  38.821   8.062  1.00  0.00    -0.286 N 
ATOM     10  H8  UNL     1      30.791  38.349   7.352  1.00  0.00     0.187 HD
HETATM   11  C6  UNL     1      31.355  40.145   7.971  1.00  0.00     0.077 C 
HETATM   12  C7  UNL     1      30.541  40.627   6.879  1.00  0.00     0.036 C 
HETATM   13  N9  UNL     1      30.325  41.821   6.520  1.00  0.00    -0.348 N 
ATOM     14  H9  UNL     1      30.789  42.538   7.077  1.00  0.00     0.163 HD
HETATM   15  C8  UNL     1      29.517  42.306   5.437  1.00  0.00     0.385 C 
HETATM   16  N11 UNL     1      29.176  41.307   4.482  1.00  0.00    -0.361 N 
HETATM   17  C11 UNL     1      29.924  40.094   4.604  1.00  0.00     0.127 C 
HETATM   18  C12 UNL     1      29.829  39.595   6.031  1.00  0.00     0.078 C 
ENDROOT
BRANCH   1  19
HETATM   19  C2  UNL     1      32.225  42.412   8.717  1.00  0.00     0.286 C 
BRANCH  19  20
HETATM   20  O1  UNL     1      31.126  43.194   8.920  1.00  0.00    -0.364 OA
HETATM   21  C1  UNL     1      31.368  44.544   8.725  1.00  0.00     0.204 C 
ENDBRANCH  19  20
BRANCH  19  22
HETATM   22  O2  UNL     1      32.941  42.716   7.545  1.00  0.00    -0.369 OA
ATOM     23  H2  UNL     1      33.656  42.118   7.358  1.00  0.00     0.212 HD
ENDBRANCH  19  22
ENDBRANCH   1  19
BRANCH   6  24
HETATM   24  N3  UNL     1      32.478  37.127  11.190  1.00  0.00    -0.018 N 
HETATM   25  C5  UNL     1      33.781  36.653  11.467  1.00  0.00     0.709 C 
HETATM   26  N4  UNL     1      34.415  35.924  10.610  1.00  0.00    -0.233 N 
HETATM   27  N5  UNL     1      34.362  37.010  12.720  1.00  0.00    -0.072 N 
ATOM     28  H42 UNL     1      34.000  35.669   9.714  1.00  0.00     0.174 HD
ATOM     29  H41 UNL     1      35.354  35.582  10.810  1.00  0.00     0.174 HD
ATOM     30  H5  UNL     1      33.779  37.190  13.538  1.00  0.00     0.212 HD
ATOM     31  H3  UNL     1      31.699  36.624  11.615  1.00  0.00     0.203 HD
BRANCH  27  32
HETATM   32  N6  UNL     1      35.747  37.103  12.791  1.00  0.00    -0.024 N 
HETATM   33  O3  UNL     1      36.356  38.179  12.672  1.00  0.00    -0.516 OA
HETATM   34  O4  UNL     1      36.473  35.960  12.999  1.00  0.00    -0.516 OA
ENDBRANCH  27  32
ENDBRANCH   6  24
BRANCH  15  35
HETATM   35  N10 UNL     1      28.306  42.965   5.864  1.00  0.00    -0.041 N 
ATOM     36 3H10 UNL     1      27.496  42.366   5.702  1.00  0.00     0.279 HD
ATOM     37 2H10 UNL     1      28.272  43.030   6.881  1.00  0.00     0.279 HD
ATOM     38 1H10 UNL     1      28.165  43.881   5.440  1.00  0.00     0.279 HD
ENDBRANCH  15  35
BRANCH  16  39
HETATM   39  C9  UNL     1      28.977  41.718   3.147  1.00  0.00     0.233 C 
BRANCH  39  40
HETATM   40  C10 UNL     1      28.680  40.683   2.164  1.00  0.00     0.191 C 
HETATM   41  O5  UNL     1      27.578  40.078   2.188  1.00  0.00    -0.647 OA
HETATM   42  O6  UNL     1      29.578  40.321   1.175  1.00  0.00    -0.647 OA
ENDBRANCH  39  40
ENDBRANCH  16  39
TORSDOF 8
ENDMDL
MODEL 4
REMARK VINA RESULT: -6.813421261      1.002      1.279
REMARK  8 active torsions:
REMARK  status: ('A' for Active; 'I' for Inactive)
REMARK    1  A    between atoms: O1_2  and  C2_3 
REMARK    2  A    between atoms: C2_3  and  O2_4 
REMARK    3  A    between atoms: C2_3  and  C3_6 
REMARK    4  A    between atoms: C4_11  and  N3_12 
REMARK       I    between atoms: N3_12  and  C5_14 
REMARK       I    between atoms: C5_14  and  N5_18 
REMARK    5  A    between atoms: N5_18  and  N6_20 
REMARK    6  A    between atoms: C8_31  and  N10_32 
REMARK    7  A    between atoms: N11_36  and  C9_37 
REMARK    8  A    between atoms: C9_37  and  C10_38 
ROOT
HETATM    1  C3  UNL     1      30.417  39.926   7.563  1.00  0.00     0.208 C 
HETATM    2  N1  UNL     1      29.140  39.774   6.847  1.00  0.00    -0.307 N 
ATOM      3  H1  UNL     1      28.282  39.855   7.392  1.00  0.00     0.181 HD
HETATM    4  N2  UNL     1      29.012  39.527   5.477  1.00  0.00    -0.134 N 
ATOM      5  H2  UNL     1      28.198  38.981   5.194  1.00  0.00     0.205 HD
HETATM    6  C4  UNL     1      29.812  39.913   4.511  1.00  0.00     0.725 C 
HETATM    7  N7  UNL     1      31.009  40.696   4.719  1.00  0.00    -0.130 N 
ATOM      8  H7  UNL     1      31.694  40.721   3.964  1.00  0.00     0.205 HD
HETATM    9  N8  UNL     1      31.301  41.426   5.884  1.00  0.00    -0.286 N 
ATOM     10  H8  UNL     1      31.769  42.318   5.720  1.00  0.00     0.187 HD
HETATM   11  C6  UNL     1      31.070  41.151   7.162  1.00  0.00     0.077 C 
HETATM   12  C7  UNL     1      31.528  42.198   8.045  1.00  0.00     0.036 C 
HETATM   13  N9  UNL     1      31.460  42.255   9.307  1.00  0.00    -0.348 N 
ATOM     14  H9  UNL     1      31.022  41.453   9.760  1.00  0.00     0.163 HD
HETATM   15  C8  UNL     1      31.913  43.292  10.189  1.00  0.00     0.385 C 
HETATM   16  N11 UNL     1      32.814  44.211   9.583  1.00  0.00    -0.361 N 
HETATM   17  C11 UNL     1      33.333  43.783   8.320  1.00  0.00     0.127 C 
HETATM   18  C12 UNL     1      32.179  43.410   7.412  1.00  0.00     0.078 C 
ENDROOT
BRANCH   1  19
HETATM   19  C2  UNL     1      30.290  39.552   8.974  1.00  0.00     0.286 C 
BRANCH  19  20
HETATM   20  O1  UNL     1      30.694  38.307   9.361  1.00  0.00    -0.364 OA
HETATM   21  C1  UNL     1      32.039  38.069   9.127  1.00  0.00     0.204 C 
ENDBRANCH  19  20
BRANCH  19  22
HETATM   22  O2  UNL     1      29.041  39.940   9.492  1.00  0.00    -0.369 OA
ATOM     23  H2  UNL     1      28.756  40.804   9.218  1.00  0.00     0.212 HD
ENDBRANCH  19  22
ENDBRANCH   1  19
BRANCH   6  24
HETATM   24  N3  UNL     1      29.516  39.566   3.186  1.00  0.00    -0.018 N 
HETATM   25  C5  UNL     1      28.700  40.309   2.302  1.00  0.00     0.709 C 
HETATM   26  N4  UNL     1      27.413  40.239   2.376  1.00  0.00    -0.233 N 
HETATM   27  N5  UNL     1      29.350  41.131   1.335  1.00  0.00    -0.072 N 
ATOM     28  H42 UNL     1      26.948  39.651   3.067  1.00  0.00     0.174 HD
ATOM     29  H41 UNL     1      26.824  40.774   1.738  1.00  0.00     0.174 HD
ATOM     30  H5  UNL     1      30.275  40.893   0.978  1.00  0.00     0.212 HD
ATOM     31  H3  UNL     1      29.925  38.703   2.828  1.00  0.00     0.203 HD
BRANCH  27  32
HETATM   32  N6  UNL     1      28.680  42.267   0.893  1.00  0.00    -0.024 N 
HETATM   33  O3  UNL     1      28.012  42.991   1.649  1.00  0.00    -0.516 OA
HETATM   34  O4  UNL     1      28.760  42.602  -0.433  1.00  0.00    -0.516 OA
ENDBRANCH  27  32
ENDBRANCH   6  24
BRANCH  15  35
HETATM   35  N10 UNL     1      30.843  44.040  10.806  1.00  0.00    -0.041 N 
ATOM     36 3H10 UNL     1      31.197  44.596  11.585  1.00  0.00     0.279 HD
ATOM     37 2H10 UNL     1      30.526  44.789  10.190  1.00  0.00     0.279 HD
ATOM     38 1H10 UNL     1      30.057  43.464  11.105  1.00  0.00     0.279 HD
ENDBRANCH  15  35
BRANCH  16  39
HETATM   39  C9  UNL     1      33.777  44.828  10.409  1.00  0.00     0.233 C 
BRANCH  39  40
HETATM   40  C10 UNL     1      34.832  43.982  10.956  1.00  0.00     0.191 C 
HETATM   41  O5  UNL     1      34.719  43.482  12.104  1.00  0.00    -0.647 OA
HETATM   42  O6  UNL     1      35.988  43.694  10.252  1.00  0.00    -0.647 OA
ENDBRANCH  39  40
ENDBRANCH  16  39
TORSDOF 8
ENDMDL
MODEL 5
REMARK VINA RESULT: -6.780587780      3.194      8.551
REMARK  8 active torsions:
REMARK  status: ('A' for Active; 'I' for Inactive)
REMARK    1  A    between atoms: O1_2  and  C2_3 
REMARK    2  A    between atoms: C2_3  and  O2_4 
REMARK    3  A    between atoms: C2_3  and  C3_6 
REMARK    4  A    between atoms: C4_11  and  N3_12 
REMARK       I    between atoms: N3_12  and  C5_14 
REMARK       I    between atoms: C5_14  and  N5_18 
REMARK    5  A    between atoms: N5_18  and  N6_20 
REMARK    6  A    between atoms: C8_31  and  N10_32 
REMARK    7  A    between atoms: N11_36  and  C9_37 
REMARK    8  A    between atoms: C9_37  and  C10_38 
ROOT
HETATM    1  C3  UNL     1      31.836  41.047   8.773  1.00  0.00     0.208 C 
HETATM    2  N1  UNL     1      31.437  40.504  10.082  1.00  0.00    -0.307 N 
ATOM      3  H1  UNL     1      30.814  41.071  10.657  1.00  0.00     0.181 HD
HETATM    4  N2  UNL     1      31.846  39.271  10.599  1.00  0.00    -0.134 N 
ATOM      5  H2  UNL     1      31.931  39.216  11.614  1.00  0.00     0.205 HD
HETATM    6  C4  UNL     1      32.135  38.176   9.935  1.00  0.00     0.725 C 
HETATM    7  N7  UNL     1      32.069  38.063   8.496  1.00  0.00    -0.130 N 
ATOM      8  H7  UNL     1      32.555  37.279   8.061  1.00  0.00     0.205 HD
HETATM    9  N8  UNL     1      31.385  38.952   7.649  1.00  0.00    -0.286 N 
ATOM     10  H8  UNL     1      30.922  38.511   6.854  1.00  0.00     0.187 HD
HETATM   11  C6  UNL     1      31.240  40.270   7.710  1.00  0.00     0.077 C 
HETATM   12  C7  UNL     1      30.435  40.789   6.628  1.00  0.00     0.036 C 
HETATM   13  N9  UNL     1      30.102  41.986   6.393  1.00  0.00    -0.348 N 
ATOM     14  H9  UNL     1      30.449  42.677   7.057  1.00  0.00     0.163 HD
HETATM   15  C8  UNL     1      29.303  42.507   5.320  1.00  0.00     0.385 C 
HETATM   16  N11 UNL     1      29.131  41.599   4.237  1.00  0.00    -0.361 N 
HETATM   17  C11 UNL     1      30.008  40.469   4.270  1.00  0.00     0.127 C 
HETATM   18  C12 UNL     1      29.895  39.794   5.622  1.00  0.00     0.078 C 
ENDROOT
BRANCH   1  19
HETATM   19  C2  UNL     1      31.800  42.512   8.765  1.00  0.00     0.286 C 
BRANCH  19  20
HETATM   20  O1  UNL     1      32.934  43.196   9.093  1.00  0.00    -0.364 OA
HETATM   21  C1  UNL     1      33.659  43.619   7.991  1.00  0.00     0.204 C 
ENDBRANCH  19  20
BRANCH  19  22
HETATM   22  O2  UNL     1      30.634  42.994   9.386  1.00  0.00    -0.369 OA
ATOM     23  H2  UNL     1      30.455  43.912   9.220  1.00  0.00     0.212 HD
ENDBRANCH  19  22
ENDBRANCH   1  19
BRANCH   6  24
HETATM   24  N3  UNL     1      32.531  37.027  10.633  1.00  0.00    -0.018 N 
HETATM   25  C5  UNL     1      32.965  36.988  11.978  1.00  0.00     0.709 C 
HETATM   26  N4  UNL     1      34.171  37.328  12.293  1.00  0.00    -0.233 N 
HETATM   27  N5  UNL     1      32.026  36.564  12.964  1.00  0.00    -0.072 N 
ATOM     28  H42 UNL     1      34.842  37.631  11.588  1.00  0.00     0.174 HD
ATOM     29  H41 UNL     1      34.485  37.300  13.263  1.00  0.00     0.174 HD
ATOM     30  H5  UNL     1      31.273  35.918  12.730  1.00  0.00     0.212 HD
ATOM     31  H3  UNL     1      32.504  36.142  10.127  1.00  0.00     0.203 HD
BRANCH  27  32
HETATM   32  N6  UNL     1      32.172  37.060  14.255  1.00  0.00    -0.024 N 
HETATM   33  O3  UNL     1      32.404  38.257  14.495  1.00  0.00    -0.516 OA
HETATM   34  O4  UNL     1      32.056  36.193  15.309  1.00  0.00    -0.516 OA
ENDBRANCH  27  32
ENDBRANCH   6  24
BRANCH  15  35
HETATM   35  N10 UNL     1      28.002  42.974   5.737  1.00  0.00    -0.041 N 
ATOM     36 3H10 UNL     1      27.834  42.742   6.716  1.00  0.00     0.279 HD
ATOM     37 2H10 UNL     1      27.988  43.992   5.796  1.00  0.00     0.279 HD
ATOM     38 1H10 UNL     1      27.238  42.638   5.152  1.00  0.00     0.279 HD
ENDBRANCH  15  35
BRANCH  16  39
HETATM   39  C9  UNL     1      28.959  42.144   2.947  1.00  0.00     0.233 C 
BRANCH  39  40
HETATM   40  C10 UNL     1      28.735  41.210   1.850  1.00  0.00     0.191 C 
HETATM   41  O5  UNL     1      29.511  41.187   0.862  1.00  0.00    -0.647 OA
HETATM   42  O6  UNL     1      27.676  40.318   1.842  1.00  0.00    -0.647 OA
ENDBRANCH  39  40
ENDBRANCH  16  39
TORSDOF 8
ENDMDL
