MODEL 1
REMARK VINA RESULT: -6.925355471      0.000      0.000
REMARK  10 active torsions:
REMARK  status: ('A' for Active; 'I' for Inactive)
REMARK    1  A    between atoms: N1_2  and  C2_4 
REMARK    2  A    between atoms: N1_2  and  C4_7 
REMARK    3  A    between atoms: C4_7  and  C5_8 
REMARK    4  A    between atoms: C5_8  and  N3_9 
REMARK    5  A    between atoms: C7_14  and  C8_15 
REMARK    6  A    between atoms: C8_15  and  O2_16 
REMARK    7  A    between atoms: C8_15  and  O3_18 
REMARK    8  A    between atoms: N5_20  and  C9_21 
REMARK    9  A    between atoms: C10_24  and  N7_25 
REMARK   10  A    between atoms: C11_30  and  N9_31 
ROOT
HETATM    1  C2  UNL     1      29.685  40.757   2.236  1.00  0.00     0.434 C 
HETATM    2  C3  UNL     1      28.764  40.904   1.134  1.00  0.00     0.095 C 
HETATM    3  N2  UNL     1      28.030  41.024   0.249  1.00  0.00    -0.195 NA
ENDROOT
BRANCH   1   4
HETATM    4  N1  UNL     1      28.946  40.735   3.504  1.00  0.00     0.023 N 
HETATM    5  C1  UNL     1      28.346  42.024   3.711  1.00  0.00     0.357 C 
HETATM    6  O1  UNL     1      27.988  39.794   3.380  1.00  0.00    -0.064 OA
BRANCH   4   7
HETATM    7  C4  UNL     1      29.835  40.364   4.598  1.00  0.00     0.332 C 
BRANCH   7   8
HETATM    8  C5  UNL     1      29.214  39.132   5.289  1.00  0.00     0.174 C 
BRANCH   8   9
HETATM    9  N3  UNL     1      30.093  38.656   6.244  1.00  0.00    -0.222 N 
HETATM   10  C6  UNL     1      30.378  38.837   7.441  1.00  0.00     0.716 A 
HETATM   11  N4  UNL     1      31.384  38.103   8.038  1.00  0.00    -0.172 N 
HETATM   12  N14 UNL     1      29.737  39.739   8.216  1.00  0.00     0.106 N 
HETATM   13  C7  UNL     1      31.706  38.283   9.324  1.00  0.00     0.194 A 
ATOM     14  H4  UNL     1      31.892  37.411   7.487  1.00  0.00     0.185 HD
HETATM   15  N5  UNL     1      31.071  39.177  10.093  1.00  0.00     0.044 N 
HETATM   16  C12 UNL     1      30.080  39.906   9.527  1.00  0.00     0.756 A 
HETATM   17  N11 UNL     1      29.310  40.855  10.104  1.00  0.00    -0.018 N 
HETATM   18  C13 UNL     1      28.481  41.290   9.166  1.00  0.00     0.706 A 
ATOM     19  H11 UNL     1      29.358  41.174  11.071  1.00  0.00     0.203 HD
HETATM   20  N12 UNL     1      27.569  42.193   9.258  1.00  0.00    -0.233 N 
HETATM   21  N13 UNL     1      28.749  40.603   8.022  1.00  0.00    -0.096 N 
ATOM     22 2H12 UNL     1      27.368  42.707  10.115  1.00  0.00     0.174 HD
ATOM     23 1H12 UNL     1      26.931  42.528   8.536  1.00  0.00     0.174 HD
ATOM     24  H13 UNL     1      28.259  40.735   7.137  1.00  0.00     0.207 HD
ATOM     25  H3  UNL     1      30.692  37.935   5.844  1.00  0.00     0.177 HD
BRANCH  13  26
HETATM   26  C8  UNL     1      32.799  37.485   9.962  1.00  0.00     0.325 C 
BRANCH  26  27
HETATM   27  O2  UNL     1      32.189  36.344  10.532  1.00  0.00    -0.365 OA
ATOM     28  H2  UNL     1      32.882  35.841  10.945  1.00  0.00     0.213 HD
ENDBRANCH  26  27
BRANCH  26  29
HETATM   29  O3  UNL     1      33.604  37.013   8.927  1.00  0.00    -0.365 OA
ATOM     30  H3  UNL     1      34.371  36.629   9.334  1.00  0.00     0.213 HD
ENDBRANCH  26  29
ENDBRANCH  13  26
BRANCH  15  31
HETATM   31  C9  UNL     1      31.469  39.310  11.448  1.00  0.00     0.734 A 
HETATM   32  N6  UNL     1      32.382  40.251  11.807  1.00  0.00    -0.020 N 
HETATM   33  C10 UNL     1      32.773  40.392  13.090  1.00  0.00     0.705 A 
ATOM     34  H6  UNL     1      32.779  40.861  11.092  1.00  0.00     0.203 HD
HETATM   35  N8  UNL     1      32.266  39.603  14.043  1.00  0.00    -0.022 N 
HETATM   36  C11 UNL     1      31.356  38.657  13.727  1.00  0.00     0.705 A 
ATOM     37  H8  UNL     1      32.567  39.717  15.011  1.00  0.00     0.203 HD
HETATM   38  N10 UNL     1      30.991  38.545  12.445  1.00  0.00    -0.020 N 
ATOM     39  H10 UNL     1      30.304  37.830  12.208  1.00  0.00     0.203 HD
BRANCH  33  40
HETATM   40  N7  UNL     1      33.642  41.282  13.456  1.00  0.00    -0.234 N 
ATOM     41  H72 UNL     1      33.303  42.232  13.607  1.00  0.00     0.174 HD
ATOM     42  H71 UNL     1      34.628  41.059  13.591  1.00  0.00     0.174 HD
ENDBRANCH  33  40
BRANCH  36  43
HETATM   43  N9  UNL     1      30.861  37.885  14.662  1.00  0.00    -0.234 N 
ATOM     44  H92 UNL     1      30.397  38.263  15.488  1.00  0.00     0.174 HD
ATOM     45  H91 UNL     1      30.933  36.871  14.579  1.00  0.00     0.174 HD
ENDBRANCH  36  43
ENDBRANCH  15  31
ENDBRANCH   8   9
ENDBRANCH   7   8
ENDBRANCH   4   7
ENDBRANCH   1   4
TORSDOF 10
ENDMDL
MODEL 2
REMARK VINA RESULT: -6.916167066      0.073      1.448
REMARK  10 active torsions:
REMARK  status: ('A' for Active; 'I' for Inactive)
REMARK    1  A    between atoms: N1_2  and  C2_4 
REMARK    2  A    between atoms: N1_2  and  C4_7 
REMARK    3  A    between atoms: C4_7  and  C5_8 
REMARK    4  A    between atoms: C5_8  and  N3_9 
REMARK    5  A    between atoms: C7_14  and  C8_15 
REMARK    6  A    between atoms: C8_15  and  O2_16 
REMARK    7  A    between atoms: C8_15  and  O3_18 
REMARK    8  A    between atoms: N5_20  and  C9_21 
REMARK    9  A    between atoms: C10_24  and  N7_25 
REMARK   10  A    between atoms: C11_30  and  N9_31 
ROOT
HETATM    1  C2  UNL     1      29.617  40.744   2.176  1.00  0.00     0.434 C 
HETATM    2  C3  UNL     1      28.693  40.901   1.077  1.00  0.00     0.095 C 
HETATM    3  N2  UNL     1      27.956  41.030   0.197  1.00  0.00    -0.195 NA
ENDROOT
BRANCH   1   4
HETATM    4  N1  UNL     1      28.886  40.740   3.448  1.00  0.00     0.023 N 
HETATM    5  C1  UNL     1      28.288  42.031   3.641  1.00  0.00     0.357 C 
HETATM    6  O1  UNL     1      27.927  39.798   3.341  1.00  0.00    -0.064 OA
BRANCH   4   7
HETATM    7  C4  UNL     1      29.781  40.383   4.541  1.00  0.00     0.332 C 
BRANCH   7   8
HETATM    8  C5  UNL     1      29.137  39.191   5.282  1.00  0.00     0.174 C 
BRANCH   8   9
HETATM    9  N3  UNL     1      30.026  38.711   6.226  1.00  0.00    -0.222 N 
HETATM   10  C6  UNL     1      30.326  38.889   7.421  1.00  0.00     0.716 A 
HETATM   11  N4  UNL     1      31.336  38.152   8.004  1.00  0.00    -0.172 N 
HETATM   12  N14 UNL     1      29.696  39.792   8.204  1.00  0.00     0.106 N 
HETATM   13  C7  UNL     1      31.674  38.328   9.287  1.00  0.00     0.194 A 
ATOM     14  H4  UNL     1      31.836  37.459   7.447  1.00  0.00     0.185 HD
HETATM   15  N5  UNL     1      31.050  39.223  10.065  1.00  0.00     0.044 N 
HETATM   16  C12 UNL     1      30.055  39.956   9.512  1.00  0.00     0.756 A 
HETATM   17  N11 UNL     1      29.295  40.907  10.098  1.00  0.00    -0.018 N 
HETATM   18  C13 UNL     1      28.457  41.346   9.171  1.00  0.00     0.706 A 
ATOM     19  H11 UNL     1      29.355  41.225  11.065  1.00  0.00     0.203 HD
HETATM   20  N12 UNL     1      27.548  42.251   9.274  1.00  0.00    -0.233 N 
HETATM   21  N13 UNL     1      28.709  40.660   8.022  1.00  0.00    -0.096 N 
ATOM     22 2H12 UNL     1      27.359  42.765  10.135  1.00  0.00     0.174 HD
ATOM     23 1H12 UNL     1      26.903  42.589   8.560  1.00  0.00     0.174 HD
ATOM     24  H13 UNL     1      28.209  40.795   7.144  1.00  0.00     0.207 HD
ATOM     25  H3  UNL     1      30.618  37.989   5.818  1.00  0.00     0.177 HD
BRANCH  13  26
HETATM   26  C8  UNL     1      32.771  37.527   9.911  1.00  0.00     0.325 C 
BRANCH  26  27
HETATM   27  O2  UNL     1      32.163  36.394  10.501  1.00  0.00    -0.365 OA
ATOM     28  H2  UNL     1      32.814  35.703  10.502  1.00  0.00     0.213 HD
ENDBRANCH  26  27
BRANCH  26  29
HETATM   29  O3  UNL     1      33.554  37.040   8.865  1.00  0.00    -0.365 OA
ATOM     30  H3  UNL     1      33.801  36.154   9.101  1.00  0.00     0.213 HD
ENDBRANCH  26  29
ENDBRANCH  13  26
BRANCH  15  31
HETATM   31  C9  UNL     1      31.464  39.353  11.415  1.00  0.00     0.734 A 
HETATM   32  N6  UNL     1      30.930  38.556  12.377  1.00  0.00    -0.020 N 
HETATM   33  C10 UNL     1      31.310  38.664  13.667  1.00  0.00     0.705 A 
ATOM     34  H6  UNL     1      30.227  37.862  12.120  1.00  0.00     0.203 HD
HETATM   35  N8  UNL     1      32.229  39.566  14.027  1.00  0.00    -0.022 N 
HETATM   36  C11 UNL     1      32.784  40.376  13.101  1.00  0.00     0.705 A 
ATOM     37  H8  UNL     1      32.512  39.642  15.004  1.00  0.00     0.203 HD
HETATM   38  N10 UNL     1      32.383  40.241  11.833  1.00  0.00    -0.020 N 
ATOM     39  H10 UNL     1      32.804  40.853  11.134  1.00  0.00     0.203 HD
BRANCH  33  40
HETATM   40  N7  UNL     1      30.815  37.915  14.602  1.00  0.00    -0.234 N 
ATOM     41  H72 UNL     1      30.247  37.119  14.311  1.00  0.00     0.174 HD
ATOM     42  H71 UNL     1      30.976  38.100  15.592  1.00  0.00     0.174 HD
ENDBRANCH  33  40
BRANCH  36  43
HETATM   43  N9  UNL     1      33.684  41.260  13.457  1.00  0.00    -0.234 N 
ATOM     44  H92 UNL     1      34.674  41.142  13.240  1.00  0.00     0.174 HD
ATOM     45  H91 UNL     1      33.405  42.097  13.967  1.00  0.00     0.174 HD
ENDBRANCH  36  43
ENDBRANCH  15  31
ENDBRANCH   8   9
ENDBRANCH   7   8
ENDBRANCH   4   7
ENDBRANCH   1   4
TORSDOF 10
ENDMDL
MODEL 3
REMARK VINA RESULT: -6.685883455      1.058      1.360
REMARK  10 active torsions:
REMARK  status: ('A' for Active; 'I' for Inactive)
REMARK    1  A    between atoms: N1_2  and  C2_4 
REMARK    2  A    between atoms: N1_2  and  C4_7 
REMARK    3  A    between atoms: C4_7  and  C5_8 
REMARK    4  A    between atoms: C5_8  and  N3_9 
REMARK    5  A    between atoms: C7_14  and  C8_15 
REMARK    6  A    between atoms: C8_15  and  O2_16 
REMARK    7  A    between atoms: C8_15  and  O3_18 
REMARK    8  A    between atoms: N5_20  and  C9_21 
REMARK    9  A    between atoms: C10_24  and  N7_25 
REMARK   10  A    between atoms: C11_30  and  N9_31 
ROOT
HETATM    1  C2  UNL     1      28.666  42.389   4.528  1.00  0.00     0.434 C 
HETATM    2  C3  UNL     1      27.788  43.231   3.750  1.00  0.00     0.095 C 
HETATM    3  N2  UNL     1      27.083  43.905   3.130  1.00  0.00    -0.195 NA
ENDROOT
BRANCH   1   4
HETATM    4  N1  UNL     1      29.369  41.449   3.646  1.00  0.00     0.023 N 
HETATM    5  C1  UNL     1      28.398  40.622   2.986  1.00  0.00     0.357 C 
HETATM    6  O1  UNL     1      30.035  42.192   2.739  1.00  0.00    -0.064 OA
BRANCH   4   7
HETATM    7  C4  UNL     1      30.328  40.663   4.412  1.00  0.00     0.332 C 
BRANCH   7   8
HETATM    8  C5  UNL     1      29.526  39.583   5.169  1.00  0.00     0.174 C 
BRANCH   8   9
HETATM    9  N3  UNL     1      30.334  39.011   6.134  1.00  0.00    -0.222 N 
HETATM   10  C6  UNL     1      30.572  39.112   7.351  1.00  0.00     0.716 A 
HETATM   11  N4  UNL     1      31.511  38.297   7.949  1.00  0.00    -0.172 N 
HETATM   12  N14 UNL     1      29.941  40.004   8.145  1.00  0.00     0.106 N 
HETATM   13  C7  UNL     1      31.781  38.390   9.256  1.00  0.00     0.194 A 
ATOM     14  H4  UNL     1      32.009  37.609   7.384  1.00  0.00     0.185 HD
HETATM   15  N5  UNL     1      31.155  39.274  10.045  1.00  0.00     0.044 N 
HETATM   16  C12 UNL     1      30.230  40.083   9.478  1.00  0.00     0.756 A 
HETATM   17  N11 UNL     1      29.483  41.039  10.072  1.00  0.00    -0.018 N 
HETATM   18  C13 UNL     1      28.721  41.566   9.124  1.00  0.00     0.706 A 
ATOM     19  H11 UNL     1      29.501  41.303  11.056  1.00  0.00     0.203 HD
HETATM   20  N12 UNL     1      27.852  42.510   9.226  1.00  0.00    -0.233 N 
HETATM   21  N13 UNL     1      29.008  40.929   7.956  1.00  0.00    -0.096 N 
ATOM     22 2H12 UNL     1      27.637  42.988  10.101  1.00  0.00     0.174 HD
ATOM     23 1H12 UNL     1      27.266  42.916   8.496  1.00  0.00     0.174 HD
ATOM     24  H13 UNL     1      28.567  41.133   7.060  1.00  0.00     0.207 HD
ATOM     25  H3  UNL     1      30.915  38.282   5.721  1.00  0.00     0.177 HD
BRANCH  13  26
HETATM   26  C8  UNL     1      32.801  37.503   9.896  1.00  0.00     0.325 C 
BRANCH  26  27
HETATM   27  O2  UNL     1      32.101  36.394  10.425  1.00  0.00    -0.365 OA
ATOM     28  H2  UNL     1      31.849  35.852   9.687  1.00  0.00     0.213 HD
ENDBRANCH  26  27
BRANCH  26  29
HETATM   29  O3  UNL     1      33.594  37.000   8.866  1.00  0.00    -0.365 OA
ATOM     30  H3  UNL     1      34.466  36.888   9.226  1.00  0.00     0.213 HD
ENDBRANCH  26  29
ENDBRANCH  13  26
BRANCH  15  31
HETATM   31  C9  UNL     1      31.496  39.313  11.421  1.00  0.00     0.734 A 
HETATM   32  N6  UNL     1      32.479  40.140  11.863  1.00  0.00    -0.020 N 
HETATM   33  C10 UNL     1      32.818  40.192  13.168  1.00  0.00     0.705 A 
ATOM     34  H6  UNL     1      32.972  40.734  11.195  1.00  0.00     0.203 HD
HETATM   35  N8  UNL     1      32.186  39.423  14.061  1.00  0.00    -0.022 N 
HETATM   36  C11 UNL     1      31.203  38.588  13.662  1.00  0.00     0.705 A 
ATOM     37  H8  UNL     1      32.447  39.468  15.046  1.00  0.00     0.203 HD
HETATM   38  N10 UNL     1      30.894  38.563  12.361  1.00  0.00    -0.020 N 
ATOM     39  H10 UNL     1      30.150  37.933  12.062  1.00  0.00     0.203 HD
BRANCH  33  40
HETATM   40  N7  UNL     1      33.752  40.973  13.612  1.00  0.00    -0.234 N 
ATOM     41  H72 UNL     1      34.432  40.569  14.257  1.00  0.00     0.174 HD
ATOM     42  H71 UNL     1      33.819  41.954  13.339  1.00  0.00     0.174 HD
ENDBRANCH  33  40
BRANCH  36  43
HETATM   43  N9  UNL     1      30.586  37.835  14.540  1.00  0.00    -0.234 N 
ATOM     44  H92 UNL     1      31.079  37.143  15.102  1.00  0.00     0.174 HD
ATOM     45  H91 UNL     1      29.580  37.932  14.678  1.00  0.00     0.174 HD
ENDBRANCH  36  43
ENDBRANCH  15  31
ENDBRANCH   8   9
ENDBRANCH   7   8
ENDBRANCH   4   7
ENDBRANCH   1   4
TORSDOF 10
ENDMDL
MODEL 4
REMARK VINA RESULT: -6.533921753      2.731      8.921
REMARK  10 active torsions:
REMARK  status: ('A' for Active; 'I' for Inactive)
REMARK    1  A    between atoms: N1_2  and  C2_4 
REMARK    2  A    between atoms: N1_2  and  C4_7 
REMARK    3  A    between atoms: C4_7  and  C5_8 
REMARK    4  A    between atoms: C5_8  and  N3_9 
REMARK    5  A    between atoms: C7_14  and  C8_15 
REMARK    6  A    between atoms: C8_15  and  O2_16 
REMARK    7  A    between atoms: C8_15  and  O3_18 
REMARK    8  A    between atoms: N5_20  and  C9_21 
REMARK    9  A    between atoms: C10_24  and  N7_25 
REMARK   10  A    between atoms: C11_30  and  N9_31 
ROOT
HETATM    1  C2  UNL     1      32.120  39.490   9.843  1.00  0.00     0.434 C 
HETATM    2  C3  UNL     1      32.132  38.058  10.027  1.00  0.00     0.095 C 
HETATM    3  N2  UNL     1      32.145  36.912  10.174  1.00  0.00    -0.195 NA
ENDROOT
BRANCH   1   4
HETATM    4  N1  UNL     1      31.046  39.867   8.917  1.00  0.00     0.023 N 
HETATM    5  C1  UNL     1      29.811  39.941   9.647  1.00  0.00     0.357 C 
HETATM    6  O1  UNL     1      31.365  41.081   8.425  1.00  0.00    -0.064 OA
BRANCH   4   7
HETATM    7  C4  UNL     1      30.974  38.914   7.816  1.00  0.00     0.332 C 
BRANCH   7   8
HETATM    8  C5  UNL     1      29.488  38.798   7.414  1.00  0.00     0.174 C 
BRANCH   8   9
HETATM    9  N3  UNL     1      29.366  39.039   6.058  1.00  0.00    -0.222 N 
HETATM   10  C6  UNL     1      29.221  39.996   5.276  1.00  0.00     0.716 A 
HETATM   11  N4  UNL     1      29.142  39.779   3.915  1.00  0.00    -0.172 N 
HETATM   12  N14 UNL     1      29.136  41.276   5.698  1.00  0.00     0.106 N 
HETATM   13  C7  UNL     1      28.986  40.794   3.058  1.00  0.00     0.194 A 
ATOM     14  H4  UNL     1      29.202  38.827   3.556  1.00  0.00     0.185 HD
HETATM   15  N5  UNL     1      28.902  42.065   3.475  1.00  0.00     0.044 N 
HETATM   16  C12 UNL     1      28.978  42.299   4.806  1.00  0.00     0.756 A 
HETATM   17  N11 UNL     1      28.918  43.486   5.448  1.00  0.00    -0.018 N 
HETATM   18  C13 UNL     1      29.037  43.222   6.741  1.00  0.00     0.706 A 
ATOM     19  H11 UNL     1      28.803  44.405   5.022  1.00  0.00     0.203 HD
HETATM   20  N12 UNL     1      29.036  44.044   7.732  1.00  0.00    -0.233 N 
HETATM   21  N13 UNL     1      29.170  41.874   6.881  1.00  0.00    -0.096 N 
ATOM     22 2H12 UNL     1      28.936  45.054   7.627  1.00  0.00     0.174 HD
ATOM     23 1H12 UNL     1      29.127  43.841   8.727  1.00  0.00     0.174 HD
ATOM     24  H13 UNL     1      29.280  41.392   7.773  1.00  0.00     0.207 HD
ATOM     25  H3  UNL     1      29.408  38.163   5.538  1.00  0.00     0.177 HD
BRANCH  13  26
HETATM   26  C8  UNL     1      28.899  40.551   1.584  1.00  0.00     0.325 C 
BRANCH  26  27
HETATM   27  O2  UNL     1      29.880  39.582   1.273  1.00  0.00    -0.365 OA
ATOM     28  H2  UNL     1      29.523  38.739   1.528  1.00  0.00     0.213 HD
ENDBRANCH  26  27
BRANCH  26  29
HETATM   29  O3  UNL     1      27.668  39.939   1.354  1.00  0.00    -0.365 OA
ATOM     30  H3  UNL     1      27.020  40.633   1.331  1.00  0.00     0.213 HD
ENDBRANCH  26  29
ENDBRANCH  13  26
BRANCH  15  31
HETATM   31  C9  UNL     1      28.737  43.087   2.506  1.00  0.00     0.734 A 
HETATM   32  N6  UNL     1      29.714  43.332   1.593  1.00  0.00    -0.020 N 
HETATM   33  C10 UNL     1      29.576  44.301   0.663  1.00  0.00     0.705 A 
ATOM     34  H6  UNL     1      30.567  42.774   1.611  1.00  0.00     0.203 HD
HETATM   35  N8  UNL     1      28.465  45.044   0.621  1.00  0.00    -0.022 N 
HETATM   36  C11 UNL     1      27.472  44.831   1.510  1.00  0.00     0.705 A 
ATOM     37  H8  UNL     1      28.369  45.774  -0.085  1.00  0.00     0.203 HD
HETATM   38  N10 UNL     1      27.643  43.863   2.417  1.00  0.00    -0.020 N 
ATOM     39  H10 UNL     1      26.891  43.703   3.087  1.00  0.00     0.203 HD
BRANCH  33  40
HETATM   40  N7  UNL     1      30.493  44.553  -0.217  1.00  0.00    -0.234 N 
ATOM     41  H72 UNL     1      31.458  44.343   0.040  1.00  0.00     0.174 HD
ATOM     42  H71 UNL     1      30.277  44.945  -1.134  1.00  0.00     0.174 HD
ENDBRANCH  33  40
BRANCH  36  43
HETATM   43  N9  UNL     1      26.385  45.562   1.467  1.00  0.00    -0.234 N 
ATOM     44  H92 UNL     1      26.322  46.468   1.930  1.00  0.00     0.174 HD
ATOM     45  H91 UNL     1      25.566  45.230   0.958  1.00  0.00     0.174 HD
ENDBRANCH  36  43
ENDBRANCH  15  31
ENDBRANCH   8   9
ENDBRANCH   7   8
ENDBRANCH   4   7
ENDBRANCH   1   4
TORSDOF 10
ENDMDL
MODEL 5
REMARK VINA RESULT: -6.515957252      2.739      9.003
REMARK  10 active torsions:
REMARK  status: ('A' for Active; 'I' for Inactive)
REMARK    1  A    between atoms: N1_2  and  C2_4 
REMARK    2  A    between atoms: N1_2  and  C4_7 
REMARK    3  A    between atoms: C4_7  and  C5_8 
REMARK    4  A    between atoms: C5_8  and  N3_9 
REMARK    5  A    between atoms: C7_14  and  C8_15 
REMARK    6  A    between atoms: C8_15  and  O2_16 
REMARK    7  A    between atoms: C8_15  and  O3_18 
REMARK    8  A    between atoms: N5_20  and  C9_21 
REMARK    9  A    between atoms: C10_24  and  N7_25 
REMARK   10  A    between atoms: C11_30  and  N9_31 
ROOT
HETATM    1  C2  UNL     1      32.136  39.517   9.845  1.00  0.00     0.434 C 
HETATM    2  C3  UNL     1      32.134  38.085  10.030  1.00  0.00     0.095 C 
HETATM    3  N2  UNL     1      32.136  36.939  10.178  1.00  0.00    -0.195 NA
ENDROOT
BRANCH   1   4
HETATM    4  N1  UNL     1      31.046  39.906   8.942  1.00  0.00     0.023 N 
HETATM    5  C1  UNL     1      29.819  39.939   9.687  1.00  0.00     0.357 C 
HETATM    6  O1  UNL     1      31.343  41.140   8.485  1.00  0.00    -0.064 OA
BRANCH   4   7
HETATM    7  C4  UNL     1      30.976  38.987   7.813  1.00  0.00     0.332 C 
BRANCH   7   8
HETATM    8  C5  UNL     1      29.489  38.870   7.417  1.00  0.00     0.174 C 
BRANCH   8   9
HETATM    9  N3  UNL     1      29.362  39.099   6.059  1.00  0.00    -0.222 N 
HETATM   10  C6  UNL     1      29.227  40.051   5.268  1.00  0.00     0.716 A 
HETATM   11  N4  UNL     1      29.136  39.822   3.910  1.00  0.00    -0.172 N 
HETATM   12  N14 UNL     1      29.164  41.336   5.678  1.00  0.00     0.106 N 
HETATM   13  C7  UNL     1      28.990  40.831   3.044  1.00  0.00     0.194 A 
ATOM     14  H4  UNL     1      29.180  38.865   3.560  1.00  0.00     0.185 HD
HETATM   15  N5  UNL     1      28.928  42.107   3.450  1.00  0.00     0.044 N 
HETATM   16  C12 UNL     1      29.016  42.353   4.778  1.00  0.00     0.756 A 
HETATM   17  N11 UNL     1      28.978  43.546   5.409  1.00  0.00    -0.018 N 
HETATM   18  C13 UNL     1      29.101  43.293   6.704  1.00  0.00     0.706 A 
ATOM     19  H11 UNL     1      28.874  44.463   4.974  1.00  0.00     0.203 HD
HETATM   20  N12 UNL     1      29.117  44.125   7.686  1.00  0.00    -0.233 N 
HETATM   21  N13 UNL     1      29.214  41.945   6.856  1.00  0.00    -0.096 N 
ATOM     22 2H12 UNL     1      29.032  45.135   7.572  1.00  0.00     0.174 HD
ATOM     23 1H12 UNL     1      29.211  43.930   8.683  1.00  0.00     0.174 HD
ATOM     24  H13 UNL     1      29.322  41.469   7.751  1.00  0.00     0.207 HD
ATOM     25  H3  UNL     1      29.388  38.217   5.548  1.00  0.00     0.177 HD
BRANCH  13  26
HETATM   26  C8  UNL     1      28.891  40.575   1.574  1.00  0.00     0.325 C 
BRANCH  26  27
HETATM   27  O2  UNL     1      29.886  39.621   1.259  1.00  0.00    -0.365 OA
ATOM     28  H2  UNL     1      29.882  39.523   0.314  1.00  0.00     0.213 HD
ENDBRANCH  26  27
BRANCH  26  29
HETATM   29  O3  UNL     1      27.669  39.939   1.363  1.00  0.00    -0.365 OA
ATOM     30  H3  UNL     1      27.509  39.397   2.127  1.00  0.00     0.213 HD
ENDBRANCH  26  29
ENDBRANCH  13  26
BRANCH  15  31
HETATM   31  C9  UNL     1      28.773  43.122   2.471  1.00  0.00     0.734 A 
HETATM   32  N6  UNL     1      27.636  43.866   2.427  1.00  0.00    -0.020 N 
HETATM   33  C10 UNL     1      27.470  44.836   1.504  1.00  0.00     0.705 A 
ATOM     34  H6  UNL     1      26.894  43.687   3.105  1.00  0.00     0.203 HD
HETATM   35  N8  UNL     1      28.428  45.087   0.607  1.00  0.00    -0.022 N 
HETATM   36  C11 UNL     1      29.572  44.370   0.618  1.00  0.00     0.705 A 
ATOM     37  H8  UNL     1      28.295  45.822  -0.088  1.00  0.00     0.203 HD
HETATM   38  N10 UNL     1      29.703  43.417   1.547  1.00  0.00    -0.020 N 
ATOM     39  H10 UNL     1      30.568  42.877   1.554  1.00  0.00     0.203 HD
BRANCH  33  40
HETATM   40  N7  UNL     1      26.395  45.558   1.443  1.00  0.00    -0.234 N 
ATOM     41  H72 UNL     1      25.628  45.309   2.068  1.00  0.00     0.174 HD
ATOM     42  H71 UNL     1      26.303  46.346   0.801  1.00  0.00     0.174 HD
ENDBRANCH  33  40
BRANCH  36  43
HETATM   43  N9  UNL     1      30.510  44.618  -0.263  1.00  0.00    -0.234 N 
ATOM     44  H92 UNL     1      30.430  45.375  -0.941  1.00  0.00     0.174 HD
ATOM     45  H91 UNL     1      31.354  44.046  -0.285  1.00  0.00     0.174 HD
ENDBRANCH  36  43
ENDBRANCH  15  31
ENDBRANCH   8   9
ENDBRANCH   7   8
ENDBRANCH   4   7
ENDBRANCH   1   4
TORSDOF 10
ENDMDL
