MODEL 1
REMARK VINA RESULT: -6.052193164      0.000      0.000
REMARK  12 active torsions:
REMARK  status: ('A' for Active; 'I' for Inactive)
REMARK       I    between atoms: C2_2  and  N1_4 
REMARK    1  A    between atoms: C6_11  and  O2_12 
REMARK    2  A    between atoms: C8_16  and  N4_17 
REMARK    3  A    between atoms: N4_17  and  C9_19 
REMARK    4  A    between atoms: C9_19  and  O3_20 
REMARK    5  A    between atoms: C9_19  and  C10_22 
REMARK    6  A    between atoms: C10_22  and  N5_23 
REMARK    7  A    between atoms: C10_22  and  C11_27 
REMARK    8  A    between atoms: C11_27  and  O4_28 
REMARK    9  A    between atoms: C12_31  and  C13_32 
REMARK   10  A    between atoms: C13_32  and  O5_33 
REMARK   11  A    between atoms: C13_32  and  C14_35 
REMARK   12  A    between atoms: C14_35  and  O6_36 
ROOT
HETATM    1  C1  UNL     1      29.886  41.171   1.956  1.00  0.00     0.117 C 
HETATM    2  C2  UNL     1      28.764  40.573   2.756  1.00  0.00     0.219 C 
HETATM    3  O1  UNL     1      27.581  40.944   2.601  1.00  0.00    -0.274 OA
HETATM    4  N1  UNL     1      29.078  39.564   3.704  1.00  0.00    -0.309 N 
ATOM      5  H1  UNL     1      29.082  38.584   3.421  1.00  0.00     0.170 HD
HETATM    6  C3  UNL     1      29.360  39.883   4.923  1.00  0.00     0.179 C 
HETATM    7  N2  UNL     1      29.325  41.227   5.186  1.00  0.00    -0.323 N 
ATOM      8  H2  UNL     1      29.523  41.864   4.415  1.00  0.00     0.169 HD
HETATM    9  C4  UNL     1      29.044  41.777   6.409  1.00  0.00     0.119 A 
HETATM   10  C5  UNL     1      28.330  42.944   6.361  1.00  0.00     0.087 A 
HETATM   11  C6  UNL     1      27.967  43.542   7.572  1.00  0.00     0.097 A 
HETATM   12  C7  UNL     1      28.300  42.994   8.794  1.00  0.00     0.124 A 
HETATM   13  N3  UNL     1      27.861  43.707   9.927  1.00  0.00    -0.095 NA
HETATM   14  C8  UNL     1      29.023  41.807   8.782  1.00  0.00     0.144 A 
HETATM   15  N6  UNL     1      29.384  41.230   7.609  1.00  0.00    -0.268 N 
HETATM   16  C12 UNL     1      30.231  40.176   7.839  1.00  0.00     0.125 C 
HETATM   17  N7  UNL     1      30.108  39.044   7.098  1.00  0.00    -0.307 N 
ATOM     18  H7  UNL     1      30.392  38.183   7.566  1.00  0.00     0.170 HD
HETATM   19  C15 UNL     1      29.658  38.892   5.813  1.00  0.00     0.291 C 
HETATM   20  O7  UNL     1      29.511  37.724   5.429  1.00  0.00    -0.264 OA
ENDROOT
BRANCH  14  21
HETATM   21  N4  UNL     1      29.349  41.137   9.938  1.00  0.00    -0.323 N 
ATOM     22  H4  UNL     1      30.316  40.818   9.983  1.00  0.00     0.169 HD
BRANCH  21  23
HETATM   23  C9  UNL     1      28.571  40.814  11.079  1.00  0.00     0.150 C 
BRANCH  23  24
HETATM   24  O3  UNL     1      27.405  40.101  10.898  1.00  0.00    -0.348 OA
ATOM     25  H3  UNL     1      26.577  40.550  11.021  1.00  0.00     0.219 HD
ENDBRANCH  23  24
BRANCH  23  26
HETATM   26  C10 UNL     1      29.283  40.649  12.373  1.00  0.00     0.280 C 
BRANCH  26  27
HETATM   27  N5  UNL     1      30.265  39.564  12.273  1.00  0.00    -0.066 N 
ATOM     28  H53 UNL     1      29.862  38.660  12.522  1.00  0.00     0.275 HD
ATOM     29  H52 UNL     1      30.510  39.358  11.304  1.00  0.00     0.275 HD
ATOM     30  H51 UNL     1      31.087  39.782  12.835  1.00  0.00     0.275 HD
ENDBRANCH  26  27
BRANCH  26  31
HETATM   31  C11 UNL     1      30.105  41.865  12.759  1.00  0.00     0.205 C 
BRANCH  31  32
HETATM   32  O4  UNL     1      29.516  43.045  12.270  1.00  0.00    -0.398 OA
ATOM     33  H4  UNL     1      29.850  43.806  12.729  1.00  0.00     0.209 HD
ENDBRANCH  31  32
ENDBRANCH  26  31
ENDBRANCH  23  26
ENDBRANCH  21  23
ENDBRANCH  14  21
BRANCH  11  34
HETATM   34  O2  UNL     1      27.237  44.743   7.534  1.00  0.00    -0.358 OA
ATOM     35  H2  UNL     1      26.810  44.989   6.722  1.00  0.00     0.217 HD
ENDBRANCH  11  34
BRANCH  16  36
HETATM   36  C13 UNL     1      31.224  40.454   8.843  1.00  0.00     0.209 C 
BRANCH  36  37
HETATM   37  O5  UNL     1      32.511  40.868   8.362  1.00  0.00    -0.386 OA
ATOM     38  H5  UNL     1      33.233  40.789   8.975  1.00  0.00     0.210 HD
ENDBRANCH  36  37
BRANCH  36  39
HETATM   39  C14 UNL     1      31.773  38.978   8.979  1.00  0.00     0.203 C 
BRANCH  39  40
HETATM   40  O6  UNL     1      31.011  38.278   9.864  1.00  0.00    -0.398 OA
ATOM     41  H6  UNL     1      31.285  38.473  10.752  1.00  0.00     0.209 HD
ENDBRANCH  39  40
ENDBRANCH  36  39
ENDBRANCH  16  36
TORSDOF 12
ENDMDL
MODEL 2
REMARK VINA RESULT: -5.519023106      3.589      6.645
REMARK  12 active torsions:
REMARK  status: ('A' for Active; 'I' for Inactive)
REMARK       I    between atoms: C2_2  and  N1_4 
REMARK    1  A    between atoms: C6_11  and  O2_12 
REMARK    2  A    between atoms: C8_16  and  N4_17 
REMARK    3  A    between atoms: N4_17  and  C9_19 
REMARK    4  A    between atoms: C9_19  and  O3_20 
REMARK    5  A    between atoms: C9_19  and  C10_22 
REMARK    6  A    between atoms: C10_22  and  N5_23 
REMARK    7  A    between atoms: C10_22  and  C11_27 
REMARK    8  A    between atoms: C11_27  and  O4_28 
REMARK    9  A    between atoms: C12_31  and  C13_32 
REMARK   10  A    between atoms: C13_32  and  O5_33 
REMARK   11  A    between atoms: C13_32  and  C14_35 
REMARK   12  A    between atoms: C14_35  and  O6_36 
ROOT
HETATM    1  C1  UNL     1      27.041  45.789  -1.712  1.00  0.00     0.117 C 
HETATM    2  C2  UNL     1      28.443  45.600  -1.206  1.00  0.00     0.219 C 
HETATM    3  O1  UNL     1      29.304  44.996  -1.879  1.00  0.00    -0.274 OA
HETATM    4  N1  UNL     1      28.772  46.129   0.070  1.00  0.00    -0.309 N 
ATOM      5  H1  UNL     1      29.126  47.082   0.149  1.00  0.00     0.170 HD
HETATM    6  C3  UNL     1      28.626  45.406   1.131  1.00  0.00     0.179 C 
HETATM    7  N2  UNL     1      28.143  44.145   0.902  1.00  0.00    -0.323 N 
ATOM      8  H2  UNL     1      27.550  44.007   0.084  1.00  0.00     0.169 HD
HETATM    9  C4  UNL     1      28.399  43.055   1.692  1.00  0.00     0.119 A 
HETATM   10  C5  UNL     1      28.532  41.874   1.012  1.00  0.00     0.087 A 
HETATM   11  C6  UNL     1      28.838  40.725   1.747  1.00  0.00     0.097 A 
HETATM   12  C7  UNL     1      29.011  40.749   3.116  1.00  0.00     0.124 A 
HETATM   13  N3  UNL     1      29.322  39.513   3.718  1.00  0.00    -0.095 NA
HETATM   14  C8  UNL     1      28.867  41.976   3.753  1.00  0.00     0.144 A 
HETATM   15  N6  UNL     1      28.561  43.090   3.043  1.00  0.00    -0.268 N 
HETATM   16  C12 UNL     1      28.298  44.135   3.892  1.00  0.00     0.125 C 
HETATM   17  N7  UNL     1      28.739  45.382   3.576  1.00  0.00    -0.307 N 
ATOM     18  H7  UNL     1      28.940  45.988   4.371  1.00  0.00     0.170 HD
HETATM   19  C15 UNL     1      28.951  45.940   2.344  1.00  0.00     0.291 C 
HETATM   20  O7  UNL     1      29.498  47.052   2.344  1.00  0.00    -0.264 OA
ENDROOT
BRANCH  14  21
HETATM   21  N4  UNL     1      29.085  42.129   5.103  1.00  0.00    -0.323 N 
ATOM     22  H4  UNL     1      28.243  42.311   5.648  1.00  0.00     0.169 HD
BRANCH  21  23
HETATM   23  C9  UNL     1      30.279  42.079   5.865  1.00  0.00     0.150 C 
BRANCH  23  24
HETATM   24  O3  UNL     1      30.919  43.263   6.162  1.00  0.00    -0.348 OA
ATOM     25  H3  UNL     1      30.439  43.930   6.638  1.00  0.00     0.219 HD
ENDBRANCH  23  24
BRANCH  23  26
HETATM   26  C10 UNL     1      30.435  40.955   6.825  1.00  0.00     0.280 C 
BRANCH  26  27
HETATM   27  N5  UNL     1      30.992  39.782   6.142  1.00  0.00    -0.066 N 
ATOM     28  H53 UNL     1      30.261  39.176   5.767  1.00  0.00     0.275 HD
ATOM     29  H52 UNL     1      31.446  40.031   5.263  1.00  0.00     0.275 HD
ATOM     30  H51 UNL     1      31.621  39.278   6.766  1.00  0.00     0.275 HD
ENDBRANCH  26  27
BRANCH  26  31
HETATM   31  C11 UNL     1      31.430  41.252   7.932  1.00  0.00     0.205 C 
BRANCH  31  32
HETATM   32  O4  UNL     1      32.727  41.407   7.413  1.00  0.00    -0.398 OA
ATOM     33  H4  UNL     1      32.732  41.285   6.471  1.00  0.00     0.209 HD
ENDBRANCH  31  32
ENDBRANCH  26  31
ENDBRANCH  23  26
ENDBRANCH  21  23
ENDBRANCH  14  21
BRANCH  11  34
HETATM   34  O2  UNL     1      28.973  39.505   1.059  1.00  0.00    -0.358 OA
ATOM     35  H2  UNL     1      29.035  39.524   0.111  1.00  0.00     0.217 HD
ENDBRANCH  11  34
BRANCH  16  36
HETATM   36  C13 UNL     1      27.497  43.759   5.026  1.00  0.00     0.209 C 
BRANCH  36  37
HETATM   37  O5  UNL     1      26.083  43.962   4.897  1.00  0.00    -0.386 OA
ATOM     38  H5  UNL     1      25.705  44.642   5.443  1.00  0.00     0.210 HD
ENDBRANCH  36  37
BRANCH  36  39
HETATM   39  C14 UNL     1      27.603  45.136   5.797  1.00  0.00     0.203 C 
BRANCH  39  40
HETATM   40  O6  UNL     1      28.670  45.113   6.643  1.00  0.00    -0.398 OA
ATOM     41  H6  UNL     1      29.413  44.703   6.216  1.00  0.00     0.209 HD
ENDBRANCH  39  40
ENDBRANCH  36  39
ENDBRANCH  16  36
TORSDOF 12
ENDMDL
MODEL 3
REMARK VINA RESULT: -5.501324882      2.961      7.609
REMARK  12 active torsions:
REMARK  status: ('A' for Active; 'I' for Inactive)
REMARK       I    between atoms: C2_2  and  N1_4 
REMARK    1  A    between atoms: C6_11  and  O2_12 
REMARK    2  A    between atoms: C8_16  and  N4_17 
REMARK    3  A    between atoms: N4_17  and  C9_19 
REMARK    4  A    between atoms: C9_19  and  O3_20 
REMARK    5  A    between atoms: C9_19  and  C10_22 
REMARK    6  A    between atoms: C10_22  and  N5_23 
REMARK    7  A    between atoms: C10_22  and  C11_27 
REMARK    8  A    between atoms: C11_27  and  O4_28 
REMARK    9  A    between atoms: C12_31  and  C13_32 
REMARK   10  A    between atoms: C13_32  and  O5_33 
REMARK   11  A    between atoms: C13_32  and  C14_35 
REMARK   12  A    between atoms: C14_35  and  O6_36 
ROOT
HETATM    1  C1  UNL     1      28.482  40.777   9.618  1.00  0.00     0.117 C 
HETATM    2  C2  UNL     1      29.521  41.637   8.957  1.00  0.00     0.219 C 
HETATM    3  O1  UNL     1      29.812  42.767   9.401  1.00  0.00    -0.274 OA
HETATM    4  N1  UNL     1      30.174  41.132   7.801  1.00  0.00    -0.309 N 
ATOM      5  H1  UNL     1      31.030  40.586   7.899  1.00  0.00     0.170 HD
HETATM    6  C3  UNL     1      29.687  41.362   6.627  1.00  0.00     0.179 C 
HETATM    7  N2  UNL     1      28.536  42.104   6.619  1.00  0.00    -0.323 N 
ATOM      8  H2  UNL     1      27.931  42.046   7.439  1.00  0.00     0.169 HD
HETATM    9  C4  UNL     1      28.136  42.918   5.592  1.00  0.00     0.119 A 
HETATM   10  C5  UNL     1      27.500  44.065   5.985  1.00  0.00     0.087 A 
HETATM   11  C6  UNL     1      27.103  44.966   4.994  1.00  0.00     0.097 A 
HETATM   12  C7  UNL     1      27.334  44.738   3.652  1.00  0.00     0.124 A 
HETATM   13  N3  UNL     1      26.881  45.740   2.771  1.00  0.00    -0.095 NA
HETATM   14  C8  UNL     1      27.987  43.559   3.313  1.00  0.00     0.144 A 
HETATM   15  N6  UNL     1      28.365  42.678   4.272  1.00  0.00    -0.268 N 
HETATM   16  C12 UNL     1      28.827  41.521   3.698  1.00  0.00     0.125 C 
HETATM   17  N7  UNL     1      29.904  40.890   4.234  1.00  0.00    -0.307 N 
ATOM     18  H7  UNL     1      30.473  40.359   3.575  1.00  0.00     0.170 HD
HETATM   19  C15 UNL     1      30.336  40.865   5.534  1.00  0.00     0.291 C 
HETATM   20  O7  UNL     1      31.436  40.330   5.725  1.00  0.00    -0.264 OA
ENDROOT
BRANCH  14  21
HETATM   21  N4  UNL     1      28.331  43.262   2.014  1.00  0.00    -0.323 N 
ATOM     22  H4  UNL     1      27.891  42.420   1.643  1.00  0.00     0.169 HD
BRANCH  21  23
HETATM   23  C9  UNL     1      29.193  43.923   1.103  1.00  0.00     0.150 C 
BRANCH  23  24
HETATM   24  O3  UNL     1      30.502  43.499   1.012  1.00  0.00    -0.348 OA
ATOM     25  H3  UNL     1      31.008  43.420   1.811  1.00  0.00     0.219 HD
ENDBRANCH  23  24
BRANCH  23  26
HETATM   26  C10 UNL     1      28.581  44.526  -0.109  1.00  0.00     0.280 C 
BRANCH  26  27
HETATM   27  N5  UNL     1      29.598  44.712  -1.149  1.00  0.00    -0.066 N 
ATOM     28  H53 UNL     1      29.754  45.699  -1.358  1.00  0.00     0.275 HD
ATOM     29  H52 UNL     1      30.533  44.480  -0.814  1.00  0.00     0.275 HD
ATOM     30  H51 UNL     1      29.349  44.180  -1.982  1.00  0.00     0.275 HD
ENDBRANCH  26  27
BRANCH  26  31
HETATM   31  C11 UNL     1      27.540  43.632  -0.757  1.00  0.00     0.205 C 
BRANCH  31  32
HETATM   32  O4  UNL     1      27.914  42.279  -0.666  1.00  0.00    -0.398 OA
ATOM     33  H4  UNL     1      27.264  41.780  -0.184  1.00  0.00     0.209 HD
ENDBRANCH  31  32
ENDBRANCH  26  31
ENDBRANCH  23  26
ENDBRANCH  21  23
ENDBRANCH  14  21
BRANCH  11  34
HETATM   34  O2  UNL     1      26.444  46.146   5.385  1.00  0.00    -0.358 OA
ATOM     35  H2  UNL     1      26.166  46.755   4.711  1.00  0.00     0.217 HD
ENDBRANCH  11  34
BRANCH  16  36
HETATM   36  C13 UNL     1      28.026  41.079   2.587  1.00  0.00     0.209 C 
BRANCH  36  37
HETATM   37  O5  UNL     1      27.157  39.965   2.837  1.00  0.00    -0.386 OA
ATOM     38  H5  UNL     1      27.338  39.173   2.344  1.00  0.00     0.210 HD
ENDBRANCH  36  37
BRANCH  36  39
HETATM   39  C14 UNL     1      29.090  40.084   1.971  1.00  0.00     0.203 C 
BRANCH  39  40
HETATM   40  O6  UNL     1      29.870  40.740   1.067  1.00  0.00    -0.398 OA
ATOM     41  H6  UNL     1      29.943  41.656   1.306  1.00  0.00     0.209 HD
ENDBRANCH  39  40
ENDBRANCH  36  39
ENDBRANCH  16  36
TORSDOF 12
ENDMDL
MODEL 4
REMARK VINA RESULT: -5.500230143      2.488      7.126
REMARK  12 active torsions:
REMARK  status: ('A' for Active; 'I' for Inactive)
REMARK       I    between atoms: C2_2  and  N1_4 
REMARK    1  A    between atoms: C6_11  and  O2_12 
REMARK    2  A    between atoms: C8_16  and  N4_17 
REMARK    3  A    between atoms: N4_17  and  C9_19 
REMARK    4  A    between atoms: C9_19  and  O3_20 
REMARK    5  A    between atoms: C9_19  and  C10_22 
REMARK    6  A    between atoms: C10_22  and  N5_23 
REMARK    7  A    between atoms: C10_22  and  C11_27 
REMARK    8  A    between atoms: C11_27  and  O4_28 
REMARK    9  A    between atoms: C12_31  and  C13_32 
REMARK   10  A    between atoms: C13_32  and  O5_33 
REMARK   11  A    between atoms: C13_32  and  C14_35 
REMARK   12  A    between atoms: C14_35  and  O6_36 
ROOT
HETATM    1  C1  UNL     1      30.307  43.498  15.071  1.00  0.00     0.117 C 
HETATM    2  C2  UNL     1      29.280  42.607  14.431  1.00  0.00     0.219 C 
HETATM    3  O1  UNL     1      28.776  41.645  15.047  1.00  0.00    -0.274 OA
HETATM    4  N1  UNL     1      28.890  42.885  13.094  1.00  0.00    -0.309 N 
ATOM      5  H1  UNL     1      28.108  43.515  12.914  1.00  0.00     0.170 HD
HETATM    6  C3  UNL     1      29.520  42.342  12.107  1.00  0.00     0.179 C 
HETATM    7  N2  UNL     1      30.550  41.516  12.470  1.00  0.00    -0.323 N 
ATOM      8  H2  UNL     1      31.021  41.708  13.354  1.00  0.00     0.169 HD
HETATM    9  C4  UNL     1      30.995  40.450  11.732  1.00  0.00     0.119 A 
HETATM   10  C5  UNL     1      31.405  39.373  12.471  1.00  0.00     0.087 A 
HETATM   11  C6  UNL     1      31.831  38.231  11.787  1.00  0.00     0.097 A 
HETATM   12  C7  UNL     1      31.845  38.159  10.409  1.00  0.00     0.124 A 
HETATM   13  N3  UNL     1      32.294  36.941   9.862  1.00  0.00    -0.095 NA
HETATM   14  C8  UNL     1      31.415  39.281   9.710  1.00  0.00     0.144 A 
HETATM   15  N6  UNL     1      31.010  40.393  10.372  1.00  0.00    -0.268 N 
HETATM   16  C12 UNL     1      30.801  41.421   9.488  1.00  0.00     0.125 C 
HETATM   17  N7  UNL     1      29.746  42.258   9.670  1.00  0.00    -0.307 N 
ATOM     18  H7  UNL     1      29.363  42.669   8.820  1.00  0.00     0.170 HD
HETATM   19  C15 UNL     1      29.122  42.627  10.833  1.00  0.00     0.291 C 
HETATM   20  O7  UNL     1      28.086  43.292  10.700  1.00  0.00    -0.264 OA
ENDROOT
BRANCH  14  21
HETATM   21  N4  UNL     1      31.321  39.296   8.338  1.00  0.00    -0.323 N 
ATOM     22  H4  UNL     1      31.961  39.944   7.878  1.00  0.00     0.169 HD
BRANCH  21  23
HETATM   23  C9  UNL     1      30.488  38.567   7.452  1.00  0.00     0.150 C 
BRANCH  23  24
HETATM   24  O3  UNL     1      29.572  37.688   7.988  1.00  0.00    -0.348 OA
ATOM     25  H3  UNL     1      28.713  37.629   7.587  1.00  0.00     0.219 HD
ENDBRANCH  23  24
BRANCH  23  26
HETATM   26  C10 UNL     1      30.155  39.195   6.147  1.00  0.00     0.280 C 
BRANCH  26  27
HETATM   27  N5  UNL     1      29.509  38.216   5.266  1.00  0.00    -0.066 N 
ATOM     28  H53 UNL     1      29.107  38.655   4.437  1.00  0.00     0.275 HD
ATOM     29  H52 UNL     1      30.189  37.614   4.802  1.00  0.00     0.275 HD
ATOM     30  H51 UNL     1      28.817  37.679   5.787  1.00  0.00     0.275 HD
ENDBRANCH  26  27
BRANCH  26  31
HETATM   31  C11 UNL     1      29.141  40.317   6.268  1.00  0.00     0.205 C 
BRANCH  31  32
HETATM   32  O4  UNL     1      28.539  40.315   7.540  1.00  0.00    -0.398 OA
ATOM     33  H4  UNL     1      27.637  40.607   7.488  1.00  0.00     0.209 HD
ENDBRANCH  31  32
ENDBRANCH  26  31
ENDBRANCH  23  26
ENDBRANCH  21  23
ENDBRANCH  14  21
BRANCH  11  34
HETATM   34  O2  UNL     1      32.258  37.121  12.537  1.00  0.00    -0.358 OA
ATOM     35  H2  UNL     1      31.675  36.769  13.200  1.00  0.00     0.217 HD
ENDBRANCH  11  34
BRANCH  16  36
HETATM   36  C13 UNL     1      31.818  41.515   8.474  1.00  0.00     0.209 C 
BRANCH  36  37
HETATM   37  O5  UNL     1      33.025  42.194   8.848  1.00  0.00    -0.386 OA
ATOM     38  H5  UNL     1      33.443  42.711   8.169  1.00  0.00     0.210 HD
ENDBRANCH  36  37
BRANCH  36  39
HETATM   39  C14 UNL     1      31.297  42.850   7.807  1.00  0.00     0.203 C 
BRANCH  39  40
HETATM   40  O6  UNL     1      31.657  42.884   6.494  1.00  0.00    -0.398 OA
ATOM     41  H6  UNL     1      32.525  43.258   6.405  1.00  0.00     0.209 HD
ENDBRANCH  39  40
ENDBRANCH  36  39
ENDBRANCH  16  36
TORSDOF 12
ENDMDL
MODEL 5
REMARK VINA RESULT: -5.499281665      2.973      6.512
REMARK  12 active torsions:
REMARK  status: ('A' for Active; 'I' for Inactive)
REMARK       I    between atoms: C2_2  and  N1_4 
REMARK    1  A    between atoms: C6_11  and  O2_12 
REMARK    2  A    between atoms: C8_16  and  N4_17 
REMARK    3  A    between atoms: N4_17  and  C9_19 
REMARK    4  A    between atoms: C9_19  and  O3_20 
REMARK    5  A    between atoms: C9_19  and  C10_22 
REMARK    6  A    between atoms: C10_22  and  N5_23 
REMARK    7  A    between atoms: C10_22  and  C11_27 
REMARK    8  A    between atoms: C11_27  and  O4_28 
REMARK    9  A    between atoms: C12_31  and  C13_32 
REMARK   10  A    between atoms: C13_32  and  O5_33 
REMARK   11  A    between atoms: C13_32  and  C14_35 
REMARK   12  A    between atoms: C14_35  and  O6_36 
ROOT
HETATM    1  C1  UNL     1      31.804  46.038  10.104  1.00  0.00     0.117 C 
HETATM    2  C2  UNL     1      32.366  45.849   8.723  1.00  0.00     0.219 C 
HETATM    3  O1  UNL     1      32.458  46.801   7.920  1.00  0.00    -0.274 OA
HETATM    4  N1  UNL     1      32.797  44.549   8.346  1.00  0.00    -0.309 N 
ATOM      5  H1  UNL     1      33.760  44.262   8.520  1.00  0.00     0.170 HD
HETATM    6  C3  UNL     1      31.972  43.730   7.783  1.00  0.00     0.179 C 
HETATM    7  N2  UNL     1      30.708  44.224   7.601  1.00  0.00    -0.323 N 
ATOM      8  H2  UNL     1      30.381  44.935   8.254  1.00  0.00     0.169 HD
HETATM    9  C4  UNL     1      29.850  43.832   6.607  1.00  0.00     0.119 A 
HETATM   10  C5  UNL     1      29.064  44.832   6.102  1.00  0.00     0.087 A 
HETATM   11  C6  UNL     1      28.195  44.518   5.053  1.00  0.00     0.097 A 
HETATM   12  C7  UNL     1      28.112  43.248   4.519  1.00  0.00     0.124 A 
HETATM   13  N3  UNL     1      27.195  43.084   3.462  1.00  0.00    -0.095 NA
HETATM   14  C8  UNL     1      28.937  42.273   5.068  1.00  0.00     0.144 A 
HETATM   15  N6  UNL     1      29.774  42.574   6.092  1.00  0.00    -0.268 N 
HETATM   16  C12 UNL     1      30.353  41.431   6.583  1.00  0.00     0.125 C 
HETATM   17  N7  UNL     1      31.660  41.448   6.953  1.00  0.00    -0.307 N 
ATOM     18  H7  UNL     1      32.151  40.559   6.861  1.00  0.00     0.170 HD
HETATM   19  C15 UNL     1      32.413  42.487   7.430  1.00  0.00     0.291 C 
HETATM   20  O7  UNL     1      33.625  42.263   7.552  1.00  0.00    -0.264 OA
ENDROOT
BRANCH  14  21
HETATM   21  N4  UNL     1      28.988  40.992   4.569  1.00  0.00    -0.323 N 
ATOM     22  H4  UNL     1      29.303  40.291   5.239  1.00  0.00     0.169 HD
BRANCH  21  23
HETATM   23  C9  UNL     1      28.680  40.480   3.284  1.00  0.00     0.150 C 
BRANCH  23  24
HETATM   24  O3  UNL     1      27.354  40.371   2.922  1.00  0.00    -0.348 OA
ATOM     25  H3  UNL     1      27.148  40.099   2.035  1.00  0.00     0.219 HD
ENDBRANCH  23  24
BRANCH  23  26
HETATM   26  C10 UNL     1      29.672  40.699   2.200  1.00  0.00     0.280 C 
BRANCH  26  27
HETATM   27  N5  UNL     1      29.493  39.699   1.142  1.00  0.00    -0.066 N 
ATOM     28  H53 UNL     1      29.988  38.831   1.349  1.00  0.00     0.275 HD
ATOM     29  H52 UNL     1      28.542  39.329   1.124  1.00  0.00     0.275 HD
ATOM     30  H51 UNL     1      29.767  40.089   0.240  1.00  0.00     0.275 HD
ENDBRANCH  26  27
BRANCH  26  31
HETATM   31  C11 UNL     1      29.496  42.030   1.492  1.00  0.00     0.205 C 
BRANCH  31  32
HETATM   32  O4  UNL     1      28.351  42.017   0.676  1.00  0.00    -0.398 OA
ATOM     33  H4  UNL     1      28.087  41.126   0.477  1.00  0.00     0.209 HD
ENDBRANCH  31  32
ENDBRANCH  26  31
ENDBRANCH  23  26
ENDBRANCH  21  23
ENDBRANCH  14  21
BRANCH  11  34
HETATM   34  O2  UNL     1      27.379  45.537   4.530  1.00  0.00    -0.358 OA
ATOM     35  H2  UNL     1      27.499  45.793   3.623  1.00  0.00     0.217 HD
ENDBRANCH  11  34
BRANCH  16  36
HETATM   36  C13 UNL     1      29.430  40.333   6.704  1.00  0.00     0.209 C 
BRANCH  36  37
HETATM   37  O5  UNL     1      28.557  40.363   7.841  1.00  0.00    -0.386 OA
ATOM     38  H5  UNL     1      28.977  40.422   8.692  1.00  0.00     0.210 HD
ENDBRANCH  36  37
BRANCH  36  39
HETATM   39  C14 UNL     1      30.394  39.363   7.496  1.00  0.00     0.203 C 
BRANCH  39  40
HETATM   40  O6  UNL     1      30.996  38.499   6.632  1.00  0.00    -0.398 OA
ATOM     41  H6  UNL     1      30.923  37.610   6.959  1.00  0.00     0.209 HD
ENDBRANCH  39  40
ENDBRANCH  36  39
ENDBRANCH  16  36
TORSDOF 12
ENDMDL
