MODEL 1
REMARK VINA RESULT: -6.800511098      0.000      0.000
REMARK  7 active torsions:
REMARK  status: ('A' for Active; 'I' for Inactive)
REMARK    1  A    between atoms: N1_1  and  N2_4 
REMARK    2  A    between atoms: N2_4  and  C1_6 
REMARK    3  A    between atoms: C3_11  and  C4_12 
REMARK       I    between atoms: C4_12  and  N5_14 
REMARK    4  A    between atoms: N5_14  and  N6_16 
REMARK    5  A    between atoms: N8_21  and  N9_22 
REMARK    6  A    between atoms: N9_22  and  C6_24 
REMARK    7  A    between atoms: C6_24  and  C7_25 
ROOT
HETATM    1  C1  UNL     1      30.480  39.195   6.697  1.00  0.00     0.184 A 
HETATM    2  C2  UNL     1      29.912  38.289   5.857  1.00  0.00     0.164 A 
HETATM    3  N3  UNL     1      29.762  36.915   6.234  1.00  0.00    -0.078 NA
HETATM    4  N4  UNL     1      29.495  38.736   4.659  1.00  0.00    -0.334 N 
ATOM      5  H4  UNL     1      29.064  38.083   4.006  1.00  0.00     0.167 HD
HETATM    6  C3  UNL     1      29.634  40.024   4.304  1.00  0.00     0.147 A 
HETATM    7  C5  UNL     1      30.222  40.892   5.206  1.00  0.00     0.172 A 
HETATM    8  N7  UNL     1      30.340  42.235   4.774  1.00  0.00    -0.078 NA
HETATM    9  N8  UNL     1      30.656  40.518   6.407  1.00  0.00    -0.219 N 
ENDROOT
BRANCH   9  10
HETATM   10  N9  UNL     1      31.252  41.347   7.350  1.00  0.00    -0.301 N 
ATOM     11  H9  UNL     1      32.263  41.268   7.452  1.00  0.00     0.186 HD
BRANCH  10  12
HETATM   12  C6  UNL     1      30.604  42.283   8.177  1.00  0.00     0.121 C 
BRANCH  12  13
HETATM   13  C7  UNL     1      29.569  41.743   9.095  1.00  0.00     0.005 A 
HETATM   14  C8  UNL     1      28.233  42.005   9.007  1.00  0.00     0.015 A 
HETATM   15  C9  UNL     1      27.288  41.481   9.888  1.00  0.00     0.001 A 
HETATM   16  C10 UNL     1      27.745  40.661  10.888  1.00  0.00     0.002 A 
HETATM   17  C11 UNL     1      29.086  40.371  11.013  1.00  0.00     0.027 A 
HETATM   18  C12 UNL     1      29.982  40.895  10.140  1.00  0.00     0.058 A 
HETATM   19  N10 UNL     1      31.381  40.602  10.257  1.00  0.00    -0.102 NA
ENDBRANCH  12  13
ENDBRANCH  10  12
ENDBRANCH   9  10
BRANCH   1  20
HETATM   20  N2  UNL     1      30.879  38.755   7.847  1.00  0.00    -0.288 N 
ATOM     21  H2  UNL     1      30.315  39.002   8.660  1.00  0.00     0.188 HD
BRANCH  20  22
HETATM   22  N1  UNL     1      31.994  37.985   8.068  1.00  0.00    -0.343 N 
ATOM     23  H12 UNL     1      32.757  38.101   7.402  1.00  0.00     0.176 HD
ATOM     24  H11 UNL     1      32.116  37.320   8.831  1.00  0.00     0.176 HD
ENDBRANCH  20  22
ENDBRANCH   1  20
BRANCH   6  25
HETATM   25  C4  UNL     1      29.171  40.502   2.982  1.00  0.00     0.289 C 
HETATM   26  O1  UNL     1      28.190  39.916   2.458  1.00  0.00    -0.264 OA
HETATM   27  N5  UNL     1      29.790  41.569   2.320  1.00  0.00    -0.271 N 
ATOM     28  H5  UNL     1      30.585  42.043   2.750  1.00  0.00     0.189 HD
BRANCH  27  29
HETATM   29  N6  UNL     1      29.321  41.984   1.080  1.00  0.00    -0.342 N 
ATOM     30  H62 UNL     1      28.642  42.744   1.037  1.00  0.00     0.176 HD
ATOM     31  H61 UNL     1      29.657  41.532   0.229  1.00  0.00     0.176 HD
ENDBRANCH  27  29
ENDBRANCH   6  25
TORSDOF 7
ENDMDL
MODEL 2
REMARK VINA RESULT: -6.792445523      1.972      3.435
REMARK  7 active torsions:
REMARK  status: ('A' for Active; 'I' for Inactive)
REMARK    1  A    between atoms: N1_1  and  N2_4 
REMARK    2  A    between atoms: N2_4  and  C1_6 
REMARK    3  A    between atoms: C3_11  and  C4_12 
REMARK       I    between atoms: C4_12  and  N5_14 
REMARK    4  A    between atoms: N5_14  and  N6_16 
REMARK    5  A    between atoms: N8_21  and  N9_22 
REMARK    6  A    between atoms: N9_22  and  C6_24 
REMARK    7  A    between atoms: C6_24  and  C7_25 
ROOT
HETATM    1  C1  UNL     1      29.718  41.575   6.486  1.00  0.00     0.184 A 
HETATM    2  C2  UNL     1      29.662  42.499   5.491  1.00  0.00     0.164 A 
HETATM    3  N3  UNL     1      29.772  43.900   5.768  1.00  0.00    -0.078 NA
HETATM    4  N4  UNL     1      29.501  42.043   4.236  1.00  0.00    -0.334 N 
ATOM      5  H4  UNL     1      29.455  42.710   3.466  1.00  0.00     0.167 HD
HETATM    6  C3  UNL     1      29.399  40.730   3.974  1.00  0.00     0.147 A 
HETATM    7  C5  UNL     1      29.463  39.844   5.034  1.00  0.00     0.172 A 
HETATM    8  N7  UNL     1      29.350  38.475   4.694  1.00  0.00    -0.078 NA
HETATM    9  N8  UNL     1      29.622  40.225   6.299  1.00  0.00    -0.219 N 
ENDROOT
BRANCH   9  10
HETATM   10  N9  UNL     1      29.693  39.379   7.399  1.00  0.00    -0.301 N 
ATOM     11  H9  UNL     1      28.810  39.137   7.847  1.00  0.00     0.186 HD
BRANCH  10  12
HETATM   12  C6  UNL     1      30.858  38.823   7.958  1.00  0.00     0.121 C 
BRANCH  12  13
HETATM   13  C7  UNL     1      30.982  38.907   9.436  1.00  0.00     0.005 A 
HETATM   14  C8  UNL     1      30.230  39.714  10.239  1.00  0.00     0.015 A 
HETATM   15  C9  UNL     1      30.375  39.768  11.625  1.00  0.00     0.001 A 
HETATM   16  C10 UNL     1      31.328  38.961  12.191  1.00  0.00     0.002 A 
HETATM   17  C11 UNL     1      32.109  38.131  11.417  1.00  0.00     0.027 A 
HETATM   18  C12 UNL     1      31.945  38.099  10.070  1.00  0.00     0.058 A 
HETATM   19  N10 UNL     1      32.751  37.241   9.252  1.00  0.00    -0.102 NA
ENDBRANCH  12  13
ENDBRANCH  10  12
ENDBRANCH   9  10
BRANCH   1  20
HETATM   20  N2  UNL     1      29.873  42.022   7.691  1.00  0.00    -0.288 N 
ATOM     21  H2  UNL     1      29.080  41.934   8.326  1.00  0.00     0.188 HD
BRANCH  20  22
HETATM   22  N1  UNL     1      31.011  42.606   8.189  1.00  0.00    -0.343 N 
ATOM     23  H12 UNL     1      31.879  42.090   8.044  1.00  0.00     0.176 HD
ATOM     24  H11 UNL     1      31.056  43.497   8.682  1.00  0.00     0.176 HD
ENDBRANCH  20  22
ENDBRANCH   1  20
BRANCH   6  25
HETATM   25  C4  UNL     1      29.222  40.243   2.587  1.00  0.00     0.289 C 
HETATM   26  O1  UNL     1      30.155  40.447   1.771  1.00  0.00    -0.264 OA
HETATM   27  N5  UNL     1      28.061  39.576   2.178  1.00  0.00    -0.271 N 
ATOM     28  H5  UNL     1      27.306  39.411   2.844  1.00  0.00     0.189 HD
BRANCH  27  29
HETATM   29  N6  UNL     1      27.938  39.136   0.866  1.00  0.00    -0.342 N 
ATOM     30  H62 UNL     1      27.282  39.611   0.246  1.00  0.00     0.176 HD
ATOM     31  H61 UNL     1      28.498  38.351   0.535  1.00  0.00     0.176 HD
ENDBRANCH  27  29
ENDBRANCH   6  25
TORSDOF 7
ENDMDL
MODEL 3
REMARK VINA RESULT: -6.626483246      0.908      1.163
REMARK  7 active torsions:
REMARK  status: ('A' for Active; 'I' for Inactive)
REMARK    1  A    between atoms: N1_1  and  N2_4 
REMARK    2  A    between atoms: N2_4  and  C1_6 
REMARK    3  A    between atoms: C3_11  and  C4_12 
REMARK       I    between atoms: C4_12  and  N5_14 
REMARK    4  A    between atoms: N5_14  and  N6_16 
REMARK    5  A    between atoms: N8_21  and  N9_22 
REMARK    6  A    between atoms: N9_22  and  C6_24 
REMARK    7  A    between atoms: C6_24  and  C7_25 
ROOT
HETATM    1  C1  UNL     1      30.670  39.435   6.256  1.00  0.00     0.184 A 
HETATM    2  C2  UNL     1      30.008  38.503   5.522  1.00  0.00     0.164 A 
HETATM    3  N3  UNL     1      29.850  37.159   5.992  1.00  0.00    -0.078 NA
HETATM    4  N4  UNL     1      29.506  38.893   4.337  1.00  0.00    -0.334 N 
ATOM      5  H4  UNL     1      29.003  38.218   3.762  1.00  0.00     0.167 HD
HETATM    6  C3  UNL     1      29.652  40.153   3.894  1.00  0.00     0.147 A 
HETATM    7  C5  UNL     1      30.339  41.051   4.691  1.00  0.00     0.172 A 
HETATM    8  N7  UNL     1      30.460  42.362   4.171  1.00  0.00    -0.078 NA
HETATM    9  N8  UNL     1      30.860  40.733   5.873  1.00  0.00    -0.219 N 
ENDROOT
BRANCH   9  10
HETATM   10  N9  UNL     1      31.556  41.594   6.712  1.00  0.00    -0.301 N 
ATOM     11  H9  UNL     1      32.509  41.322   6.957  1.00  0.00     0.186 HD
BRANCH  10  12
HETATM   12  C6  UNL     1      31.084  42.801   7.259  1.00  0.00     0.121 C 
BRANCH  12  13
HETATM   13  C7  UNL     1      29.813  42.723   8.022  1.00  0.00     0.005 A 
HETATM   14  C8  UNL     1      28.645  43.328   7.660  1.00  0.00     0.015 A 
HETATM   15  C9  UNL     1      27.468  43.235   8.402  1.00  0.00     0.001 A 
HETATM   16  C10 UNL     1      27.507  42.491   9.554  1.00  0.00     0.002 A 
HETATM   17  C11 UNL     1      28.665  41.863   9.957  1.00  0.00     0.027 A 
HETATM   18  C12 UNL     1      29.795  41.972   9.213  1.00  0.00     0.058 A 
HETATM   19  N10 UNL     1      31.008  41.324   9.620  1.00  0.00    -0.102 NA
ENDBRANCH  12  13
ENDBRANCH  10  12
ENDBRANCH   9  10
BRANCH   1  20
HETATM   20  N2  UNL     1      31.151  39.049   7.395  1.00  0.00    -0.288 N 
ATOM     21  H2  UNL     1      32.164  39.077   7.506  1.00  0.00     0.188 HD
BRANCH  20  22
HETATM   22  N1  UNL     1      30.415  38.607   8.466  1.00  0.00    -0.343 N 
ATOM     23  H12 UNL     1      29.899  37.738   8.327  1.00  0.00     0.176 HD
ATOM     24  H11 UNL     1      30.345  39.070   9.372  1.00  0.00     0.176 HD
ENDBRANCH  20  22
ENDBRANCH   1  20
BRANCH   6  25
HETATM   25  C4  UNL     1      29.095  40.569   2.588  1.00  0.00     0.289 C 
HETATM   26  O1  UNL     1      28.099  39.941   2.150  1.00  0.00    -0.264 OA
HETATM   27  N5  UNL     1      29.644  41.624   1.849  1.00  0.00    -0.271 N 
ATOM     28  H5  UNL     1      30.452  42.132   2.209  1.00  0.00     0.189 HD
BRANCH  27  29
HETATM   29  N6  UNL     1      29.088  41.980   0.627  1.00  0.00    -0.342 N 
ATOM     30  H62 UNL     1      28.498  42.810   0.575  1.00  0.00     0.176 HD
ATOM     31  H61 UNL     1      29.272  41.415  -0.203  1.00  0.00     0.176 HD
ENDBRANCH  27  29
ENDBRANCH   6  25
TORSDOF 7
ENDMDL
MODEL 4
REMARK VINA RESULT: -6.582874858      2.111      2.910
REMARK  7 active torsions:
REMARK  status: ('A' for Active; 'I' for Inactive)
REMARK    1  A    between atoms: N1_1  and  N2_4 
REMARK    2  A    between atoms: N2_4  and  C1_6 
REMARK    3  A    between atoms: C3_11  and  C4_12 
REMARK       I    between atoms: C4_12  and  N5_14 
REMARK    4  A    between atoms: N5_14  and  N6_16 
REMARK    5  A    between atoms: N8_21  and  N9_22 
REMARK    6  A    between atoms: N9_22  and  C6_24 
REMARK    7  A    between atoms: C6_24  and  C7_25 
ROOT
HETATM    1  C1  UNL     1      30.734  39.316   6.464  1.00  0.00     0.184 A 
HETATM    2  C2  UNL     1      29.995  38.387   5.803  1.00  0.00     0.164 A 
HETATM    3  N3  UNL     1      29.804  37.070   6.334  1.00  0.00    -0.078 NA
HETATM    4  N4  UNL     1      29.448  38.754   4.630  1.00  0.00    -0.334 N 
ATOM      5  H4  UNL     1      28.888  38.081   4.109  1.00  0.00     0.167 HD
HETATM    6  C3  UNL     1      29.625  39.988   4.130  1.00  0.00     0.147 A 
HETATM    7  C5  UNL     1      30.391  40.884   4.855  1.00  0.00     0.172 A 
HETATM    8  N7  UNL     1      30.540  42.168   4.276  1.00  0.00    -0.078 NA
HETATM    9  N8  UNL     1      30.959  40.588   6.021  1.00  0.00    -0.219 N 
ENDROOT
BRANCH   9  10
HETATM   10  N9  UNL     1      31.734  41.448   6.787  1.00  0.00    -0.301 N 
ATOM     11  H9  UNL     1      32.745  41.314   6.743  1.00  0.00     0.186 HD
BRANCH  10  12
HETATM   12  C6  UNL     1      31.271  42.485   7.618  1.00  0.00     0.121 C 
BRANCH  12  13
HETATM   13  C7  UNL     1      32.293  43.159   8.460  1.00  0.00     0.005 A 
HETATM   14  C8  UNL     1      32.777  44.416   8.244  1.00  0.00     0.015 A 
HETATM   15  C9  UNL     1      33.738  45.018   9.055  1.00  0.00     0.001 A 
HETATM   16  C10 UNL     1      34.208  44.293  10.121  1.00  0.00     0.002 A 
HETATM   17  C11 UNL     1      33.745  43.020  10.375  1.00  0.00     0.027 A 
HETATM   18  C12 UNL     1      32.809  42.461   9.568  1.00  0.00     0.058 A 
HETATM   19  N10 UNL     1      32.318  41.137   9.819  1.00  0.00    -0.102 NA
ENDBRANCH  12  13
ENDBRANCH  10  12
ENDBRANCH   9  10
BRANCH   1  20
HETATM   20  N2  UNL     1      31.257  38.952   7.592  1.00  0.00    -0.288 N 
ATOM     21  H2  UNL     1      32.259  38.767   7.601  1.00  0.00     0.188 HD
BRANCH  20  22
HETATM   22  N1  UNL     1      30.579  38.796   8.775  1.00  0.00    -0.343 N 
ATOM     23  H12 UNL     1      31.154  38.683   9.609  1.00  0.00     0.176 HD
ATOM     24  H11 UNL     1      29.565  38.784   8.883  1.00  0.00     0.176 HD
ENDBRANCH  20  22
ENDBRANCH   1  20
BRANCH   6  25
HETATM   25  C4  UNL     1      29.018  40.379   2.838  1.00  0.00     0.289 C 
HETATM   26  O1  UNL     1      27.978  39.776   2.474  1.00  0.00    -0.264 OA
HETATM   27  N5  UNL     1      29.568  41.384   2.034  1.00  0.00    -0.271 N 
ATOM     28  H5  UNL     1      30.412  41.872   2.334  1.00  0.00     0.189 HD
BRANCH  27  29
HETATM   29  N6  UNL     1      28.965  41.718   0.828  1.00  0.00    -0.342 N 
ATOM     30  H62 UNL     1      29.222  42.593   0.372  1.00  0.00     0.176 HD
ATOM     31  H61 UNL     1      28.276  41.092   0.410  1.00  0.00     0.176 HD
ENDBRANCH  27  29
ENDBRANCH   6  25
TORSDOF 7
ENDMDL
MODEL 5
REMARK VINA RESULT: -6.577133212      1.456      1.584
REMARK  7 active torsions:
REMARK  status: ('A' for Active; 'I' for Inactive)
REMARK    1  A    between atoms: N1_1  and  N2_4 
REMARK    2  A    between atoms: N2_4  and  C1_6 
REMARK    3  A    between atoms: C3_11  and  C4_12 
REMARK       I    between atoms: C4_12  and  N5_14 
REMARK    4  A    between atoms: N5_14  and  N6_16 
REMARK    5  A    between atoms: N8_21  and  N9_22 
REMARK    6  A    between atoms: N9_22  and  C6_24 
REMARK    7  A    between atoms: C6_24  and  C7_25 
ROOT
HETATM    1  C1  UNL     1      30.551  39.694   6.262  1.00  0.00     0.184 A 
HETATM    2  C2  UNL     1      29.801  39.279   5.207  1.00  0.00     0.164 A 
HETATM    3  N3  UNL     1      29.464  37.898   5.029  1.00  0.00    -0.078 NA
HETATM    4  N4  UNL     1      29.387  40.218   4.338  1.00  0.00    -0.334 N 
ATOM      5  H4  UNL     1      28.823  39.940   3.536  1.00  0.00     0.167 HD
HETATM    6  C3  UNL     1      29.700  41.513   4.503  1.00  0.00     0.147 A 
HETATM    7  C5  UNL     1      30.468  41.866   5.599  1.00  0.00     0.172 A 
HETATM    8  N7  UNL     1      30.765  43.245   5.718  1.00  0.00    -0.078 NA
HETATM    9  N8  UNL     1      30.910  40.990   6.497  1.00  0.00    -0.219 N 
ENDROOT
BRANCH   9  10
HETATM   10  N9  UNL     1      31.681  41.290   7.612  1.00  0.00    -0.301 N 
ATOM     11  H9  UNL     1      32.640  40.941   7.613  1.00  0.00     0.186 HD
BRANCH  10  12
HETATM   12  C6  UNL     1      31.278  42.026   8.741  1.00  0.00     0.121 C 
BRANCH  12  13
HETATM   13  C7  UNL     1      29.871  41.840   9.179  1.00  0.00     0.005 A 
HETATM   14  C8  UNL     1      28.849  42.704   8.913  1.00  0.00     0.015 A 
HETATM   15  C9  UNL     1      27.538  42.497   9.341  1.00  0.00     0.001 A 
HETATM   16  C10 UNL     1      27.283  41.361  10.065  1.00  0.00     0.002 A 
HETATM   17  C11 UNL     1      28.286  40.462  10.356  1.00  0.00     0.027 A 
HETATM   18  C12 UNL     1      29.552  40.690   9.926  1.00  0.00     0.058 A 
HETATM   19  N10 UNL     1      30.607  39.764  10.221  1.00  0.00    -0.102 NA
ENDBRANCH  12  13
ENDBRANCH  10  12
ENDBRANCH   9  10
BRANCH   1  20
HETATM   20  N2  UNL     1      30.945  38.782   7.093  1.00  0.00    -0.288 N 
ATOM     21  H2  UNL     1      31.951  38.648   7.193  1.00  0.00     0.188 HD
BRANCH  20  22
HETATM   22  N1  UNL     1      30.128  37.981   7.850  1.00  0.00    -0.343 N 
ATOM     23  H12 UNL     1      29.925  37.058   7.468  1.00  0.00     0.176 HD
ATOM     24  H11 UNL     1      29.716  38.232   8.749  1.00  0.00     0.176 HD
ENDBRANCH  20  22
ENDBRANCH   1  20
BRANCH   6  25
HETATM   25  C4  UNL     1      29.238  42.536   3.538  1.00  0.00     0.289 C 
HETATM   26  O1  UNL     1      29.719  42.506   2.378  1.00  0.00    -0.264 OA
HETATM   27  N5  UNL     1      28.297  43.513   3.886  1.00  0.00    -0.271 N 
ATOM     28  H5  UNL     1      27.908  43.533   4.829  1.00  0.00     0.189 HD
BRANCH  27  29
HETATM   29  N6  UNL     1      27.892  44.454   2.948  1.00  0.00    -0.342 N 
ATOM     30  H62 UNL     1      27.100  44.239   2.343  1.00  0.00     0.176 HD
ATOM     31  H61 UNL     1      28.384  45.344   2.872  1.00  0.00     0.176 HD
ENDBRANCH  27  29
ENDBRANCH   6  25
TORSDOF 7
ENDMDL
