MODEL 1
REMARK VINA RESULT: -7.734691999      0.000      0.000
REMARK  6 active torsions:
REMARK  status: ('A' for Active; 'I' for Inactive)
REMARK    1  A    between atoms: N1_1  and  O1_4 
REMARK    2  A    between atoms: O1_4  and  C1_5 
REMARK       I    between atoms: C1_5  and  N2_7 
REMARK    3  A    between atoms: N2_7  and  N3_9 
REMARK       I    between atoms: N3_9  and  C2_11 
REMARK    4  A    between atoms: C2_11  and  C3_13 
REMARK    5  A    between atoms: C7_21  and  N6_22 
REMARK       I    between atoms: N6_22  and  C8_24 
REMARK    6  A    between atoms: C8_24  and  C9_26 
ROOT
HETATM    1  C3  UNL     1      30.517  38.804   7.167  1.00  0.00     0.134 A 
HETATM    2  N4  UNL     1      31.472  37.944   7.562  1.00  0.00    -0.317 N 
ATOM      3  H4  UNL     1      31.834  37.244   6.914  1.00  0.00     0.169 HD
HETATM    4  C4  UNL     1      31.945  38.014   8.813  1.00  0.00     0.247 A 
HETATM    5  O4  UNL     1      32.850  37.198   9.182  1.00  0.00    -0.268 OA
HETATM    6  C5  UNL     1      31.497  38.936   9.734  1.00  0.00     0.103 A 
HETATM    7  C6  UNL     1      30.526  39.821   9.353  1.00  0.00     0.081 A 
HETATM    8  N5  UNL     1      30.037  40.794  10.285  1.00  0.00    -0.100 NA
HETATM    9  C7  UNL     1      30.015  39.768   8.049  1.00  0.00     0.092 A 
ENDROOT
BRANCH   1  10
HETATM   10  C2  UNL     1      29.996  38.715   5.824  1.00  0.00     0.289 C 
HETATM   11  N3  UNL     1      30.108  39.747   4.870  1.00  0.00    -0.260 N 
ATOM     12  H3  UNL     1      30.582  40.611   5.133  1.00  0.00     0.190 HD
HETATM   13  O3  UNL     1      29.403  37.667   5.463  1.00  0.00    -0.264 OA
BRANCH  11  14
HETATM   14  N2  UNL     1      29.593  39.627   3.579  1.00  0.00    -0.241 N 
HETATM   15  C1  UNL     1      29.379  40.764   2.758  1.00  0.00     0.401 C 
HETATM   16  O2  UNL     1      29.642  41.934   3.149  1.00  0.00    -0.235 OA
ATOM     17  H2  UNL     1      29.365  38.701   3.218  1.00  0.00     0.192 HD
BRANCH  15  18
HETATM   18  O1  UNL     1      28.870  40.625   1.488  1.00  0.00    -0.187 OA
BRANCH  18  19
HETATM   19  N1  UNL     1      28.203  39.491   1.086  1.00  0.00    -0.301 N 
ATOM     20  H12 UNL     1      27.406  39.184   1.643  1.00  0.00     0.184 HD
ATOM     21  H11 UNL     1      28.481  38.962   0.259  1.00  0.00     0.184 HD
ENDBRANCH  18  19
ENDBRANCH  15  18
ENDBRANCH  11  14
ENDBRANCH   1  10
BRANCH   9  22
HETATM   22  N6  UNL     1      29.023  40.711   7.693  1.00  0.00    -0.317 N 
HETATM   23  C8  UNL     1      29.398  41.920   7.071  1.00  0.00     0.292 C 
HETATM   24  O5  UNL     1      30.614  42.135   6.844  1.00  0.00    -0.264 OA
ATOM     25  H6  UNL     1      28.040  40.518   7.886  1.00  0.00     0.169 HD
BRANCH  23  26
HETATM   26  C9  UNL     1      28.399  42.929   6.684  1.00  0.00     0.200 A 
HETATM   27  N7  UNL     1      27.980  43.196   5.435  1.00  0.00    -0.266 N 
HETATM   28  N8  UNL     1      27.074  44.173   5.504  1.00  0.00    -0.007 NA
ATOM     29  H7  UNL     1      28.299  42.732   4.584  1.00  0.00     0.185 HD
HETATM   30  N9  UNL     1      26.899  44.542   6.760  1.00  0.00    -0.007 NA
HETATM   31  N10 UNL     1      27.715  43.775   7.472  1.00  0.00    -0.266 N 
ATOM     32  H10 UNL     1      27.811  43.821   8.486  1.00  0.00     0.185 HD
ENDBRANCH  23  26
ENDBRANCH   9  22
TORSDOF 6
ENDMDL
MODEL 2
REMARK VINA RESULT: -7.332556074      2.510      5.338
REMARK  6 active torsions:
REMARK  status: ('A' for Active; 'I' for Inactive)
REMARK    1  A    between atoms: N1_1  and  O1_4 
REMARK    2  A    between atoms: O1_4  and  C1_5 
REMARK       I    between atoms: C1_5  and  N2_7 
REMARK    3  A    between atoms: N2_7  and  N3_9 
REMARK       I    between atoms: N3_9  and  C2_11 
REMARK    4  A    between atoms: C2_11  and  C3_13 
REMARK    5  A    between atoms: C7_21  and  N6_22 
REMARK       I    between atoms: N6_22  and  C8_24 
REMARK    6  A    between atoms: C8_24  and  C9_26 
ROOT
HETATM    1  C3  UNL     1      30.971  42.613   6.655  1.00  0.00     0.134 A 
HETATM    2  N4  UNL     1      30.635  43.883   6.366  1.00  0.00    -0.317 N 
ATOM      3  H4  UNL     1      30.005  44.084   5.590  1.00  0.00     0.169 HD
HETATM    4  C4  UNL     1      31.132  44.881   7.107  1.00  0.00     0.247 A 
HETATM    5  O4  UNL     1      30.811  46.081   6.830  1.00  0.00    -0.268 OA
HETATM    6  C5  UNL     1      31.988  44.674   8.168  1.00  0.00     0.103 A 
HETATM    7  C6  UNL     1      32.343  43.390   8.479  1.00  0.00     0.081 A 
HETATM    8  N5  UNL     1      33.230  43.138   9.577  1.00  0.00    -0.100 NA
HETATM    9  C7  UNL     1      31.835  42.328   7.719  1.00  0.00     0.092 A 
ENDROOT
BRANCH   1  10
HETATM   10  C2  UNL     1      30.448  41.540   5.845  1.00  0.00     0.289 C 
HETATM   11  N3  UNL     1      30.829  41.311   4.507  1.00  0.00    -0.260 N 
ATOM     12  H3  UNL     1      31.513  41.933   4.076  1.00  0.00     0.190 HD
HETATM   13  O3  UNL     1      29.600  40.754   6.339  1.00  0.00    -0.264 OA
BRANCH  11  14
HETATM   14  N2  UNL     1      30.302  40.263   3.752  1.00  0.00    -0.241 N 
HETATM   15  C1  UNL     1      29.840  40.464   2.426  1.00  0.00     0.401 C 
HETATM   16  O2  UNL     1      29.881  41.593   1.864  1.00  0.00    -0.235 OA
ATOM     17  H2  UNL     1      30.248  39.331   4.163  1.00  0.00     0.192 HD
BRANCH  15  18
HETATM   18  O1  UNL     1      29.323  39.418   1.697  1.00  0.00    -0.187 OA
BRANCH  18  19
HETATM   19  N1  UNL     1      28.112  39.503   1.051  1.00  0.00    -0.301 N 
ATOM     20  H12 UNL     1      27.510  38.680   1.054  1.00  0.00     0.184 HD
ATOM     21  H11 UNL     1      27.808  40.354   0.577  1.00  0.00     0.184 HD
ENDBRANCH  18  19
ENDBRANCH  15  18
ENDBRANCH  11  14
ENDBRANCH   1  10
BRANCH   9  22
HETATM   22  N6  UNL     1      32.216  41.016   8.085  1.00  0.00    -0.317 N 
HETATM   23  C8  UNL     1      31.482  40.324   9.071  1.00  0.00     0.292 C 
HETATM   24  O5  UNL     1      30.498  40.890   9.606  1.00  0.00    -0.264 OA
ATOM     25  H6  UNL     1      33.019  40.573   7.638  1.00  0.00     0.169 HD
BRANCH  23  26
HETATM   26  C9  UNL     1      31.843  38.958   9.482  1.00  0.00     0.200 A 
HETATM   27  N7  UNL     1      31.805  38.466  10.732  1.00  0.00    -0.266 N 
HETATM   28  N8  UNL     1      32.208  37.195  10.688  1.00  0.00    -0.007 NA
ATOM     29  H7  UNL     1      31.518  38.976  11.568  1.00  0.00     0.185 HD
HETATM   30  N9  UNL     1      32.505  36.856   9.446  1.00  0.00    -0.007 NA
HETATM   31  N10 UNL     1      32.279  37.942   8.718  1.00  0.00    -0.266 N 
ATOM     32  H10 UNL     1      32.417  37.998   7.709  1.00  0.00     0.185 HD
ENDBRANCH  23  26
ENDBRANCH   9  22
TORSDOF 6
ENDMDL
MODEL 3
REMARK VINA RESULT: -7.134729736      1.632      5.698
REMARK  6 active torsions:
REMARK  status: ('A' for Active; 'I' for Inactive)
REMARK    1  A    between atoms: N1_1  and  O1_4 
REMARK    2  A    between atoms: O1_4  and  C1_5 
REMARK       I    between atoms: C1_5  and  N2_7 
REMARK    3  A    between atoms: N2_7  and  N3_9 
REMARK       I    between atoms: N3_9  and  C2_11 
REMARK    4  A    between atoms: C2_11  and  C3_13 
REMARK    5  A    between atoms: C7_21  and  N6_22 
REMARK       I    between atoms: N6_22  and  C8_24 
REMARK    6  A    between atoms: C8_24  and  C9_26 
ROOT
HETATM    1  C3  UNL     1      29.824  39.900   5.003  1.00  0.00     0.134 A 
HETATM    2  N4  UNL     1      29.882  39.677   3.677  1.00  0.00    -0.317 N 
ATOM      3  H4  UNL     1      30.098  38.746   3.322  1.00  0.00     0.169 HD
HETATM    4  C4  UNL     1      29.653  40.687   2.829  1.00  0.00     0.247 A 
HETATM    5  O4  UNL     1      29.708  40.471   1.576  1.00  0.00    -0.268 OA
HETATM    6  C5  UNL     1      29.358  41.967   3.248  1.00  0.00     0.103 A 
HETATM    7  C6  UNL     1      29.295  42.216   4.591  1.00  0.00     0.081 A 
HETATM    8  N5  UNL     1      28.989  43.535   5.062  1.00  0.00    -0.100 NA
HETATM    9  C7  UNL     1      29.529  41.175   5.500  1.00  0.00     0.092 A 
ENDROOT
BRANCH   1  10
HETATM   10  C2  UNL     1      30.089  38.814   5.915  1.00  0.00     0.289 C 
HETATM   11  N3  UNL     1      31.233  38.740   6.734  1.00  0.00    -0.260 N 
ATOM     12  H3  UNL     1      31.921  39.491   6.688  1.00  0.00     0.190 HD
HETATM   13  O3  UNL     1      29.264  37.868   5.999  1.00  0.00    -0.264 OA
BRANCH  11  14
HETATM   14  N2  UNL     1      31.457  37.674   7.607  1.00  0.00    -0.241 N 
HETATM   15  C1  UNL     1      31.961  37.882   8.916  1.00  0.00     0.401 C 
HETATM   16  O2  UNL     1      32.231  39.032   9.358  1.00  0.00    -0.235 OA
ATOM     17  H2  UNL     1      31.253  36.724   7.296  1.00  0.00     0.192 HD
BRANCH  15  18
HETATM   18  O1  UNL     1      32.175  36.818   9.762  1.00  0.00    -0.187 OA
BRANCH  18  19
HETATM   19  N1  UNL     1      32.645  36.986  11.044  1.00  0.00    -0.301 N 
ATOM     20  H12 UNL     1      33.624  37.249  11.163  1.00  0.00     0.184 HD
ATOM     21  H11 UNL     1      32.050  36.856  11.862  1.00  0.00     0.184 HD
ENDBRANCH  18  19
ENDBRANCH  15  18
ENDBRANCH  11  14
ENDBRANCH   1  10
BRANCH   9  22
HETATM   22  N6  UNL     1      29.438  41.473   6.879  1.00  0.00    -0.317 N 
HETATM   23  C8  UNL     1      30.598  41.839   7.594  1.00  0.00     0.292 C 
HETATM   24  O5  UNL     1      31.695  41.892   6.986  1.00  0.00    -0.264 OA
ATOM     25  H6  UNL     1      28.537  41.424   7.355  1.00  0.00     0.169 HD
BRANCH  23  26
HETATM   26  C9  UNL     1      30.549  42.157   9.029  1.00  0.00     0.200 A 
HETATM   27  N7  UNL     1      30.312  41.291  10.029  1.00  0.00    -0.266 N 
HETATM   28  N8  UNL     1      30.350  41.967  11.179  1.00  0.00    -0.007 NA
ATOM     29  H7  UNL     1      30.134  40.292   9.927  1.00  0.00     0.185 HD
HETATM   30  N9  UNL     1      30.604  43.243  10.947  1.00  0.00    -0.007 NA
HETATM   31  N10 UNL     1      30.723  43.346   9.629  1.00  0.00    -0.266 N 
ATOM     32  H10 UNL     1      30.921  44.217   9.136  1.00  0.00     0.185 HD
ENDBRANCH  23  26
ENDBRANCH   9  22
TORSDOF 6
ENDMDL
MODEL 4
REMARK VINA RESULT: -6.948120935      1.201      1.202
REMARK  6 active torsions:
REMARK  status: ('A' for Active; 'I' for Inactive)
REMARK    1  A    between atoms: N1_1  and  O1_4 
REMARK    2  A    between atoms: O1_4  and  C1_5 
REMARK       I    between atoms: C1_5  and  N2_7 
REMARK    3  A    between atoms: N2_7  and  N3_9 
REMARK       I    between atoms: N3_9  and  C2_11 
REMARK    4  A    between atoms: C2_11  and  C3_13 
REMARK    5  A    between atoms: C7_21  and  N6_22 
REMARK       I    between atoms: N6_22  and  C8_24 
REMARK    6  A    between atoms: C8_24  and  C9_26 
ROOT
HETATM    1  C3  UNL     1      30.382  39.397   6.690  1.00  0.00     0.134 A 
HETATM    2  N4  UNL     1      31.109  38.371   7.170  1.00  0.00    -0.317 N 
ATOM      3  H4  UNL     1      31.499  37.676   6.534  1.00  0.00     0.169 HD
HETATM    4  C4  UNL     1      31.316  38.271   8.489  1.00  0.00     0.247 A 
HETATM    5  O4  UNL     1      32.004  37.299   8.938  1.00  0.00    -0.268 OA
HETATM    6  C5  UNL     1      30.814  39.177   9.398  1.00  0.00     0.103 A 
HETATM    7  C6  UNL     1      30.072  40.228   8.932  1.00  0.00     0.081 A 
HETATM    8  N5  UNL     1      29.536  41.190   9.850  1.00  0.00    -0.100 NA
HETATM    9  C7  UNL     1      29.842  40.356   7.555  1.00  0.00     0.092 A 
ENDROOT
BRANCH   1  10
HETATM   10  C2  UNL     1      30.145  39.493   5.270  1.00  0.00     0.289 C 
HETATM   11  N3  UNL     1      30.742  40.464   4.440  1.00  0.00    -0.260 N 
ATOM     12  H3  UNL     1      31.379  41.143   4.857  1.00  0.00     0.190 HD
HETATM   13  O3  UNL     1      29.365  38.674   4.720  1.00  0.00    -0.264 OA
BRANCH  11  14
HETATM   14  N2  UNL     1      30.491  40.528   3.069  1.00  0.00    -0.241 N 
HETATM   15  C1  UNL     1      29.379  41.240   2.552  1.00  0.00     0.401 C 
HETATM   16  O2  UNL     1      28.565  41.850   3.299  1.00  0.00    -0.235 OA
ATOM     17  H2  UNL     1      31.121  40.051   2.425  1.00  0.00     0.192 HD
BRANCH  15  18
HETATM   18  O1  UNL     1      29.148  41.292   1.197  1.00  0.00    -0.187 OA
BRANCH  18  19
HETATM   19  N1  UNL     1      29.236  42.464   0.483  1.00  0.00    -0.301 N 
ATOM     20  H12 UNL     1      30.056  43.052   0.631  1.00  0.00     0.184 HD
ATOM     21  H11 UNL     1      28.514  42.754  -0.177  1.00  0.00     0.184 HD
ENDBRANCH  18  19
ENDBRANCH  15  18
ENDBRANCH  11  14
ENDBRANCH   1  10
BRANCH   9  22
HETATM   22  N6  UNL     1      29.083  41.465   7.116  1.00  0.00    -0.317 N 
HETATM   23  C8  UNL     1      29.737  42.661   6.754  1.00  0.00     0.292 C 
HETATM   24  O5  UNL     1      30.989  42.716   6.830  1.00  0.00    -0.264 OA
ATOM     25  H6  UNL     1      28.066  41.400   7.061  1.00  0.00     0.169 HD
BRANCH  23  26
HETATM   26  C9  UNL     1      28.987  43.839   6.292  1.00  0.00     0.200 A 
HETATM   27  N7  UNL     1      28.474  44.024   5.063  1.00  0.00    -0.266 N 
HETATM   28  N8  UNL     1      27.870  45.213   5.043  1.00  0.00    -0.007 NA
ATOM     29  H7  UNL     1      28.535  43.369   4.283  1.00  0.00     0.185 HD
HETATM   30  N9  UNL     1      27.981  45.798   6.222  1.00  0.00    -0.007 NA
HETATM   31  N10 UNL     1      28.666  44.949   6.977  1.00  0.00    -0.266 N 
ATOM     32  H10 UNL     1      28.917  45.117   7.951  1.00  0.00     0.185 HD
ENDBRANCH  23  26
ENDBRANCH   9  22
TORSDOF 6
ENDMDL
MODEL 5
REMARK VINA RESULT: -6.790913727      1.051      1.051
REMARK  6 active torsions:
REMARK  status: ('A' for Active; 'I' for Inactive)
REMARK    1  A    between atoms: N1_1  and  O1_4 
REMARK    2  A    between atoms: O1_4  and  C1_5 
REMARK       I    between atoms: C1_5  and  N2_7 
REMARK    3  A    between atoms: N2_7  and  N3_9 
REMARK       I    between atoms: N3_9  and  C2_11 
REMARK    4  A    between atoms: C2_11  and  C3_13 
REMARK    5  A    between atoms: C7_21  and  N6_22 
REMARK       I    between atoms: N6_22  and  C8_24 
REMARK    6  A    between atoms: C8_24  and  C9_26 
ROOT
HETATM    1  C3  UNL     1      30.765  39.076   7.032  1.00  0.00     0.134 A 
HETATM    2  N4  UNL     1      31.175  37.974   7.687  1.00  0.00    -0.317 N 
ATOM      3  H4  UNL     1      31.032  37.051   7.279  1.00  0.00     0.169 HD
HETATM    4  C4  UNL     1      31.773  38.101   8.878  1.00  0.00     0.247 A 
HETATM    5  O4  UNL     1      32.160  37.056   9.494  1.00  0.00    -0.268 OA
HETATM    6  C5  UNL     1      31.994  39.321   9.481  1.00  0.00     0.103 A 
HETATM    7  C6  UNL     1      31.584  40.453   8.833  1.00  0.00     0.081 A 
HETATM    8  N5  UNL     1      31.799  41.739   9.430  1.00  0.00    -0.100 NA
HETATM    9  C7  UNL     1      30.957  40.348   7.584  1.00  0.00     0.092 A 
ENDROOT
BRANCH   1  10
HETATM   10  C2  UNL     1      30.105  38.935   5.757  1.00  0.00     0.289 C 
HETATM   11  N3  UNL     1      30.224  39.868   4.706  1.00  0.00    -0.260 N 
ATOM     12  H3  UNL     1      30.807  40.693   4.844  1.00  0.00     0.190 HD
HETATM   13  O3  UNL     1      29.375  37.932   5.549  1.00  0.00    -0.264 OA
BRANCH  11  14
HETATM   14  N2  UNL     1      29.572  39.700   3.484  1.00  0.00    -0.241 N 
HETATM   15  C1  UNL     1      29.413  40.778   2.576  1.00  0.00     0.401 C 
HETATM   16  O2  UNL     1      29.850  41.935   2.822  1.00  0.00    -0.235 OA
ATOM     17  H2  UNL     1      29.201  38.783   3.239  1.00  0.00     0.192 HD
BRANCH  15  18
HETATM   18  O1  UNL     1      28.767  40.593   1.375  1.00  0.00    -0.187 OA
BRANCH  18  19
HETATM   19  N1  UNL     1      28.160  39.404   1.046  1.00  0.00    -0.301 N 
ATOM     20  H12 UNL     1      27.422  39.423   0.341  1.00  0.00     0.184 HD
ATOM     21  H11 UNL     1      28.425  38.520   1.480  1.00  0.00     0.184 HD
ENDBRANCH  18  19
ENDBRANCH  15  18
ENDBRANCH  11  14
ENDBRANCH   1  10
BRANCH   9  22
HETATM   22  N6  UNL     1      30.564  41.544   6.942  1.00  0.00    -0.317 N 
HETATM   23  C8  UNL     1      29.276  42.072   7.175  1.00  0.00     0.292 C 
HETATM   24  O5  UNL     1      28.501  41.464   7.952  1.00  0.00    -0.264 OA
ATOM     25  H6  UNL     1      31.209  42.025   6.314  1.00  0.00     0.169 HD
BRANCH  23  26
HETATM   26  C9  UNL     1      28.826  43.315   6.528  1.00  0.00     0.200 A 
HETATM   27  N7  UNL     1      28.468  43.458   5.240  1.00  0.00    -0.266 N 
HETATM   28  N8  UNL     1      28.126  44.733   5.046  1.00  0.00    -0.007 NA
ATOM     29  H7  UNL     1      28.459  42.720   4.535  1.00  0.00     0.185 HD
HETATM   30  N9  UNL     1      28.255  45.414   6.171  1.00  0.00    -0.007 NA
HETATM   31  N10 UNL     1      28.684  44.536   7.069  1.00  0.00    -0.266 N 
ATOM     32  H10 UNL     1      28.880  44.760   8.045  1.00  0.00     0.185 HD
ENDBRANCH  23  26
ENDBRANCH   9  22
TORSDOF 6
ENDMDL
