MODEL 1
REMARK VINA RESULT: -6.578210343      0.000      0.000
REMARK  12 active torsions:
REMARK  status: ('A' for Active; 'I' for Inactive)
REMARK    1  A    between atoms: N1_1  and  N2_4 
REMARK    2  A    between atoms: N2_4  and  N3_5 
REMARK    3  A    between atoms: N3_5  and  C1_7 
REMARK    4  A    between atoms: C1_7  and  C2_8 
REMARK    5  A    between atoms: C2_8  and  C3_9 
REMARK    6  A    between atoms: C2_8  and  N7_19 
REMARK    7  A    between atoms: C4_10  and  N4_11 
REMARK    8  A    between atoms: C5_13  and  N5_14 
REMARK    9  A    between atoms: N5_14  and  N6_16 
REMARK   10  A    between atoms: C6_22  and  C7_23 
REMARK       I    between atoms: C7_23  and  N9_25 
REMARK   11  A    between atoms: N9_25  and  N10_27 
REMARK   12  A    between atoms: C9_31  and  N11_32 
ROOT
HETATM    1  N7  UNL     1      30.603  39.870   8.187  1.00  0.00    -0.257 N 
HETATM    2  N8  UNL     1      31.737  40.476   7.982  1.00  0.00    -0.289 N 
ATOM      3  H8  UNL     1      32.489  40.111   7.398  1.00  0.00     0.187 HD
HETATM    4  C6  UNL     1      31.788  41.663   8.650  1.00  0.00     0.135 A 
HETATM    5  C8  UNL     1      30.609  41.815   9.321  1.00  0.00     0.087 A 
HETATM    6  C9  UNL     1      30.046  42.761  10.151  1.00  0.00     0.116 A 
HETATM    7  N12 UNL     1      28.809  42.553  10.640  1.00  0.00    -0.338 N 
ATOM      8  H12 UNL     1      28.398  43.256  11.254  1.00  0.00     0.168 HD
HETATM    9  C10 UNL     1      28.097  41.451  10.347  1.00  0.00     0.183 A 
HETATM   10  N13 UNL     1      28.659  40.541   9.537  1.00  0.00    -0.336 N 
ATOM     11  H13 UNL     1      28.119  39.705   9.315  1.00  0.00     0.168 HD
HETATM   12  C11 UNL     1      29.877  40.654   9.002  1.00  0.00     0.141 A 
ENDROOT
BRANCH   1  13
HETATM   13  C2  UNL     1      30.157  38.590   7.658  1.00  0.00     0.210 C 
BRANCH  13  14
HETATM   14  C1  UNL     1      31.247  37.560   7.735  1.00  0.00     0.195 C 
BRANCH  14  15
HETATM   15  N3  UNL     1      32.267  37.879   8.683  1.00  0.00    -0.250 N 
ATOM     16  H3  UNL     1      32.834  38.720   8.575  1.00  0.00     0.197 HD
BRANCH  15  17
HETATM   17  N2  UNL     1      32.451  37.107   9.645  1.00  0.00    -0.248 NA
BRANCH  17  18
HETATM   18  N1  UNL     1      32.848  36.515  10.668  1.00  0.00    -0.261 N 
ATOM     19  H12 UNL     1      33.764  36.959  10.606  1.00  0.00     0.193 HD
ATOM     20  H11 UNL     1      32.957  35.940  11.503  1.00  0.00     0.193 HD
ENDBRANCH  17  18
ENDBRANCH  15  17
ENDBRANCH  14  15
ENDBRANCH  13  14
BRANCH  13  21
HETATM   21  C3  UNL     1      29.789  38.784   6.254  1.00  0.00    -0.054 C 
HETATM   22  C4  UNL     1      29.492  38.963   5.099  1.00  0.00     0.013 C 
BRANCH  22  23
HETATM   23  N4  UNL     1      29.153  39.197   3.741  1.00  0.00    -0.310 N 
HETATM   24  C5  UNL     1      29.631  40.206   3.097  1.00  0.00     0.205 C 
ATOM     25  H4  UNL     1      28.519  38.554   3.266  1.00  0.00     0.177 HD
BRANCH  24  26
HETATM   26  N5  UNL     1      29.236  40.359   1.745  1.00  0.00    -0.302 N 
ATOM     27  H5  UNL     1      29.602  41.122   1.176  1.00  0.00     0.187 HD
BRANCH  26  28
HETATM   28  N6  UNL     1      28.333  39.438   1.210  1.00  0.00    -0.344 N 
ATOM     29  H62 UNL     1      28.679  38.591   0.758  1.00  0.00     0.176 HD
ATOM     30  H61 UNL     1      27.335  39.637   1.285  1.00  0.00     0.176 HD
ENDBRANCH  26  28
ENDBRANCH  24  26
ENDBRANCH  22  23
ENDBRANCH  13  21
ENDBRANCH   1  13
BRANCH   4  31
HETATM   31  C7  UNL     1      32.921  42.579   8.626  1.00  0.00     0.288 C 
HETATM   32  O1  UNL     1      33.380  43.179   9.591  1.00  0.00    -0.264 OA
HETATM   33  N9  UNL     1      33.593  42.826   7.367  1.00  0.00    -0.271 N 
ATOM     34  H9  UNL     1      33.275  42.366   6.514  1.00  0.00     0.189 HD
BRANCH  33  35
HETATM   35  N10 UNL     1      34.658  43.685   7.332  1.00  0.00    -0.342 N 
ATOM     36 2H10 UNL     1      34.597  44.537   6.774  1.00  0.00     0.176 HD
ATOM     37 1H10 UNL     1      35.498  43.460   7.865  1.00  0.00     0.176 HD
ENDBRANCH  33  35
ENDBRANCH   4  31
BRANCH   6  38
HETATM   38  N11 UNL     1      30.679  43.825  10.461  1.00  0.00    -0.385 N 
ATOM     39 2H11 UNL     1      31.585  44.017  10.035  1.00  0.00     0.157 HD
ATOM     40 1H11 UNL     1      30.293  44.490  11.132  1.00  0.00     0.157 HD
ENDBRANCH   6  38
TORSDOF 12
ENDMDL
MODEL 2
REMARK VINA RESULT: -6.368053005      1.378      1.768
REMARK  12 active torsions:
REMARK  status: ('A' for Active; 'I' for Inactive)
REMARK    1  A    between atoms: N1_1  and  N2_4 
REMARK    2  A    between atoms: N2_4  and  N3_5 
REMARK    3  A    between atoms: N3_5  and  C1_7 
REMARK    4  A    between atoms: C1_7  and  C2_8 
REMARK    5  A    between atoms: C2_8  and  C3_9 
REMARK    6  A    between atoms: C2_8  and  N7_19 
REMARK    7  A    between atoms: C4_10  and  N4_11 
REMARK    8  A    between atoms: C5_13  and  N5_14 
REMARK    9  A    between atoms: N5_14  and  N6_16 
REMARK   10  A    between atoms: C6_22  and  C7_23 
REMARK       I    between atoms: C7_23  and  N9_25 
REMARK   11  A    between atoms: N9_25  and  N10_27 
REMARK   12  A    between atoms: C9_31  and  N11_32 
ROOT
HETATM    1  N7  UNL     1      29.955  40.471   6.944  1.00  0.00    -0.257 N 
HETATM    2  N8  UNL     1      31.013  41.187   6.696  1.00  0.00    -0.289 N 
ATOM      3  H8  UNL     1      31.606  41.074   5.874  1.00  0.00     0.187 HD
HETATM    4  C6  UNL     1      31.226  42.107   7.678  1.00  0.00     0.135 A 
HETATM    5  C8  UNL     1      30.237  41.962   8.607  1.00  0.00     0.087 A 
HETATM    6  C9  UNL     1      29.888  42.561   9.799  1.00  0.00     0.116 A 
HETATM    7  N12 UNL     1      28.798  42.127  10.459  1.00  0.00    -0.338 N 
ATOM      8  H12 UNL     1      28.546  42.574  11.340  1.00  0.00     0.168 HD
HETATM    9  C10 UNL     1      28.031  41.125   9.997  1.00  0.00     0.183 A 
HETATM   10  N13 UNL     1      28.383  40.553   8.836  1.00  0.00    -0.336 N 
ATOM     11  H13 UNL     1      27.801  39.792   8.485  1.00  0.00     0.168 HD
HETATM   12  C11 UNL     1      29.444  40.910   8.107  1.00  0.00     0.141 A 
ENDROOT
BRANCH   1  13
HETATM   13  C2  UNL     1      29.390  39.391   6.149  1.00  0.00     0.210 C 
BRANCH  13  14
HETATM   14  C1  UNL     1      30.194  38.131   6.293  1.00  0.00     0.195 C 
BRANCH  14  15
HETATM   15  N3  UNL     1      30.174  37.590   7.616  1.00  0.00    -0.250 N 
ATOM     16  H3  UNL     1      29.333  37.145   7.983  1.00  0.00     0.197 HD
BRANCH  15  17
HETATM   17  N2  UNL     1      31.206  37.673   8.311  1.00  0.00    -0.248 NA
BRANCH  17  18
HETATM   18  N1  UNL     1      32.347  37.875   8.770  1.00  0.00    -0.261 N 
ATOM     19  H12 UNL     1      32.498  38.656   8.133  1.00  0.00     0.193 HD
ATOM     20  H11 UNL     1      33.227  37.860   9.285  1.00  0.00     0.193 HD
ENDBRANCH  17  18
ENDBRANCH  15  17
ENDBRANCH  14  15
ENDBRANCH  13  14
BRANCH  13  21
HETATM   21  C3  UNL     1      29.410  39.806   4.745  1.00  0.00    -0.054 C 
HETATM   22  C4  UNL     1      29.425  40.167   3.594  1.00  0.00     0.013 C 
BRANCH  22  23
HETATM   23  N4  UNL     1      29.442  40.615   2.248  1.00  0.00    -0.310 N 
HETATM   24  C5  UNL     1      29.455  41.872   1.963  1.00  0.00     0.205 C 
ATOM     25  H4  UNL     1      29.443  39.930   1.492  1.00  0.00     0.177 HD
BRANCH  24  26
HETATM   26  N5  UNL     1      29.471  42.226   0.591  1.00  0.00    -0.302 N 
ATOM     27  H5  UNL     1      29.464  41.509  -0.135  1.00  0.00     0.187 HD
BRANCH  26  28
HETATM   28  N6  UNL     1      29.497  43.582   0.256  1.00  0.00    -0.344 N 
ATOM     29  H62 UNL     1      28.634  44.055  -0.011  1.00  0.00     0.176 HD
ATOM     30  H61 UNL     1      30.391  44.071   0.287  1.00  0.00     0.176 HD
ENDBRANCH  26  28
ENDBRANCH  24  26
ENDBRANCH  22  23
ENDBRANCH  13  21
ENDBRANCH   1  13
BRANCH   4  31
HETATM   31  C7  UNL     1      32.328  43.060   7.696  1.00  0.00     0.288 C 
HETATM   32  O1  UNL     1      32.238  44.257   7.941  1.00  0.00    -0.264 OA
HETATM   33  N9  UNL     1      33.665  42.587   7.402  1.00  0.00    -0.271 N 
ATOM     34  H9  UNL     1      33.828  41.604   7.188  1.00  0.00     0.189 HD
BRANCH  33  35
HETATM   35  N10 UNL     1      34.708  43.474   7.415  1.00  0.00    -0.342 N 
ATOM     36 2H10 UNL     1      34.542  44.445   7.151  1.00  0.00     0.176 HD
ATOM     37 1H10 UNL     1      35.635  43.150   7.688  1.00  0.00     0.176 HD
ENDBRANCH  33  35
ENDBRANCH   4  31
BRANCH   6  38
HETATM   38  N11 UNL     1      30.582  43.517  10.283  1.00  0.00    -0.385 N 
ATOM     39 2H11 UNL     1      31.198  44.054   9.673  1.00  0.00     0.157 HD
ATOM     40 1H11 UNL     1      30.532  43.754  11.274  1.00  0.00     0.157 HD
ENDBRANCH   6  38
TORSDOF 12
ENDMDL
MODEL 3
REMARK VINA RESULT: -6.157609357      3.200      5.620
REMARK  12 active torsions:
REMARK  status: ('A' for Active; 'I' for Inactive)
REMARK    1  A    between atoms: N1_1  and  N2_4 
REMARK    2  A    between atoms: N2_4  and  N3_5 
REMARK    3  A    between atoms: N3_5  and  C1_7 
REMARK    4  A    between atoms: C1_7  and  C2_8 
REMARK    5  A    between atoms: C2_8  and  C3_9 
REMARK    6  A    between atoms: C2_8  and  N7_19 
REMARK    7  A    between atoms: C4_10  and  N4_11 
REMARK    8  A    between atoms: C5_13  and  N5_14 
REMARK    9  A    between atoms: N5_14  and  N6_16 
REMARK   10  A    between atoms: C6_22  and  C7_23 
REMARK       I    between atoms: C7_23  and  N9_25 
REMARK   11  A    between atoms: N9_25  and  N10_27 
REMARK   12  A    between atoms: C9_31  and  N11_32 
ROOT
HETATM    1  N7  UNL     1      30.097  41.259   5.289  1.00  0.00    -0.257 N 
HETATM    2  N8  UNL     1      30.903  42.075   5.904  1.00  0.00    -0.289 N 
ATOM      3  H8  UNL     1      31.077  43.038   5.618  1.00  0.00     0.187 HD
HETATM    4  C6  UNL     1      31.485  41.475   6.981  1.00  0.00     0.135 A 
HETATM    5  C8  UNL     1      31.015  40.195   7.049  1.00  0.00     0.087 A 
HETATM    6  C9  UNL     1      31.201  39.104   7.870  1.00  0.00     0.116 A 
HETATM    7  N12 UNL     1      30.536  37.964   7.609  1.00  0.00    -0.338 N 
ATOM      8  H12 UNL     1      30.678  37.160   8.221  1.00  0.00     0.168 HD
HETATM    9  C10 UNL     1      29.690  37.847   6.571  1.00  0.00     0.183 A 
HETATM   10  N13 UNL     1      29.520  38.918   5.781  1.00  0.00    -0.336 N 
ATOM     11  H13 UNL     1      28.878  38.830   4.993  1.00  0.00     0.168 HD
HETATM   12  C11 UNL     1      30.133  40.092   5.955  1.00  0.00     0.141 A 
ENDROOT
BRANCH   1  13
HETATM   13  C2  UNL     1      29.290  41.510   4.105  1.00  0.00     0.210 C 
BRANCH  13  14
HETATM   14  C1  UNL     1      30.144  41.600   2.873  1.00  0.00     0.195 C 
BRANCH  14  15
HETATM   15  N3  UNL     1      29.393  41.590   1.657  1.00  0.00    -0.250 N 
ATOM     16  H3  UNL     1      29.360  42.415   1.060  1.00  0.00     0.197 HD
BRANCH  15  17
HETATM   17  N2  UNL     1      28.780  40.550   1.343  1.00  0.00    -0.248 NA
BRANCH  17  18
HETATM   18  N1  UNL     1      28.228  39.433   1.297  1.00  0.00    -0.261 N 
ATOM     19  H12 UNL     1      27.919  39.512   2.266  1.00  0.00     0.193 HD
ATOM     20  H11 UNL     1      27.855  38.520   1.038  1.00  0.00     0.193 HD
ENDBRANCH  17  18
ENDBRANCH  15  17
ENDBRANCH  14  15
ENDBRANCH  13  14
BRANCH  13  21
HETATM   21  C3  UNL     1      28.597  42.786   4.294  1.00  0.00    -0.054 C 
HETATM   22  C4  UNL     1      28.017  43.830   4.465  1.00  0.00     0.013 C 
BRANCH  22  23
HETATM   23  N4  UNL     1      27.323  45.047   4.686  1.00  0.00    -0.310 N 
HETATM   24  C5  UNL     1      26.530  45.191   5.692  1.00  0.00     0.205 C 
ATOM     25  H4  UNL     1      27.455  45.824   4.037  1.00  0.00     0.177 HD
BRANCH  24  26
HETATM   26  N5  UNL     1      25.881  46.443   5.833  1.00  0.00    -0.302 N 
ATOM     27  H5  UNL     1      26.331  47.213   6.328  1.00  0.00     0.187 HD
BRANCH  26  28
HETATM   28  N6  UNL     1      24.609  46.595   5.278  1.00  0.00    -0.344 N 
ATOM     29  H62 UNL     1      24.500  47.059   4.376  1.00  0.00     0.176 HD
ATOM     30  H61 UNL     1      23.807  46.235   5.796  1.00  0.00     0.176 HD
ENDBRANCH  26  28
ENDBRANCH  24  26
ENDBRANCH  22  23
ENDBRANCH  13  21
ENDBRANCH   1  13
BRANCH   4  31
HETATM   31  C7  UNL     1      32.436  42.121   7.876  1.00  0.00     0.288 C 
HETATM   32  O1  UNL     1      32.313  42.241   9.088  1.00  0.00    -0.264 OA
HETATM   33  N9  UNL     1      33.649  42.683   7.318  1.00  0.00    -0.271 N 
ATOM     34  H9  UNL     1      33.831  42.624   6.316  1.00  0.00     0.189 HD
BRANCH  33  35
HETATM   35  N10 UNL     1      34.550  43.292   8.149  1.00  0.00    -0.342 N 
ATOM     36 2H10 UNL     1      34.963  44.183   7.871  1.00  0.00     0.176 HD
ATOM     37 1H10 UNL     1      34.794  42.847   9.033  1.00  0.00     0.176 HD
ENDBRANCH  33  35
ENDBRANCH   4  31
BRANCH   6  38
HETATM   38  N11 UNL     1      31.993  39.160   8.870  1.00  0.00    -0.385 N 
ATOM     39 2H11 UNL     1      32.315  38.299   9.310  1.00  0.00     0.157 HD
ATOM     40 1H11 UNL     1      32.313  40.057   9.237  1.00  0.00     0.157 HD
ENDBRANCH   6  38
TORSDOF 12
ENDMDL
MODEL 4
REMARK VINA RESULT: -6.121770469      3.233      5.701
REMARK  12 active torsions:
REMARK  status: ('A' for Active; 'I' for Inactive)
REMARK    1  A    between atoms: N1_1  and  N2_4 
REMARK    2  A    between atoms: N2_4  and  N3_5 
REMARK    3  A    between atoms: N3_5  and  C1_7 
REMARK    4  A    between atoms: C1_7  and  C2_8 
REMARK    5  A    between atoms: C2_8  and  C3_9 
REMARK    6  A    between atoms: C2_8  and  N7_19 
REMARK    7  A    between atoms: C4_10  and  N4_11 
REMARK    8  A    between atoms: C5_13  and  N5_14 
REMARK    9  A    between atoms: N5_14  and  N6_16 
REMARK   10  A    between atoms: C6_22  and  C7_23 
REMARK       I    between atoms: C7_23  and  N9_25 
REMARK   11  A    between atoms: N9_25  and  N10_27 
REMARK   12  A    between atoms: C9_31  and  N11_32 
ROOT
HETATM    1  N7  UNL     1      30.098  41.074   5.369  1.00  0.00    -0.257 N 
HETATM    2  N8  UNL     1      30.894  41.930   5.942  1.00  0.00    -0.289 N 
ATOM      3  H8  UNL     1      31.058  42.879   5.605  1.00  0.00     0.187 HD
HETATM    4  C6  UNL     1      31.480  41.393   7.049  1.00  0.00     0.135 A 
HETATM    5  C8  UNL     1      31.024  40.114   7.183  1.00  0.00     0.087 A 
HETATM    6  C9  UNL     1      31.220  39.070   8.062  1.00  0.00     0.116 A 
HETATM    7  N12 UNL     1      30.567  37.910   7.860  1.00  0.00    -0.338 N 
ATOM      8  H12 UNL     1      30.716  37.142   8.513  1.00  0.00     0.168 HD
HETATM    9  C10 UNL     1      29.725  37.730   6.828  1.00  0.00     0.183 A 
HETATM   10  N13 UNL     1      29.545  38.756   5.982  1.00  0.00    -0.336 N 
ATOM     11  H13 UNL     1      28.906  38.620   5.199  1.00  0.00     0.168 HD
HETATM   12  C11 UNL     1      30.144  39.944   6.095  1.00  0.00     0.141 A 
ENDROOT
BRANCH   1  13
HETATM   13  C2  UNL     1      29.291  41.254   4.172  1.00  0.00     0.210 C 
BRANCH  13  14
HETATM   14  C1  UNL     1      30.115  41.081   2.928  1.00  0.00     0.195 C 
BRANCH  14  15
HETATM   15  N3  UNL     1      29.340  40.762   1.771  1.00  0.00    -0.250 N 
ATOM     16  H3  UNL     1      28.977  39.819   1.632  1.00  0.00     0.197 HD
BRANCH  15  17
HETATM   17  N2  UNL     1      29.117  41.660   0.936  1.00  0.00    -0.248 NA
BRANCH  17  18
HETATM   18  N1  UNL     1      29.142  42.663   0.195  1.00  0.00    -0.261 N 
ATOM     19  H12 UNL     1      29.826  43.126   0.794  1.00  0.00     0.193 HD
ATOM     20  H11 UNL     1      29.007  43.362  -0.535  1.00  0.00     0.193 HD
ENDBRANCH  17  18
ENDBRANCH  15  17
ENDBRANCH  14  15
ENDBRANCH  13  14
BRANCH  13  21
HETATM   21  C3  UNL     1      28.748  42.614   4.194  1.00  0.00    -0.054 C 
HETATM   22  C4  UNL     1      28.293  43.731   4.230  1.00  0.00     0.013 C 
BRANCH  22  23
HETATM   23  N4  UNL     1      27.749  45.039   4.296  1.00  0.00    -0.310 N 
HETATM   24  C5  UNL     1      27.001  45.403   5.280  1.00  0.00     0.205 C 
ATOM     25  H4  UNL     1      27.954  45.705   3.550  1.00  0.00     0.177 HD
BRANCH  24  26
HETATM   26  N5  UNL     1      26.502  46.730   5.261  1.00  0.00    -0.302 N 
ATOM     27  H5  UNL     1      25.715  47.001   5.849  1.00  0.00     0.187 HD
BRANCH  26  28
HETATM   28  N6  UNL     1      27.117  47.657   4.416  1.00  0.00    -0.344 N 
ATOM     29  H62 UNL     1      27.549  47.343   3.547  1.00  0.00     0.176 HD
ATOM     30  H61 UNL     1      27.120  48.638   4.694  1.00  0.00     0.176 HD
ENDBRANCH  26  28
ENDBRANCH  24  26
ENDBRANCH  22  23
ENDBRANCH  13  21
ENDBRANCH   1  13
BRANCH   4  31
HETATM   31  C7  UNL     1      32.422  42.095   7.910  1.00  0.00     0.288 C 
HETATM   32  O1  UNL     1      32.290  42.288   9.112  1.00  0.00    -0.264 OA
HETATM   33  N9  UNL     1      33.638  42.627   7.328  1.00  0.00    -0.271 N 
ATOM     34  H9  UNL     1      33.827  42.509   6.333  1.00  0.00     0.189 HD
BRANCH  33  35
HETATM   35  N10 UNL     1      34.530  43.289   8.127  1.00  0.00    -0.342 N 
ATOM     36 2H10 UNL     1      34.599  43.039   9.114  1.00  0.00     0.176 HD
ATOM     37 1H10 UNL     1      35.113  44.022   7.724  1.00  0.00     0.176 HD
ENDBRANCH  33  35
ENDBRANCH   4  31
BRANCH   6  38
HETATM   38  N11 UNL     1      32.009  39.187   9.058  1.00  0.00    -0.385 N 
ATOM     39 2H11 UNL     1      31.816  39.884   9.776  1.00  0.00     0.157 HD
ATOM     40 1H11 UNL     1      32.833  38.593   9.149  1.00  0.00     0.157 HD
ENDBRANCH   6  38
TORSDOF 12
ENDMDL
MODEL 5
REMARK VINA RESULT: -6.080824337      2.625      3.110
REMARK  12 active torsions:
REMARK  status: ('A' for Active; 'I' for Inactive)
REMARK    1  A    between atoms: N1_1  and  N2_4 
REMARK    2  A    between atoms: N2_4  and  N3_5 
REMARK    3  A    between atoms: N3_5  and  C1_7 
REMARK    4  A    between atoms: C1_7  and  C2_8 
REMARK    5  A    between atoms: C2_8  and  C3_9 
REMARK    6  A    between atoms: C2_8  and  N7_19 
REMARK    7  A    between atoms: C4_10  and  N4_11 
REMARK    8  A    between atoms: C5_13  and  N5_14 
REMARK    9  A    between atoms: N5_14  and  N6_16 
REMARK   10  A    between atoms: C6_22  and  C7_23 
REMARK       I    between atoms: C7_23  and  N9_25 
REMARK   11  A    between atoms: N9_25  and  N10_27 
REMARK   12  A    between atoms: C9_31  and  N11_32 
ROOT
HETATM    1  N7  UNL     1      29.590  39.912   8.721  1.00  0.00    -0.257 N 
HETATM    2  N8  UNL     1      28.802  40.816   8.214  1.00  0.00    -0.289 N 
ATOM      3  H8  UNL     1      28.539  40.864   7.230  1.00  0.00     0.187 HD
HETATM    4  C6  UNL     1      28.376  41.689   9.170  1.00  0.00     0.135 A 
HETATM    5  C8  UNL     1      28.932  41.312  10.357  1.00  0.00     0.087 A 
HETATM    6  C9  UNL     1      28.903  41.758  11.662  1.00  0.00     0.116 A 
HETATM    7  N12 UNL     1      29.610  41.098  12.597  1.00  0.00    -0.338 N 
ATOM      8  H12 UNL     1      29.585  41.433  13.560  1.00  0.00     0.168 HD
HETATM    9  C10 UNL     1      30.348  40.013  12.308  1.00  0.00     0.183 A 
HETATM   10  N13 UNL     1      30.365  39.591  11.034  1.00  0.00    -0.336 N 
ATOM     11  H13 UNL     1      30.925  38.767  10.814  1.00  0.00     0.168 HD
HETATM   12  C11 UNL     1      29.700  40.175  10.035  1.00  0.00     0.141 A 
ENDROOT
BRANCH   1  13
HETATM   13  C2  UNL     1      30.251  38.808   8.042  1.00  0.00     0.210 C 
BRANCH  13  14
HETATM   14  C1  UNL     1      31.743  38.889   8.196  1.00  0.00     0.195 C 
BRANCH  14  15
HETATM   15  N3  UNL     1      32.352  37.636   8.512  1.00  0.00    -0.250 N 
ATOM     16  H3  UNL     1      32.739  37.045   7.777  1.00  0.00     0.197 HD
BRANCH  15  17
HETATM   17  N2  UNL     1      32.399  37.280   9.707  1.00  0.00    -0.248 NA
BRANCH  17  18
HETATM   18  N1  UNL     1      32.683  36.788  10.816  1.00  0.00    -0.261 N 
ATOM     19  H12 UNL     1      31.740  36.957  11.167  1.00  0.00     0.193 HD
ATOM     20  H11 UNL     1      33.125  36.354  11.627  1.00  0.00     0.193 HD
ENDBRANCH  17  18
ENDBRANCH  15  17
ENDBRANCH  14  15
ENDBRANCH  13  14
BRANCH  13  21
HETATM   21  C3  UNL     1      29.918  38.890   6.618  1.00  0.00    -0.054 C 
HETATM   22  C4  UNL     1      29.660  38.967   5.442  1.00  0.00     0.013 C 
BRANCH  22  23
HETATM   23  N4  UNL     1      29.379  39.070   4.056  1.00  0.00    -0.310 N 
HETATM   24  C5  UNL     1      29.826  40.055   3.355  1.00  0.00     0.205 C 
ATOM     25  H4  UNL     1      28.813  38.350   3.605  1.00  0.00     0.177 HD
BRANCH  24  26
HETATM   26  N5  UNL     1      29.494  40.074   1.977  1.00  0.00    -0.302 N 
ATOM     27  H5  UNL     1      30.134  40.472   1.290  1.00  0.00     0.187 HD
BRANCH  26  28
HETATM   28  N6  UNL     1      28.268  39.534   1.582  1.00  0.00    -0.344 N 
ATOM     29  H62 UNL     1      28.098  38.533   1.682  1.00  0.00     0.176 HD
ATOM     30  H61 UNL     1      27.563  40.163   1.199  1.00  0.00     0.176 HD
ENDBRANCH  26  28
ENDBRANCH  24  26
ENDBRANCH  22  23
ENDBRANCH  13  21
ENDBRANCH   1  13
BRANCH   4  31
HETATM   31  C7  UNL     1      27.484  42.814   8.924  1.00  0.00     0.288 C 
HETATM   32  O1  UNL     1      26.488  43.098   9.579  1.00  0.00    -0.264 OA
HETATM   33  N9  UNL     1      27.768  43.702   7.814  1.00  0.00    -0.271 N 
ATOM     34  H9  UNL     1      28.579  43.538   7.219  1.00  0.00     0.189 HD
BRANCH  33  35
HETATM   35  N10 UNL     1      26.937  44.762   7.574  1.00  0.00    -0.342 N 
ATOM     36 2H10 UNL     1      27.032  45.609   8.135  1.00  0.00     0.176 HD
ATOM     37 1H10 UNL     1      26.235  44.689   6.838  1.00  0.00     0.176 HD
ENDBRANCH  33  35
ENDBRANCH   4  31
BRANCH   6  38
HETATM   38  N11 UNL     1      28.219  42.784  11.991  1.00  0.00    -0.385 N 
ATOM     39 2H11 UNL     1      27.201  42.735  11.989  1.00  0.00     0.157 HD
ATOM     40 1H11 UNL     1      28.676  43.656  12.257  1.00  0.00     0.157 HD
ENDBRANCH   6  38
TORSDOF 12
ENDMDL
