MODEL 1
REMARK VINA RESULT: -6.821494638      0.000      0.000
REMARK  5 active torsions:
REMARK  status: ('A' for Active; 'I' for Inactive)
REMARK    1  A    between atoms: C2_2  and  C3_4 
REMARK    2  A    between atoms: C4_5  and  N1_6 
REMARK    3  A    between atoms: C7_17  and  N5_18 
REMARK    4  A    between atoms: C9_24  and  N8_25 
REMARK    5  A    between atoms: N8_25  and  N9_27 
ROOT
HETATM    1  N5  UNL     1      31.940  38.981   8.365  1.00  0.00    -0.301 N 
ATOM      2  H5  UNL     1      32.715  39.630   8.236  1.00  0.00     0.174 HD
HETATM    3  C8  UNL     1      32.161  37.835   9.114  1.00  0.00     0.179 C 
HETATM    4  N6  UNL     1      32.357  36.870   9.735  1.00  0.00    -0.172 NA
ENDROOT
BRANCH   1   5
HETATM    5  C7  UNL     1      30.675  39.302   7.759  1.00  0.00     0.244 C 
HETATM    6  C4  UNL     1      30.674  40.687   7.154  1.00  0.00     0.066 C 
HETATM    7  C3  UNL     1      30.786  41.683   8.080  1.00  0.00     0.039 C 
HETATM    8  C10 UNL     1      30.731  41.346   9.510  1.00  0.00     0.200 C 
HETATM    9  C9  UNL     1      29.719  40.247   9.729  1.00  0.00     0.116 C 
HETATM   10  C11 UNL     1      30.292  42.499  10.310  1.00  0.00     0.076 C 
HETATM   11  N7  UNL     1      29.694  39.308   8.895  1.00  0.00    -0.350 N 
ATOM     12  H7  UNL     1      29.012  38.555   8.989  1.00  0.00     0.163 HD
HETATM   13  N10 UNL     1      29.926  43.390  10.987  1.00  0.00    -0.196 NA
BRANCH   6  14
HETATM   14  N1  UNL     1      30.623  40.831   5.826  1.00  0.00    -0.336 N 
HETATM   15  C5  UNL     1      30.246  40.471   4.712  1.00  0.00     0.192 A 
HETATM   16  N2  UNL     1      30.603  41.180   3.561  1.00  0.00    -0.266 N 
HETATM   17  C6  UNL     1      29.472  39.418   4.284  1.00  0.00     0.306 A 
HETATM   18  N3  UNL     1      30.064  40.565   2.555  1.00  0.00    -0.238 N 
ATOM     19  H2  UNL     1      31.179  42.021   3.520  1.00  0.00     0.190 HD
HETATM   20  N4  UNL     1      29.385  39.517   2.928  1.00  0.00    -0.249 N 
ATOM     21  H3  UNL     1      30.160  40.866   1.585  1.00  0.00     0.208 HD
ATOM     22  H4  UNL     1      28.876  38.881   2.312  1.00  0.00     0.192 HD
HETATM   23  O2  UNL     1      28.905  38.488   4.915  1.00  0.00    -0.262 OA
ATOM     24  H1  UNL     1      31.181  41.666   5.643  1.00  0.00     0.167 HD
ENDBRANCH   6  14
BRANCH   7  25
HETATM   25  C2  UNL     1      30.876  43.048   7.650  1.00  0.00     0.155 C 
HETATM   26  C1  UNL     1      32.075  43.914   7.676  1.00  0.00     0.096 C 
HETATM   27  O1  UNL     1      29.846  43.660   7.177  1.00  0.00    -0.293 OA
ENDBRANCH   7  25
BRANCH   9  28
HETATM   28  N8  UNL     1      28.854  40.353  10.828  1.00  0.00    -0.294 N 
ATOM     29  H8  UNL     1      29.228  40.491  11.767  1.00  0.00     0.187 HD
BRANCH  28  30
HETATM   30  N9  UNL     1      27.455  40.264  10.618  1.00  0.00    -0.344 N 
ATOM     31  H92 UNL     1      27.060  39.409  10.227  1.00  0.00     0.176 HD
ATOM     32  H91 UNL     1      26.864  41.059  10.861  1.00  0.00     0.176 HD
ENDBRANCH  28  30
ENDBRANCH   9  28
ENDBRANCH   1   5
TORSDOF 5
ENDMDL
MODEL 2
REMARK VINA RESULT: -6.638691049      2.811      5.563
REMARK  5 active torsions:
REMARK  status: ('A' for Active; 'I' for Inactive)
REMARK    1  A    between atoms: C2_2  and  C3_4 
REMARK    2  A    between atoms: C4_5  and  N1_6 
REMARK    3  A    between atoms: C7_17  and  N5_18 
REMARK    4  A    between atoms: C9_24  and  N8_25 
REMARK    5  A    between atoms: N8_25  and  N9_27 
ROOT
HETATM    1  N5  UNL     1      30.008  39.697   6.402  1.00  0.00    -0.301 N 
ATOM      2  H5  UNL     1      29.258  40.163   6.912  1.00  0.00     0.174 HD
HETATM    3  C8  UNL     1      29.915  38.327   6.207  1.00  0.00     0.179 C 
HETATM    4  N6  UNL     1      29.836  37.176   6.057  1.00  0.00    -0.172 NA
ENDROOT
BRANCH   1   5
HETATM    5  C7  UNL     1      31.104  40.495   5.922  1.00  0.00     0.244 C 
HETATM    6  C4  UNL     1      31.004  41.930   6.387  1.00  0.00     0.066 C 
HETATM    7  C3  UNL     1      29.937  42.597   5.857  1.00  0.00     0.039 C 
HETATM    8  C10 UNL     1      29.127  41.950   4.815  1.00  0.00     0.200 C 
HETATM    9  C9  UNL     1      30.029  41.157   3.899  1.00  0.00     0.116 C 
HETATM   10  C11 UNL     1      28.439  42.946   3.982  1.00  0.00     0.076 C 
HETATM   11  N7  UNL     1      30.957  40.496   4.428  1.00  0.00    -0.350 N 
ATOM     12  H7  UNL     1      31.605  39.964   3.848  1.00  0.00     0.163 HD
HETATM   13  N10 UNL     1      27.885  43.711   3.278  1.00  0.00    -0.196 NA
BRANCH   6  14
HETATM   14  N1  UNL     1      31.882  42.404   7.276  1.00  0.00    -0.336 N 
HETATM   15  C5  UNL     1      32.379  42.423   8.401  1.00  0.00     0.192 A 
HETATM   16  N2  UNL     1      33.433  43.288   8.713  1.00  0.00    -0.266 N 
HETATM   17  C6  UNL     1      32.113  41.719   9.551  1.00  0.00     0.306 A 
HETATM   18  N3  UNL     1      33.737  43.081   9.957  1.00  0.00    -0.238 N 
ATOM     19  H2  UNL     1      33.878  43.955   8.082  1.00  0.00     0.190 HD
HETATM   20  N4  UNL     1      32.987  42.163  10.498  1.00  0.00    -0.249 N 
ATOM     21  H3  UNL     1      34.477  43.578  10.452  1.00  0.00     0.208 HD
ATOM     22  H4  UNL     1      33.043  41.834  11.462  1.00  0.00     0.192 HD
HETATM   23  O2  UNL     1      31.265  40.824   9.805  1.00  0.00    -0.262 OA
ATOM     24  H1  UNL     1      32.409  43.107   6.757  1.00  0.00     0.167 HD
ENDBRANCH   6  14
BRANCH   7  25
HETATM   25  C2  UNL     1      29.668  43.946   6.265  1.00  0.00     0.155 C 
HETATM   26  C1  UNL     1      28.521  44.422   7.069  1.00  0.00     0.096 C 
HETATM   27  O1  UNL     1      30.461  44.906   5.936  1.00  0.00    -0.293 OA
ENDBRANCH   7  25
BRANCH   9  28
HETATM   28  N8  UNL     1      29.796  41.226   2.518  1.00  0.00    -0.294 N 
ATOM     29  H8  UNL     1      29.985  42.088   2.005  1.00  0.00     0.187 HD
BRANCH  28  30
HETATM   30  N9  UNL     1      29.294  40.085   1.844  1.00  0.00    -0.344 N 
ATOM     31  H92 UNL     1      29.776  39.191   1.945  1.00  0.00     0.176 HD
ATOM     32  H91 UNL     1      28.458  40.176   1.267  1.00  0.00     0.176 HD
ENDBRANCH  28  30
ENDBRANCH   9  28
ENDBRANCH   1   5
TORSDOF 5
ENDMDL
MODEL 3
REMARK VINA RESULT: -6.620396353      2.558      5.491
REMARK  5 active torsions:
REMARK  status: ('A' for Active; 'I' for Inactive)
REMARK    1  A    between atoms: C2_2  and  C3_4 
REMARK    2  A    between atoms: C4_5  and  N1_6 
REMARK    3  A    between atoms: C7_17  and  N5_18 
REMARK    4  A    between atoms: C9_24  and  N8_25 
REMARK    5  A    between atoms: N8_25  and  N9_27 
ROOT
HETATM    1  N5  UNL     1      29.580  38.932   7.257  1.00  0.00    -0.301 N 
ATOM      2  H5  UNL     1      28.760  38.997   7.859  1.00  0.00     0.174 HD
HETATM    3  C8  UNL     1      29.393  38.587   5.927  1.00  0.00     0.179 C 
HETATM    4  N6  UNL     1      29.229  38.286   4.815  1.00  0.00    -0.172 NA
ENDROOT
BRANCH   1   5
HETATM    5  C7  UNL     1      30.870  39.205   7.833  1.00  0.00     0.244 C 
HETATM    6  C4  UNL     1      30.759  39.706   9.255  1.00  0.00     0.066 C 
HETATM    7  C3  UNL     1      30.161  40.928   9.352  1.00  0.00     0.039 C 
HETATM    8  C10 UNL     1      29.848  41.678   8.127  1.00  0.00     0.200 C 
HETATM    9  C9  UNL     1      30.956  41.479   7.121  1.00  0.00     0.116 C 
HETATM   10  C11 UNL     1      29.765  43.121   8.395  1.00  0.00     0.076 C 
HETATM   11  N7  UNL     1      31.434  40.323   7.005  1.00  0.00    -0.350 N 
ATOM     12  H7  UNL     1      32.199  40.146   6.355  1.00  0.00     0.163 HD
HETATM   13  N10 UNL     1      29.709  44.286   8.560  1.00  0.00    -0.196 NA
BRANCH   6  14
HETATM   14  N1  UNL     1      31.180  38.938  10.264  1.00  0.00    -0.336 N 
HETATM   15  C5  UNL     1      31.868  38.022  10.713  1.00  0.00     0.192 A 
HETATM   16  N2  UNL     1      31.831  37.686  12.070  1.00  0.00    -0.266 N 
HETATM   17  C6  UNL     1      32.762  37.155  10.132  1.00  0.00     0.306 A 
HETATM   18  N3  UNL     1      32.651  36.695  12.237  1.00  0.00    -0.238 N 
ATOM     19  H2  UNL     1      31.266  38.134  12.792  1.00  0.00     0.190 HD
HETATM   20  N4  UNL     1      33.228  36.343  11.122  1.00  0.00    -0.249 N 
ATOM     21  H3  UNL     1      32.825  36.245  13.136  1.00  0.00     0.208 HD
ATOM     22  H4  UNL     1      33.908  35.591  11.011  1.00  0.00     0.192 HD
HETATM   23  O2  UNL     1      33.155  37.034   8.942  1.00  0.00    -0.262 OA
ATOM     24  H1  UNL     1      30.672  39.291  11.076  1.00  0.00     0.167 HD
ENDBRANCH   6  14
BRANCH   7  25
HETATM   25  C2  UNL     1      29.917  41.500  10.645  1.00  0.00     0.155 C 
HETATM   26  C1  UNL     1      28.608  41.662  11.316  1.00  0.00     0.096 C 
HETATM   27  O1  UNL     1      30.888  41.943  11.365  1.00  0.00    -0.293 OA
ENDBRANCH   7  25
BRANCH   9  28
HETATM   28  N8  UNL     1      31.401  42.595   6.397  1.00  0.00    -0.294 N 
ATOM     29  H8  UNL     1      30.915  42.887   5.549  1.00  0.00     0.187 HD
BRANCH  28  30
HETATM   30  N9  UNL     1      32.534  43.311   6.858  1.00  0.00    -0.344 N 
ATOM     31  H92 UNL     1      32.433  43.962   7.637  1.00  0.00     0.176 HD
ATOM     32  H91 UNL     1      33.435  43.162   6.404  1.00  0.00     0.176 HD
ENDBRANCH  28  30
ENDBRANCH   9  28
ENDBRANCH   1   5
TORSDOF 5
ENDMDL
MODEL 4
REMARK VINA RESULT: -6.519331606      2.575      5.639
REMARK  5 active torsions:
REMARK  status: ('A' for Active; 'I' for Inactive)
REMARK    1  A    between atoms: C2_2  and  C3_4 
REMARK    2  A    between atoms: C4_5  and  N1_6 
REMARK    3  A    between atoms: C7_17  and  N5_18 
REMARK    4  A    between atoms: C9_24  and  N8_25 
REMARK    5  A    between atoms: N8_25  and  N9_27 
ROOT
HETATM    1  N5  UNL     1      29.869  38.239   7.466  1.00  0.00    -0.301 N 
ATOM      2  H5  UNL     1      29.210  37.799   8.108  1.00  0.00     0.174 HD
HETATM    3  C8  UNL     1      29.630  38.131   6.104  1.00  0.00     0.179 C 
HETATM    4  N6  UNL     1      29.431  38.026   4.963  1.00  0.00    -0.172 NA
ENDROOT
BRANCH   1   5
HETATM    5  C7  UNL     1      30.995  38.941   8.023  1.00  0.00     0.244 C 
HETATM    6  C4  UNL     1      30.630  39.681   9.289  1.00  0.00     0.066 C 
HETATM    7  C3  UNL     1      29.753  40.706   9.083  1.00  0.00     0.039 C 
HETATM    8  C10 UNL     1      29.394  41.083   7.708  1.00  0.00     0.200 C 
HETATM    9  C9  UNL     1      30.611  40.966   6.822  1.00  0.00     0.116 C 
HETATM   10  C11 UNL     1      28.948  42.482   7.641  1.00  0.00     0.076 C 
HETATM   11  N7  UNL     1      31.357  39.969   6.990  1.00  0.00    -0.350 N 
ATOM     12  H7  UNL     1      32.202  39.859   6.431  1.00  0.00     0.163 HD
HETATM   13  N10 UNL     1      28.602  43.603   7.538  1.00  0.00    -0.196 NA
BRANCH   6  14
HETATM   14  N1  UNL     1      31.119  39.269  10.463  1.00  0.00    -0.336 N 
HETATM   15  C5  UNL     1      31.739  38.462  11.154  1.00  0.00     0.192 A 
HETATM   16  N2  UNL     1      31.913  38.665  12.526  1.00  0.00    -0.266 N 
HETATM   17  C6  UNL     1      32.370  37.276  10.863  1.00  0.00     0.306 A 
HETATM   18  N3  UNL     1      32.596  37.658  12.974  1.00  0.00    -0.238 N 
ATOM     19  H2  UNL     1      31.566  39.455  13.072  1.00  0.00     0.190 HD
HETATM   20  N4  UNL     1      32.893  36.808  12.031  1.00  0.00    -0.249 N 
ATOM     21  H3  UNL     1      32.870  37.545  13.950  1.00  0.00     0.208 HD
ATOM     22  H4  UNL     1      33.423  35.945  12.148  1.00  0.00     0.192 HD
HETATM   23  O2  UNL     1      32.508  36.646   9.781  1.00  0.00    -0.262 OA
ATOM     24  H1  UNL     1      30.832  39.994  11.121  1.00  0.00     0.167 HD
ENDBRANCH   6  14
BRANCH   7  25
HETATM   25  C2  UNL     1      29.256  41.452  10.203  1.00  0.00     0.155 C 
HETATM   26  C1  UNL     1      27.879  41.436  10.745  1.00  0.00     0.096 C 
HETATM   27  O1  UNL     1      30.026  42.245  10.863  1.00  0.00    -0.293 OA
ENDBRANCH   7  25
BRANCH   9  28
HETATM   28  N8  UNL     1      30.849  41.983   5.887  1.00  0.00    -0.294 N 
ATOM     29  H8  UNL     1      31.109  42.919   6.198  1.00  0.00     0.187 HD
BRANCH  28  30
HETATM   30  N9  UNL     1      30.724  41.694   4.505  1.00  0.00    -0.344 N 
ATOM     31  H92 UNL     1      30.293  40.817   4.213  1.00  0.00     0.176 HD
ATOM     32  H91 UNL     1      31.068  42.370   3.822  1.00  0.00     0.176 HD
ENDBRANCH  28  30
ENDBRANCH   9  28
ENDBRANCH   1   5
TORSDOF 5
ENDMDL
MODEL 5
REMARK VINA RESULT: -6.426794118      2.218      2.553
REMARK  5 active torsions:
REMARK  status: ('A' for Active; 'I' for Inactive)
REMARK    1  A    between atoms: C2_2  and  C3_4 
REMARK    2  A    between atoms: C4_5  and  N1_6 
REMARK    3  A    between atoms: C7_17  and  N5_18 
REMARK    4  A    between atoms: C9_24  and  N8_25 
REMARK    5  A    between atoms: N8_25  and  N9_27 
ROOT
HETATM    1  N5  UNL     1      31.064  41.487   7.566  1.00  0.00    -0.301 N 
ATOM      2  H5  UNL     1      31.462  42.375   7.261  1.00  0.00     0.174 HD
HETATM    3  C8  UNL     1      31.634  40.853   8.659  1.00  0.00     0.179 C 
HETATM    4  N6  UNL     1      32.125  40.322   9.571  1.00  0.00    -0.172 NA
ENDROOT
BRANCH   1   5
HETATM    5  C7  UNL     1      29.941  40.959   6.837  1.00  0.00     0.244 C 
HETATM    6  C4  UNL     1      29.246  42.024   6.021  1.00  0.00     0.066 C 
HETATM    7  C3  UNL     1      28.642  42.982   6.783  1.00  0.00     0.039 C 
HETATM    8  C10 UNL     1      28.582  42.811   8.242  1.00  0.00     0.200 C 
HETATM    9  C9  UNL     1      28.348  41.355   8.568  1.00  0.00     0.116 C 
HETATM   10  C11 UNL     1      27.461  43.566   8.819  1.00  0.00     0.076 C 
HETATM   11  N7  UNL     1      28.977  40.502   7.894  1.00  0.00    -0.350 N 
ATOM     12  H7  UNL     1      28.834  39.507   8.062  1.00  0.00     0.163 HD
HETATM   13  N10 UNL     1      26.563  44.139   9.322  1.00  0.00    -0.196 NA
BRANCH   6  14
HETATM   14  N1  UNL     1      29.313  41.988   4.687  1.00  0.00    -0.336 N 
HETATM   15  C5  UNL     1      29.321  41.375   3.620  1.00  0.00     0.192 A 
HETATM   16  N2  UNL     1      29.435  42.047   2.399  1.00  0.00    -0.266 N 
HETATM   17  C6  UNL     1      29.235  40.038   3.311  1.00  0.00     0.306 A 
HETATM   18  N3  UNL     1      29.414  41.145   1.467  1.00  0.00    -0.238 N 
ATOM     19  H2  UNL     1      29.518  43.055   2.266  1.00  0.00     0.190 HD
HETATM   20  N4  UNL     1      29.297  39.941   1.953  1.00  0.00    -0.249 N 
ATOM     21  H3  UNL     1      29.481  41.354   0.471  1.00  0.00     0.208 HD
ATOM     22  H4  UNL     1      29.259  39.077   1.412  1.00  0.00     0.192 HD
HETATM   23  O2  UNL     1      29.120  39.018   4.040  1.00  0.00    -0.262 OA
ATOM     24  H1  UNL     1      29.405  42.967   4.414  1.00  0.00     0.167 HD
ENDBRANCH   6  14
BRANCH   7  25
HETATM   25  C2  UNL     1      28.006  44.100   6.148  1.00  0.00     0.155 C 
HETATM   26  C1  UNL     1      28.410  45.521   6.232  1.00  0.00     0.096 C 
HETATM   27  O1  UNL     1      26.966  43.935   5.407  1.00  0.00    -0.293 OA
ENDBRANCH   7  25
BRANCH   9  28
HETATM   28  N8  UNL     1      27.428  41.043   9.579  1.00  0.00    -0.294 N 
ATOM     29  H8  UNL     1      26.486  41.434   9.558  1.00  0.00     0.187 HD
BRANCH  28  30
HETATM   30  N9  UNL     1      27.824  40.178  10.630  1.00  0.00    -0.344 N 
ATOM     31  H92 UNL     1      27.133  39.872  11.314  1.00  0.00     0.176 HD
ATOM     32  H91 UNL     1      28.796  39.875  10.685  1.00  0.00     0.176 HD
ENDBRANCH  28  30
ENDBRANCH   9  28
ENDBRANCH   1   5
TORSDOF 5
ENDMDL
