MODEL 1
REMARK VINA RESULT: -6.787179689      0.000      0.000
REMARK  6 active torsions:
REMARK  status: ('A' for Active; 'I' for Inactive)
REMARK    1  A    between atoms: N1_1  and  C1_4 
REMARK    2  A    between atoms: N5_11  and  N6_12 
REMARK       I    between atoms: N6_12  and  C2_14 
REMARK       I    between atoms: C2_14  and  N8_16 
REMARK    3  A    between atoms: N8_16  and  S1_18 
REMARK    4  A    between atoms: S1_18  and  C3_21 
REMARK    5  A    between atoms: C5_25  and  C6_26 
REMARK    6  A    between atoms: N10_29  and  N11_30 
ROOT
HETATM    1  N6  UNL     1      33.603  42.607   7.839  1.00  0.00    -0.235 N 
ATOM      2  H6  UNL     1      34.171  42.674   6.994  1.00  0.00     0.192 HD
HETATM    3  C2  UNL     1      32.263  42.116   7.769  1.00  0.00     0.219 C 
HETATM    4  N7  UNL     1      31.246  43.088   7.551  1.00  0.00    -0.061 NA
HETATM    5  N8  UNL     1      32.004  40.848   7.900  1.00  0.00    -0.251 N 
ATOM      6  H8  UNL     1      32.756  40.177   8.056  1.00  0.00     0.181 HD
ENDROOT
BRANCH   5   7
HETATM    7  S1  UNL     1      30.372  40.325   7.805  1.00  0.00     0.284 S 
HETATM    8  O1  UNL     1      29.488  41.467   8.287  1.00  0.00    -0.199 OA
HETATM    9  O2  UNL     1      30.191  39.190   8.764  1.00  0.00    -0.199 OA
BRANCH   7  10
HETATM   10  C3  UNL     1      29.942  39.858   6.191  1.00  0.00     0.188 A 
HETATM   11  C4  UNL     1      29.685  38.565   5.785  1.00  0.00     0.135 A 
HETATM   12  N9  UNL     1      29.395  38.644   4.476  1.00  0.00    -0.342 N 
HETATM   13  C5  UNL     1      29.475  39.953   4.098  1.00  0.00     0.205 A 
ATOM     14  H9  UNL     1      29.156  37.861   3.868  1.00  0.00     0.167 HD
HETATM   15  N10 UNL     1      29.814  40.706   5.157  1.00  0.00    -0.226 N 
BRANCH  13  16
HETATM   16  C6  UNL     1      29.223  40.409   2.745  1.00  0.00     0.247 C 
HETATM   17  O3  UNL     1      28.716  41.538   2.571  1.00  0.00    -0.642 OA
HETATM   18  O4  UNL     1      29.519  39.646   1.633  1.00  0.00    -0.642 OA
ENDBRANCH  13  16
BRANCH  15  19
HETATM   19  N11 UNL     1      29.986  42.094   5.139  1.00  0.00    -0.336 N 
ATOM     20 2H11 UNL     1      29.678  42.735   5.870  1.00  0.00     0.177 HD
ATOM     21 1H11 UNL     1      30.430  42.671   4.425  1.00  0.00     0.177 HD
ENDBRANCH  15  19
ENDBRANCH   7  10
ENDBRANCH   5   7
BRANCH   1  22
HETATM   22  N5  UNL     1      34.134  42.994   9.074  1.00  0.00    -0.001 N 
HETATM   23  C1  UNL     1      35.255  43.696   9.294  1.00  0.00     0.729 A 
HETATM   24  N2  UNL     1      35.413  43.858  10.631  1.00  0.00    -0.114 N 
HETATM   25  N3  UNL     1      34.397  43.261  11.214  1.00  0.00    -0.212 N 
ATOM     26  H2  UNL     1      36.175  44.351  11.096  1.00  0.00     0.207 HD
HETATM   27  N4  UNL     1      33.635  42.744  10.265  1.00  0.00    -0.191 N 
ATOM     28  H3  UNL     1      34.228  43.205  12.218  1.00  0.00     0.210 HD
ATOM     29  H4  UNL     1      32.775  42.222  10.435  1.00  0.00     0.212 HD
BRANCH  23  30
HETATM   30  N1  UNL     1      36.067  44.154   8.400  1.00  0.00    -0.230 N 
ATOM     31  H12 UNL     1      36.472  43.636   7.620  1.00  0.00     0.174 HD
ATOM     32  H11 UNL     1      36.408  45.115   8.367  1.00  0.00     0.174 HD
ENDBRANCH  23  30
ENDBRANCH   1  22
TORSDOF 6
ENDMDL
MODEL 2
REMARK VINA RESULT: -6.777748501      3.176      4.011
REMARK  6 active torsions:
REMARK  status: ('A' for Active; 'I' for Inactive)
REMARK    1  A    between atoms: N1_1  and  C1_4 
REMARK    2  A    between atoms: N5_11  and  N6_12 
REMARK       I    between atoms: N6_12  and  C2_14 
REMARK       I    between atoms: C2_14  and  N8_16 
REMARK    3  A    between atoms: N8_16  and  S1_18 
REMARK    4  A    between atoms: S1_18  and  C3_21 
REMARK    5  A    between atoms: C5_25  and  C6_26 
REMARK    6  A    between atoms: N10_29  and  N11_30 
ROOT
HETATM    1  N6  UNL     1      32.980  38.973  10.097  1.00  0.00    -0.235 N 
ATOM      2  H6  UNL     1      33.958  38.903   9.814  1.00  0.00     0.192 HD
HETATM    3  C2  UNL     1      32.094  39.858   9.409  1.00  0.00     0.219 C 
HETATM    4  N7  UNL     1      32.002  41.183   9.919  1.00  0.00    -0.061 NA
HETATM    5  N8  UNL     1      31.415  39.457   8.374  1.00  0.00    -0.251 N 
ATOM      6  H8  UNL     1      31.503  38.499   8.034  1.00  0.00     0.181 HD
ENDROOT
BRANCH   5   7
HETATM    7  S1  UNL     1      30.367  40.569   7.593  1.00  0.00     0.284 S 
HETATM    8  O1  UNL     1      31.072  41.918   7.543  1.00  0.00    -0.199 OA
HETATM    9  O2  UNL     1      29.149  40.738   8.446  1.00  0.00    -0.199 OA
BRANCH   7  10
HETATM   10  C3  UNL     1      29.947  40.040   5.996  1.00  0.00     0.188 A 
HETATM   11  C4  UNL     1      29.421  38.803   5.686  1.00  0.00     0.135 A 
HETATM   12  N9  UNL     1      29.245  38.804   4.355  1.00  0.00    -0.342 N 
HETATM   13  C5  UNL     1      29.654  40.011   3.869  1.00  0.00     0.205 A 
ATOM     14  H9  UNL     1      28.870  38.034   3.801  1.00  0.00     0.167 HD
HETATM   15  N10 UNL     1      30.090  40.778   4.883  1.00  0.00    -0.226 N 
BRANCH  13  16
HETATM   16  C6  UNL     1      29.605  40.364   2.464  1.00  0.00     0.247 C 
HETATM   17  O3  UNL     1      29.395  39.467   1.621  1.00  0.00    -0.642 OA
HETATM   18  O4  UNL     1      29.784  41.657   2.014  1.00  0.00    -0.642 OA
ENDBRANCH  13  16
BRANCH  15  19
HETATM   19  N11 UNL     1      30.583  42.081   4.755  1.00  0.00    -0.336 N 
ATOM     20 2H11 UNL     1      30.015  42.912   4.590  1.00  0.00     0.177 HD
ATOM     21 1H11 UNL     1      31.549  42.403   4.805  1.00  0.00     0.177 HD
ENDBRANCH  15  19
ENDBRANCH   7  10
ENDBRANCH   5   7
BRANCH   1  22
HETATM   22  N5  UNL     1      32.501  38.204  11.162  1.00  0.00    -0.001 N 
HETATM   23  C1  UNL     1      32.867  36.959  11.496  1.00  0.00     0.729 A 
HETATM   24  N2  UNL     1      32.164  36.576  12.591  1.00  0.00    -0.114 N 
HETATM   25  N3  UNL     1      31.380  37.580  12.915  1.00  0.00    -0.212 N 
ATOM     26  H2  UNL     1      32.230  35.679  13.072  1.00  0.00     0.207 HD
HETATM   27  N4  UNL     1      31.592  38.554  12.047  1.00  0.00    -0.191 N 
ATOM     28  H3  UNL     1      30.724  37.603  13.697  1.00  0.00     0.210 HD
ATOM     29  H4  UNL     1      31.116  39.456  12.062  1.00  0.00     0.212 HD
BRANCH  23  30
HETATM   30  N1  UNL     1      33.742  36.223  10.895  1.00  0.00    -0.230 N 
ATOM     31  H12 UNL     1      34.627  35.891  11.278  1.00  0.00     0.174 HD
ATOM     32  H11 UNL     1      33.648  35.878   9.940  1.00  0.00     0.174 HD
ENDBRANCH  23  30
ENDBRANCH   1  22
TORSDOF 6
ENDMDL
MODEL 3
REMARK VINA RESULT: -6.696055619      4.637      5.245
REMARK  6 active torsions:
REMARK  status: ('A' for Active; 'I' for Inactive)
REMARK    1  A    between atoms: N1_1  and  C1_4 
REMARK    2  A    between atoms: N5_11  and  N6_12 
REMARK       I    between atoms: N6_12  and  C2_14 
REMARK       I    between atoms: C2_14  and  N8_16 
REMARK    3  A    between atoms: N8_16  and  S1_18 
REMARK    4  A    between atoms: S1_18  and  C3_21 
REMARK    5  A    between atoms: C5_25  and  C6_26 
REMARK    6  A    between atoms: N10_29  and  N11_30 
ROOT
HETATM    1  N6  UNL     1      33.255  36.234  10.916  1.00  0.00    -0.235 N 
ATOM      2  H6  UNL     1      32.675  35.394  10.908  1.00  0.00     0.192 HD
HETATM    3  C2  UNL     1      32.847  37.396  10.192  1.00  0.00     0.219 C 
HETATM    4  N7  UNL     1      33.295  37.489   8.844  1.00  0.00    -0.061 NA
HETATM    5  N8  UNL     1      32.108  38.310  10.749  1.00  0.00    -0.251 N 
ATOM      6  H8  UNL     1      31.805  38.213  11.718  1.00  0.00     0.181 HD
ENDROOT
BRANCH   5   7
HETATM    7  S1  UNL     1      31.653  39.681   9.824  1.00  0.00     0.284 S 
HETATM    8  O1  UNL     1      32.910  40.494   9.545  1.00  0.00    -0.199 OA
HETATM    9  O2  UNL     1      30.753  40.533  10.665  1.00  0.00    -0.199 OA
BRANCH   7  10
HETATM   10  C3  UNL     1      30.879  39.225   8.340  1.00  0.00     0.188 A 
HETATM   11  C4  UNL     1      30.035  38.144   8.190  1.00  0.00     0.135 A 
HETATM   12  N9  UNL     1      29.661  38.150   6.900  1.00  0.00    -0.342 N 
HETATM   13  C5  UNL     1      30.263  39.208   6.284  1.00  0.00     0.205 A 
ATOM     14  H9  UNL     1      29.034  37.479   6.456  1.00  0.00     0.167 HD
HETATM   15  N10 UNL     1      31.018  39.875   7.173  1.00  0.00    -0.226 N 
BRANCH  13  16
HETATM   16  C6  UNL     1      30.083  39.523   4.881  1.00  0.00     0.247 C 
HETATM   17  O3  UNL     1      30.820  40.383   4.353  1.00  0.00    -0.642 OA
HETATM   18  O4  UNL     1      29.126  38.910   4.096  1.00  0.00    -0.642 OA
ENDBRANCH  13  16
BRANCH  15  19
HETATM   19  N11 UNL     1      31.779  41.015   6.893  1.00  0.00    -0.336 N 
ATOM     20 2H11 UNL     1      32.187  41.636   7.591  1.00  0.00     0.177 HD
ATOM     21 1H11 UNL     1      32.041  41.398   5.985  1.00  0.00     0.177 HD
ENDBRANCH  15  19
ENDBRANCH   7  10
ENDBRANCH   5   7
BRANCH   1  22
HETATM   22  N5  UNL     1      34.454  36.252  11.635  1.00  0.00    -0.001 N 
HETATM   23  C1  UNL     1      35.402  35.304  11.662  1.00  0.00     0.729 A 
HETATM   24  N2  UNL     1      36.402  35.711  12.483  1.00  0.00    -0.114 N 
HETATM   25  N3  UNL     1      36.062  36.893  12.948  1.00  0.00    -0.212 N 
ATOM     26  H2  UNL     1      37.256  35.197  12.699  1.00  0.00     0.207 HD
HETATM   27  N4  UNL     1      34.887  37.208  12.430  1.00  0.00    -0.191 N 
ATOM     28  H3  UNL     1      36.607  37.465  13.593  1.00  0.00     0.210 HD
ATOM     29  H4  UNL     1      34.384  38.074  12.620  1.00  0.00     0.212 HD
BRANCH  23  30
HETATM   30  N1  UNL     1      35.391  34.183  11.023  1.00  0.00    -0.230 N 
ATOM     31  H12 UNL     1      34.623  33.512  10.980  1.00  0.00     0.174 HD
ATOM     32  H11 UNL     1      36.169  33.825  10.470  1.00  0.00     0.174 HD
ENDBRANCH  23  30
ENDBRANCH   1  22
TORSDOF 6
ENDMDL
MODEL 4
REMARK VINA RESULT: -6.633864165      3.827      6.642
REMARK  6 active torsions:
REMARK  status: ('A' for Active; 'I' for Inactive)
REMARK    1  A    between atoms: N1_1  and  C1_4 
REMARK    2  A    between atoms: N5_11  and  N6_12 
REMARK       I    between atoms: N6_12  and  C2_14 
REMARK       I    between atoms: C2_14  and  N8_16 
REMARK    3  A    between atoms: N8_16  and  S1_18 
REMARK    4  A    between atoms: S1_18  and  C3_21 
REMARK    5  A    between atoms: C5_25  and  C6_26 
REMARK    6  A    between atoms: N10_29  and  N11_30 
ROOT
HETATM    1  N6  UNL     1      29.236  42.470   4.911  1.00  0.00    -0.235 N 
ATOM      2  H6  UNL     1      28.860  43.404   4.747  1.00  0.00     0.192 HD
HETATM    3  C2  UNL     1      29.700  42.099   6.211  1.00  0.00     0.219 C 
HETATM    4  N7  UNL     1      31.074  42.351   6.486  1.00  0.00    -0.061 NA
HETATM    5  N8  UNL     1      28.899  41.562   7.083  1.00  0.00    -0.251 N 
ATOM      6  H8  UNL     1      27.919  41.394   6.854  1.00  0.00     0.181 HD
ENDROOT
BRANCH   5   7
HETATM    7  S1  UNL     1      29.520  41.141   8.626  1.00  0.00     0.284 S 
HETATM    8  O1  UNL     1      28.339  40.921   9.561  1.00  0.00    -0.199 OA
HETATM    9  O2  UNL     1      30.289  42.313   9.154  1.00  0.00    -0.199 OA
BRANCH   7  10
HETATM   10  C3  UNL     1      30.513  39.721   8.551  1.00  0.00     0.188 A 
HETATM   11  C4  UNL     1      30.658  38.917   7.440  1.00  0.00     0.135 A 
HETATM   12  N9  UNL     1      31.504  37.939   7.804  1.00  0.00    -0.342 N 
HETATM   13  C5  UNL     1      31.863  38.146   9.104  1.00  0.00     0.205 A 
ATOM     14  H9  UNL     1      31.823  37.173   7.211  1.00  0.00     0.167 HD
HETATM   15  N10 UNL     1      31.250  39.248   9.569  1.00  0.00    -0.226 N 
BRANCH  13  16
HETATM   16  C6  UNL     1      32.770  37.279   9.829  1.00  0.00     0.247 C 
HETATM   17  O3  UNL     1      32.464  36.911  10.983  1.00  0.00    -0.642 OA
HETATM   18  O4  UNL     1      33.967  36.840   9.297  1.00  0.00    -0.642 OA
ENDBRANCH  13  16
BRANCH  15  19
HETATM   19  N11 UNL     1      31.386  39.762  10.862  1.00  0.00    -0.336 N 
ATOM     20 2H11 UNL     1      31.740  40.691  11.093  1.00  0.00     0.177 HD
ATOM     21 1H11 UNL     1      31.162  39.316  11.752  1.00  0.00     0.177 HD
ENDBRANCH  15  19
ENDBRANCH   7  10
ENDBRANCH   5   7
BRANCH   1  22
HETATM   22  N5  UNL     1      29.301  41.545   3.865  1.00  0.00    -0.001 N 
HETATM   23  C1  UNL     1      29.461  41.803   2.559  1.00  0.00     0.729 A 
HETATM   24  N2  UNL     1      29.470  40.629   1.880  1.00  0.00    -0.114 N 
HETATM   25  N3  UNL     1      29.317  39.671   2.766  1.00  0.00    -0.212 N 
ATOM     26  H2  UNL     1      29.576  40.513   0.872  1.00  0.00     0.207 HD
HETATM   27  N4  UNL     1      29.216  40.235   3.957  1.00  0.00    -0.191 N 
ATOM     28  H3  UNL     1      29.281  38.670   2.570  1.00  0.00     0.210 HD
ATOM     29  H4  UNL     1      29.090  39.724   4.831  1.00  0.00     0.212 HD
BRANCH  23  30
HETATM   30  N1  UNL     1      29.589  42.966   2.012  1.00  0.00    -0.230 N 
ATOM     31  H12 UNL     1      30.453  43.390   1.675  1.00  0.00     0.174 HD
ATOM     32  H11 UNL     1      28.819  43.615   1.847  1.00  0.00     0.174 HD
ENDBRANCH  23  30
ENDBRANCH   1  22
TORSDOF 6
ENDMDL
MODEL 5
REMARK VINA RESULT: -6.604719752      3.312      6.984
REMARK  6 active torsions:
REMARK  status: ('A' for Active; 'I' for Inactive)
REMARK    1  A    between atoms: N1_1  and  C1_4 
REMARK    2  A    between atoms: N5_11  and  N6_12 
REMARK       I    between atoms: N6_12  and  C2_14 
REMARK       I    between atoms: C2_14  and  N8_16 
REMARK    3  A    between atoms: N8_16  and  S1_18 
REMARK    4  A    between atoms: S1_18  and  C3_21 
REMARK    5  A    between atoms: C5_25  and  C6_26 
REMARK    6  A    between atoms: N10_29  and  N11_30 
ROOT
HETATM    1  N6  UNL     1      30.859  40.453   4.173  1.00  0.00    -0.235 N 
ATOM      2  H6  UNL     1      31.623  39.832   3.907  1.00  0.00     0.192 HD
HETATM    3  C2  UNL     1      30.425  40.517   5.534  1.00  0.00     0.219 C 
HETATM    4  N7  UNL     1      29.394  39.612   5.910  1.00  0.00    -0.061 NA
HETATM    5  N8  UNL     1      30.955  41.363   6.368  1.00  0.00    -0.251 N 
ATOM      6  H8  UNL     1      31.692  41.999   6.066  1.00  0.00     0.181 HD
ENDROOT
BRANCH   5   7
HETATM    7  S1  UNL     1      30.388  41.388   7.988  1.00  0.00     0.284 S 
HETATM    8  O1  UNL     1      28.945  40.903   7.985  1.00  0.00    -0.199 OA
HETATM    9  O2  UNL     1      30.376  42.811   8.454  1.00  0.00    -0.199 OA
BRANCH   7  10
HETATM   10  C3  UNL     1      31.364  40.396   9.023  1.00  0.00     0.188 A 
HETATM   11  C4  UNL     1      32.009  40.836  10.161  1.00  0.00     0.135 A 
HETATM   12  N9  UNL     1      32.645  39.763  10.658  1.00  0.00    -0.342 N 
HETATM   13  C5  UNL     1      32.393  38.699   9.843  1.00  0.00     0.205 A 
ATOM     14  H9  UNL     1      33.219  39.746  11.501  1.00  0.00     0.167 HD
HETATM   15  N10 UNL     1      31.601  39.088   8.829  1.00  0.00    -0.226 N 
BRANCH  13  16
HETATM   16  C6  UNL     1      32.923  37.371  10.077  1.00  0.00     0.247 C 
HETATM   17  O3  UNL     1      32.524  36.725  11.069  1.00  0.00    -0.642 OA
HETATM   18  O4  UNL     1      33.857  36.784   9.247  1.00  0.00    -0.642 OA
ENDBRANCH  13  16
BRANCH  15  19
HETATM   19  N11 UNL     1      31.139  38.260   7.802  1.00  0.00    -0.336 N 
ATOM     20 2H11 UNL     1      30.307  37.670   7.849  1.00  0.00     0.177 HD
ATOM     21 1H11 UNL     1      31.537  38.113   6.874  1.00  0.00     0.177 HD
ENDBRANCH  15  19
ENDBRANCH   7  10
ENDBRANCH   5   7
BRANCH   1  22
HETATM   22  N5  UNL     1      30.229  41.246   3.209  1.00  0.00    -0.001 N 
HETATM   23  C1  UNL     1      29.498  40.831   2.165  1.00  0.00     0.729 A 
HETATM   24  N2  UNL     1      29.068  41.916   1.474  1.00  0.00    -0.114 N 
HETATM   25  N3  UNL     1      29.535  42.977   2.094  1.00  0.00    -0.212 N 
ATOM     26  H2  UNL     1      28.491  41.910   0.633  1.00  0.00     0.207 HD
HETATM   27  N4  UNL     1      30.232  42.560   3.137  1.00  0.00    -0.191 N 
ATOM     28  H3  UNL     1      29.385  43.948   1.820  1.00  0.00     0.210 HD
ATOM     29  H4  UNL     1      30.709  43.174   3.797  1.00  0.00     0.212 HD
BRANCH  23  30
HETATM   30  N1  UNL     1      29.230  39.608   1.847  1.00  0.00    -0.230 N 
ATOM     31  H12 UNL     1      29.639  39.074   1.079  1.00  0.00     0.174 HD
ATOM     32  H11 UNL     1      28.562  39.015   2.339  1.00  0.00     0.174 HD
ENDBRANCH  23  30
ENDBRANCH   1  22
TORSDOF 6
ENDMDL
