MODEL 1
REMARK VINA RESULT: -6.602232233      0.000      0.000
REMARK  6 active torsions:
REMARK  status: ('A' for Active; 'I' for Inactive)
REMARK    1  A    between atoms: C1_4  and  N2_5 
REMARK    2  A    between atoms: C1_4  and  C11_29 
REMARK    3  A    between atoms: N2_5  and  C2_7 
REMARK    4  A    between atoms: C3_10  and  N4_11 
REMARK    5  A    between atoms: C8_19  and  C9_20 
REMARK       I    between atoms: C9_20  and  N6_22 
REMARK    6  A    between atoms: N6_22  and  N7_24 
ROOT
HETATM    1  C2  UNL     1      29.658  39.936   6.680  1.00  0.00     0.149 A 
HETATM    2  N3  UNL     1      29.741  41.234   7.010  1.00  0.00    -0.174 N 
ATOM      3  H3  UNL     1      29.842  41.483   7.994  1.00  0.00     0.186 HD
HETATM    4  C3  UNL     1      29.694  42.223   6.091  1.00  0.00     0.682 A 
HETATM    5  N5  UNL     1      29.558  41.853   4.806  1.00  0.00    -0.184 N 
ATOM      6  H5  UNL     1      29.520  42.587   4.099  1.00  0.00     0.184 HD
HETATM    7  C8  UNL     1      29.468  40.581   4.393  1.00  0.00     0.146 A 
HETATM    8  C10 UNL     1      29.518  39.591   5.352  1.00  0.00     0.123 A 
HETATM    9  N8  UNL     1      29.423  38.239   4.915  1.00  0.00    -0.096 NA
ENDROOT
BRANCH   1  10
HETATM   10  N2  UNL     1      29.707  38.904   7.643  1.00  0.00    -0.323 N 
ATOM     11  H2  UNL     1      28.881  38.323   7.782  1.00  0.00     0.169 HD
BRANCH  10  12
HETATM   12  C1  UNL     1      30.870  38.645   8.428  1.00  0.00     0.167 C 
HETATM   13  N1  UNL     1      31.840  37.921   7.994  1.00  0.00    -0.381 N 
ATOM     14  H12 UNL     1      31.763  37.524   7.058  1.00  0.00     0.157 HD
ATOM     15  H11 UNL     1      32.671  37.735   8.555  1.00  0.00     0.157 HD
BRANCH  12  16
HETATM   16  C11 UNL     1      30.980  39.212   9.767  1.00  0.00     0.298 C 
HETATM   17  N9  UNL     1      30.643  40.573  10.038  1.00  0.00    -0.054 NA
HETATM   18  O3  UNL     1      31.383  38.466  10.695  1.00  0.00    -0.268 OA
ENDBRANCH  12  16
ENDBRANCH  10  12
ENDBRANCH   1  10
BRANCH   4  19
HETATM   19  N4  UNL     1      29.786  43.609   6.470  1.00  0.00    -0.213 N 
HETATM   20  C4  UNL     1      30.060  43.883   7.866  1.00  0.00     0.167 C 
HETATM   21  C5  UNL     1      30.875  45.130   8.064  1.00  0.00     0.188 C 
HETATM   22  O1  UNL     1      31.178  45.798   6.904  1.00  0.00    -0.388 OA
HETATM   23  C6  UNL     1      30.127  45.950   6.035  1.00  0.00     0.188 C 
HETATM   24  C7  UNL     1      29.608  44.647   5.492  1.00  0.00     0.167 C 
ENDBRANCH   4  19
BRANCH   7  25
HETATM   25  C9  UNL     1      29.324  40.258   3.005  1.00  0.00     0.288 C 
HETATM   26  O2  UNL     1      30.219  40.605   2.197  1.00  0.00    -0.264 OA
HETATM   27  N6  UNL     1      28.194  39.550   2.485  1.00  0.00    -0.271 N 
ATOM     28  H6  UNL     1      27.460  39.263   3.132  1.00  0.00     0.189 HD
BRANCH  27  29
HETATM   29  N7  UNL     1      28.055  39.240   1.151  1.00  0.00    -0.342 N 
ATOM     30  H72 UNL     1      28.594  39.788   0.482  1.00  0.00     0.176 HD
ATOM     31  H71 UNL     1      27.443  38.495   0.816  1.00  0.00     0.176 HD
ENDBRANCH  27  29
ENDBRANCH   7  25
TORSDOF 6
ENDMDL
MODEL 2
REMARK VINA RESULT: -6.429465564      1.987      2.266
REMARK  6 active torsions:
REMARK  status: ('A' for Active; 'I' for Inactive)
REMARK    1  A    between atoms: C1_4  and  N2_5 
REMARK    2  A    between atoms: C1_4  and  C11_29 
REMARK    3  A    between atoms: N2_5  and  C2_7 
REMARK    4  A    between atoms: C3_10  and  N4_11 
REMARK    5  A    between atoms: C8_19  and  C9_20 
REMARK       I    between atoms: C9_20  and  N6_22 
REMARK    6  A    between atoms: N6_22  and  N7_24 
ROOT
HETATM    1  C2  UNL     1      30.952  40.206   5.965  1.00  0.00     0.149 A 
HETATM    2  N3  UNL     1      31.395  41.208   6.741  1.00  0.00    -0.174 N 
ATOM      3  H3  UNL     1      31.910  40.977   7.591  1.00  0.00     0.186 HD
HETATM    4  C3  UNL     1      31.186  42.508   6.441  1.00  0.00     0.682 A 
HETATM    5  N5  UNL     1      30.502  42.769   5.314  1.00  0.00    -0.184 N 
ATOM      6  H5  UNL     1      30.335  43.747   5.072  1.00  0.00     0.184 HD
HETATM    7  C8  UNL     1      30.025  41.830   4.485  1.00  0.00     0.146 A 
HETATM    8  C10 UNL     1      30.252  40.511   4.816  1.00  0.00     0.123 A 
HETATM    9  N8  UNL     1      29.747  39.510   3.938  1.00  0.00    -0.096 NA
ENDROOT
BRANCH   1  10
HETATM   10  N2  UNL     1      31.171  38.848   6.282  1.00  0.00    -0.323 N 
ATOM     11  H2  UNL     1      31.733  38.280   5.647  1.00  0.00     0.169 HD
BRANCH  10  12
HETATM   12  C1  UNL     1      30.636  38.240   7.455  1.00  0.00     0.167 C 
HETATM   13  N1  UNL     1      29.545  37.559   7.436  1.00  0.00    -0.381 N 
ATOM     14  H12 UNL     1      29.057  37.459   6.546  1.00  0.00     0.157 HD
ATOM     15  H11 UNL     1      29.162  37.124   8.275  1.00  0.00     0.157 HD
BRANCH  12  16
HETATM   16  C11 UNL     1      31.333  38.384   8.728  1.00  0.00     0.298 C 
HETATM   17  N9  UNL     1      32.101  37.319   9.291  1.00  0.00    -0.054 NA
HETATM   18  O3  UNL     1      31.246  39.484   9.331  1.00  0.00    -0.268 OA
ENDBRANCH  12  16
ENDBRANCH  10  12
ENDBRANCH   1  10
BRANCH   4  19
HETATM   19  N4  UNL     1      31.673  43.565   7.288  1.00  0.00    -0.213 N 
HETATM   20  C4  UNL     1      32.325  43.162   8.519  1.00  0.00     0.167 C 
HETATM   21  C5  UNL     1      33.421  44.103   8.930  1.00  0.00     0.188 C 
HETATM   22  O1  UNL     1      33.584  45.182   8.098  1.00  0.00    -0.388 OA
HETATM   23  C6  UNL     1      32.418  45.809   7.733  1.00  0.00     0.188 C 
HETATM   24  C7  UNL     1      31.507  44.941   6.909  1.00  0.00     0.167 C 
ENDBRANCH   4  19
BRANCH   7  25
HETATM   25  C9  UNL     1      29.303  42.181   3.300  1.00  0.00     0.288 C 
HETATM   26  O2  UNL     1      28.158  42.683   3.403  1.00  0.00    -0.264 OA
HETATM   27  N6  UNL     1      29.830  41.985   1.983  1.00  0.00    -0.271 N 
ATOM     28  H6  UNL     1      30.759  41.578   1.886  1.00  0.00     0.189 HD
BRANCH  27  29
HETATM   29  N7  UNL     1      29.136  42.322   0.842  1.00  0.00    -0.342 N 
ATOM     30  H72 UNL     1      28.329  42.937   0.947  1.00  0.00     0.176 HD
ATOM     31  H71 UNL     1      29.396  41.985  -0.085  1.00  0.00     0.176 HD
ENDBRANCH  27  29
ENDBRANCH   7  25
TORSDOF 6
ENDMDL
MODEL 3
REMARK VINA RESULT: -6.301977003      3.799      7.670
REMARK  6 active torsions:
REMARK  status: ('A' for Active; 'I' for Inactive)
REMARK    1  A    between atoms: C1_4  and  N2_5 
REMARK    2  A    between atoms: C1_4  and  C11_29 
REMARK    3  A    between atoms: N2_5  and  C2_7 
REMARK    4  A    between atoms: C3_10  and  N4_11 
REMARK    5  A    between atoms: C8_19  and  C9_20 
REMARK       I    between atoms: C9_20  and  N6_22 
REMARK    6  A    between atoms: N6_22  and  N7_24 
ROOT
HETATM    1  C2  UNL     1      31.825  38.508   9.321  1.00  0.00     0.149 A 
HETATM    2  N3  UNL     1      31.007  39.126  10.187  1.00  0.00    -0.174 N 
ATOM      3  H3  UNL     1      30.280  39.740   9.821  1.00  0.00     0.186 HD
HETATM    4  C3  UNL     1      31.110  38.966  11.525  1.00  0.00     0.682 A 
HETATM    5  N5  UNL     1      32.082  38.150  11.967  1.00  0.00    -0.184 N 
ATOM      6  H5  UNL     1      32.174  38.019  12.975  1.00  0.00     0.184 HD
HETATM    7  C8  UNL     1      32.939  37.497  11.170  1.00  0.00     0.146 A 
HETATM    8  C10 UNL     1      32.812  37.677   9.809  1.00  0.00     0.123 A 
HETATM    9  N8  UNL     1      33.721  36.984   8.960  1.00  0.00    -0.096 NA
ENDROOT
BRANCH   1  10
HETATM   10  N2  UNL     1      31.715  38.676   7.923  1.00  0.00    -0.323 N 
ATOM     11  H2  UNL     1      32.491  39.103   7.418  1.00  0.00     0.169 HD
BRANCH  10  12
HETATM   12  C1  UNL     1      30.559  38.272   7.193  1.00  0.00     0.167 C 
HETATM   13  N1  UNL     1      29.740  37.388   7.643  1.00  0.00    -0.381 N 
ATOM     14  H12 UNL     1      29.935  36.971   8.552  1.00  0.00     0.157 HD
ATOM     15  H11 UNL     1      28.913  37.100   7.121  1.00  0.00     0.157 HD
BRANCH  12  16
HETATM   16  C11 UNL     1      30.279  38.869   5.892  1.00  0.00     0.298 C 
HETATM   17  N9  UNL     1      29.280  38.340   5.019  1.00  0.00    -0.054 NA
HETATM   18  O3  UNL     1      30.946  39.878   5.547  1.00  0.00    -0.268 OA
ENDBRANCH  12  16
ENDBRANCH  10  12
ENDBRANCH   1  10
BRANCH   4  19
HETATM   19  N4  UNL     1      30.220  39.639  12.435  1.00  0.00    -0.213 N 
HETATM   20  C4  UNL     1      29.537  40.812  11.927  1.00  0.00     0.167 C 
HETATM   21  C5  UNL     1      28.168  40.989  12.520  1.00  0.00     0.188 C 
HETATM   22  O1  UNL     1      27.828  40.043  13.453  1.00  0.00    -0.388 OA
HETATM   23  C6  UNL     1      28.805  39.767  14.377  1.00  0.00     0.188 C 
HETATM   24  C7  UNL     1      30.039  39.151  13.775  1.00  0.00     0.167 C 
ENDBRANCH   4  19
BRANCH   7  25
HETATM   25  C9  UNL     1      33.953  36.642  11.710  1.00  0.00     0.288 C 
HETATM   26  O2  UNL     1      34.451  36.911  12.831  1.00  0.00    -0.264 OA
HETATM   27  N6  UNL     1      34.433  35.479  11.028  1.00  0.00    -0.271 N 
ATOM     28  H6  UNL     1      34.037  35.250  10.117  1.00  0.00     0.189 HD
BRANCH  27  29
HETATM   29  N7  UNL     1      35.408  34.656  11.547  1.00  0.00    -0.342 N 
ATOM     30  H72 UNL     1      36.141  34.337  10.913  1.00  0.00     0.176 HD
ATOM     31  H71 UNL     1      35.423  34.361  12.524  1.00  0.00     0.176 HD
ENDBRANCH  27  29
ENDBRANCH   7  25
TORSDOF 6
ENDMDL
MODEL 4
REMARK VINA RESULT: -6.283607824      0.853      1.304
REMARK  6 active torsions:
REMARK  status: ('A' for Active; 'I' for Inactive)
REMARK    1  A    between atoms: C1_4  and  N2_5 
REMARK    2  A    between atoms: C1_4  and  C11_29 
REMARK    3  A    between atoms: N2_5  and  C2_7 
REMARK    4  A    between atoms: C3_10  and  N4_11 
REMARK    5  A    between atoms: C8_19  and  C9_20 
REMARK       I    between atoms: C9_20  and  N6_22 
REMARK    6  A    between atoms: N6_22  and  N7_24 
ROOT
HETATM    1  C2  UNL     1      29.536  40.089   6.564  1.00  0.00     0.149 A 
HETATM    2  N3  UNL     1      29.609  41.403   6.826  1.00  0.00    -0.174 N 
ATOM      3  H3  UNL     1      29.700  41.704   7.797  1.00  0.00     0.186 HD
HETATM    4  C3  UNL     1      29.567  42.342   5.856  1.00  0.00     0.682 A 
HETATM    5  N5  UNL     1      29.446  41.904   4.591  1.00  0.00    -0.184 N 
ATOM      6  H5  UNL     1      29.412  42.601   3.846  1.00  0.00     0.184 HD
HETATM    7  C8  UNL     1      29.366  40.612   4.244  1.00  0.00     0.146 A 
HETATM    8  C10 UNL     1      29.411  39.675   5.254  1.00  0.00     0.123 A 
HETATM    9  N8  UNL     1      29.326  38.301   4.888  1.00  0.00    -0.096 NA
ENDROOT
BRANCH   1  10
HETATM   10  N2  UNL     1      29.580  39.109   7.579  1.00  0.00    -0.323 N 
ATOM     11  H2  UNL     1      29.173  38.192   7.395  1.00  0.00     0.169 HD
BRANCH  10  12
HETATM   12  C1  UNL     1      30.171  39.356   8.854  1.00  0.00     0.167 C 
HETATM   13  N1  UNL     1      29.557  40.007   9.778  1.00  0.00    -0.381 N 
ATOM     14  H12 UNL     1      28.619  40.354   9.579  1.00  0.00     0.157 HD
ATOM     15  H11 UNL     1      29.979  40.183  10.689  1.00  0.00     0.157 HD
BRANCH  12  16
HETATM   16  C11 UNL     1      31.512  38.860   9.138  1.00  0.00     0.298 C 
HETATM   17  N9  UNL     1      31.842  37.474   9.030  1.00  0.00    -0.054 NA
HETATM   18  O3  UNL     1      32.391  39.691   9.485  1.00  0.00    -0.268 OA
ENDBRANCH  12  16
ENDBRANCH  10  12
ENDBRANCH   1  10
BRANCH   4  19
HETATM   19  N4  UNL     1      29.650  43.746   6.162  1.00  0.00    -0.213 N 
HETATM   20  C4  UNL     1      30.765  44.167   6.986  1.00  0.00     0.167 C 
HETATM   21  C5  UNL     1      31.248  45.549   6.649  1.00  0.00     0.188 C 
HETATM   22  O1  UNL     1      30.532  46.173   5.659  1.00  0.00    -0.388 OA
HETATM   23  C6  UNL     1      29.169  46.073   5.783  1.00  0.00     0.188 C 
HETATM   24  C7  UNL     1      28.661  44.662   5.664  1.00  0.00     0.167 C 
ENDBRANCH   4  19
BRANCH   7  25
HETATM   25  C9  UNL     1      29.236  40.217   2.874  1.00  0.00     0.288 C 
HETATM   26  O2  UNL     1      30.167  40.470   2.071  1.00  0.00    -0.264 OA
HETATM   27  N6  UNL     1      28.083  39.538   2.366  1.00  0.00    -0.271 N 
ATOM     28  H6  UNL     1      27.320  39.327   3.009  1.00  0.00     0.189 HD
BRANCH  27  29
HETATM   29  N7  UNL     1      27.958  39.157   1.049  1.00  0.00    -0.342 N 
ATOM     30  H72 UNL     1      27.612  38.217   0.862  1.00  0.00     0.176 HD
ATOM     31  H71 UNL     1      28.195  39.771   0.269  1.00  0.00     0.176 HD
ENDBRANCH  27  29
ENDBRANCH   7  25
TORSDOF 6
ENDMDL
MODEL 5
REMARK VINA RESULT: -6.253597171      1.668      2.196
REMARK  6 active torsions:
REMARK  status: ('A' for Active; 'I' for Inactive)
REMARK    1  A    between atoms: C1_4  and  N2_5 
REMARK    2  A    between atoms: C1_4  and  C11_29 
REMARK    3  A    between atoms: N2_5  and  C2_7 
REMARK    4  A    between atoms: C3_10  and  N4_11 
REMARK    5  A    between atoms: C8_19  and  C9_20 
REMARK       I    between atoms: C9_20  and  N6_22 
REMARK    6  A    between atoms: N6_22  and  N7_24 
ROOT
HETATM    1  C2  UNL     1      31.029  39.587   6.890  1.00  0.00     0.149 A 
HETATM    2  N3  UNL     1      31.542  40.766   7.275  1.00  0.00    -0.174 N 
ATOM      3  H3  UNL     1      32.085  40.805   8.138  1.00  0.00     0.186 HD
HETATM    4  C3  UNL     1      31.367  41.902   6.566  1.00  0.00     0.682 A 
HETATM    5  N5  UNL     1      30.643  41.808   5.436  1.00  0.00    -0.184 N 
ATOM      6  H5  UNL     1      30.501  42.658   4.889  1.00  0.00     0.184 HD
HETATM    7  C8  UNL     1      30.097  40.672   4.982  1.00  0.00     0.146 A 
HETATM    8  C10 UNL     1      30.292  39.527   5.726  1.00  0.00     0.123 A 
HETATM    9  N8  UNL     1      29.712  38.318   5.246  1.00  0.00    -0.096 NA
ENDROOT
BRANCH   1  10
HETATM   10  N2  UNL     1      31.213  38.401   7.633  1.00  0.00    -0.323 N 
ATOM     11  H2  UNL     1      31.204  37.507   7.142  1.00  0.00     0.169 HD
BRANCH  10  12
HETATM   12  C1  UNL     1      31.412  38.407   9.046  1.00  0.00     0.167 C 
HETATM   13  N1  UNL     1      30.764  39.200   9.824  1.00  0.00    -0.381 N 
ATOM     14  H12 UNL     1      30.090  39.840   9.405  1.00  0.00     0.157 HD
ATOM     15  H11 UNL     1      30.906  39.204  10.834  1.00  0.00     0.157 HD
BRANCH  12  16
HETATM   16  C11 UNL     1      32.377  37.492   9.645  1.00  0.00     0.298 C 
HETATM   17  N9  UNL     1      33.569  37.101   8.961  1.00  0.00    -0.054 NA
HETATM   18  O3  UNL     1      32.136  37.046  10.795  1.00  0.00    -0.268 OA
ENDBRANCH  12  16
ENDBRANCH  10  12
ENDBRANCH   1  10
BRANCH   4  19
HETATM   19  N4  UNL     1      31.928  43.155   6.998  1.00  0.00    -0.213 N 
HETATM   20  C4  UNL     1      31.391  44.353   6.384  1.00  0.00     0.167 C 
HETATM   21  C5  UNL     1      31.386  45.531   7.315  1.00  0.00     0.188 C 
HETATM   22  O1  UNL     1      31.918  45.277   8.554  1.00  0.00    -0.388 OA
HETATM   23  C6  UNL     1      33.101  44.581   8.541  1.00  0.00     0.188 C 
HETATM   24  C7  UNL     1      32.968  43.187   7.990  1.00  0.00     0.167 C 
ENDBRANCH   4  19
BRANCH   7  25
HETATM   25  C9  UNL     1      29.337  40.645   3.769  1.00  0.00     0.288 C 
HETATM   26  O2  UNL     1      28.401  41.466   3.612  1.00  0.00    -0.264 OA
HETATM   27  N6  UNL     1      29.595  39.716   2.711  1.00  0.00    -0.271 N 
ATOM     28  H6  UNL     1      30.353  39.045   2.827  1.00  0.00     0.189 HD
BRANCH  27  29
HETATM   29  N7  UNL     1      28.864  39.690   1.544  1.00  0.00    -0.342 N 
ATOM     30  H72 UNL     1      28.000  40.230   1.518  1.00  0.00     0.176 HD
ATOM     31  H71 UNL     1      29.152  39.159   0.722  1.00  0.00     0.176 HD
ENDBRANCH  27  29
ENDBRANCH   7  25
TORSDOF 6
ENDMDL
