MODEL 1
REMARK VINA RESULT: -7.642014339      0.000      0.000
REMARK  8 active torsions:
REMARK  status: ('A' for Active; 'I' for Inactive)
REMARK    1  A    between atoms: N1_1  and  N2_4 
REMARK    2  A    between atoms: N2_4  and  N3_6 
REMARK    3  A    between atoms: N3_6  and  C1_8 
REMARK    4  A    between atoms: C2_11  and  C3_12 
REMARK       I    between atoms: N5_13  and  C4_15 
REMARK    5  A    between atoms: C4_15  and  C5_17 
REMARK    6  A    between atoms: C7_19  and  C8_20 
REMARK    7  A    between atoms: C9_33  and  N12_34 
REMARK    8  A    between atoms: N12_34  and  N13_36 
ROOT
HETATM    1  C3  UNL     1      31.974  37.756   9.358  1.00  0.00     0.097 C 
HETATM    2  N5  UNL     1      31.604  38.734   8.601  1.00  0.00    -0.333 N 
ATOM      3  H5  UNL     1      31.959  39.677   8.756  1.00  0.00     0.168 HD
HETATM    4  C4  UNL     1      30.692  38.466   7.551  1.00  0.00     0.273 C 
HETATM    5  O1  UNL     1      29.922  37.499   7.631  1.00  0.00    -0.266 OA
ENDROOT
BRANCH   1   6
HETATM    6  C2  UNL     1      32.934  38.062  10.456  1.00  0.00     0.208 A 
HETATM    7  N4  UNL     1      33.948  37.057  10.411  1.00  0.00    -0.208 N 
HETATM    8  C1  UNL     1      33.887  36.348  11.457  1.00  0.00     0.696 A 
ATOM      9  H4  UNL     1      34.617  36.930   9.652  1.00  0.00     0.179 HD
HETATM   10  N14 UNL     1      32.840  36.821  12.270  1.00  0.00    -0.176 N 
HETATM   11  C9  UNL     1      32.246  37.825  11.733  1.00  0.00     0.140 A 
ATOM     12  H14 UNL     1      32.587  36.418  13.172  1.00  0.00     0.185 HD
BRANCH   8  13
HETATM   13  N3  UNL     1      34.785  35.250  11.699  1.00  0.00    -0.118 N 
ATOM     14  H3  UNL     1      35.134  35.040  12.635  1.00  0.00     0.207 HD
BRANCH  13  15
HETATM   15  N2  UNL     1      35.153  34.488  10.595  1.00  0.00    -0.235 N 
ATOM     16  H2  UNL     1      35.138  34.907   9.665  1.00  0.00     0.208 HD
BRANCH  15  17
HETATM   17  N1  UNL     1      35.510  33.259  10.734  1.00  0.00    -0.330 N 
ATOM     18  H12 UNL     1      36.468  32.999  10.496  1.00  0.00     0.178 HD
ATOM     19  H11 UNL     1      34.850  32.560  11.074  1.00  0.00     0.178 HD
ENDBRANCH  15  17
ENDBRANCH  13  15
ENDBRANCH   8  13
BRANCH  11  20
HETATM   20  N12 UNL     1      31.148  38.588  12.229  1.00  0.00    -0.293 N 
ATOM     21  H12 UNL     1      30.384  38.111  12.708  1.00  0.00     0.187 HD
BRANCH  20  22
HETATM   22  N13 UNL     1      31.097  39.990  12.069  1.00  0.00    -0.344 N 
ATOM     23 2H13 UNL     1      31.310  40.380  11.151  1.00  0.00     0.176 HD
ATOM     24 1H13 UNL     1      30.854  40.603  12.847  1.00  0.00     0.176 HD
ENDBRANCH  20  22
ENDBRANCH  11  20
ENDBRANCH   1   6
BRANCH   4  25
HETATM   25  C5  UNL     1      30.665  39.321   6.392  1.00  0.00     0.118 A 
HETATM   26  C6  UNL     1      29.865  39.188   5.263  1.00  0.00     0.071 A 
HETATM   27  C7  UNL     1      30.152  40.213   4.396  1.00  0.00     0.097 A 
HETATM   28  N10 UNL     1      31.105  40.942   5.000  1.00  0.00    -0.296 N 
HETATM   29  N11 UNL     1      31.407  40.416   6.177  1.00  0.00    -0.295 N 
ATOM     30  H10 UNL     1      31.535  41.780   4.609  1.00  0.00     0.187 HD
ATOM     31  H11 UNL     1      32.101  40.789   6.824  1.00  0.00     0.187 HD
BRANCH  27  32
HETATM   32  C8  UNL     1      29.541  40.448   3.093  1.00  0.00     0.165 A 
HETATM   33  N6  UNL     1      29.681  41.516   2.290  1.00  0.00    -0.267 N 
HETATM   34  N7  UNL     1      28.967  41.339   1.212  1.00  0.00    -0.227 N 
ATOM     35  H6  UNL     1      30.255  42.335   2.490  1.00  0.00     0.190 HD
HETATM   36  N8  UNL     1      28.378  40.177   1.319  1.00  0.00    -0.227 N 
ATOM     37  H7  UNL     1      28.884  41.988   0.430  1.00  0.00     0.210 HD
HETATM   38  N9  UNL     1      28.713  39.612   2.462  1.00  0.00    -0.267 N 
ATOM     39  H8  UNL     1      27.753  39.770   0.623  1.00  0.00     0.210 HD
ATOM     40  H9  UNL     1      28.397  38.703   2.801  1.00  0.00     0.190 HD
ENDBRANCH  27  32
ENDBRANCH   4  25
TORSDOF 8
ENDMDL
MODEL 2
REMARK VINA RESULT: -7.420885233      1.322      1.512
REMARK  8 active torsions:
REMARK  status: ('A' for Active; 'I' for Inactive)
REMARK    1  A    between atoms: N1_1  and  N2_4 
REMARK    2  A    between atoms: N2_4  and  N3_6 
REMARK    3  A    between atoms: N3_6  and  C1_8 
REMARK    4  A    between atoms: C2_11  and  C3_12 
REMARK       I    between atoms: N5_13  and  C4_15 
REMARK    5  A    between atoms: C4_15  and  C5_17 
REMARK    6  A    between atoms: C7_19  and  C8_20 
REMARK    7  A    between atoms: C9_33  and  N12_34 
REMARK    8  A    between atoms: N12_34  and  N13_36 
ROOT
HETATM    1  C3  UNL     1      31.392  38.892  10.734  1.00  0.00     0.097 C 
HETATM    2  N5  UNL     1      31.607  39.463   9.598  1.00  0.00    -0.333 N 
ATOM      3  H5  UNL     1      32.557  39.652   9.280  1.00  0.00     0.168 HD
HETATM    4  C4  UNL     1      30.492  39.821   8.801  1.00  0.00     0.273 C 
HETATM    5  O1  UNL     1      29.393  40.032   9.333  1.00  0.00    -0.266 OA
ENDROOT
BRANCH   1   6
HETATM    6  C2  UNL     1      32.580  38.524  11.555  1.00  0.00     0.208 A 
HETATM    7  N4  UNL     1      33.501  37.872  10.679  1.00  0.00    -0.208 N 
HETATM    8  C1  UNL     1      33.625  36.661  11.022  1.00  0.00     0.696 A 
ATOM      9  H4  UNL     1      33.984  38.315   9.897  1.00  0.00     0.179 HD
HETATM   10  N14 UNL     1      32.806  36.415  12.139  1.00  0.00    -0.176 N 
HETATM   11  C9  UNL     1      32.169  37.472  12.496  1.00  0.00     0.140 A 
ATOM     12  H14 UNL     1      32.728  35.512  12.607  1.00  0.00     0.185 HD
BRANCH   8  13
HETATM   13  N3  UNL     1      34.490  35.745  10.325  1.00  0.00    -0.118 N 
ATOM     14  H3  UNL     1      34.607  35.784   9.312  1.00  0.00     0.207 HD
BRANCH  13  15
HETATM   15  N2  UNL     1      35.159  34.804  11.102  1.00  0.00    -0.235 N 
ATOM     16  H2  UNL     1      35.491  35.061  12.031  1.00  0.00     0.208 HD
BRANCH  15  17
HETATM   17  N1  UNL     1      35.362  33.612  10.660  1.00  0.00    -0.330 N 
ATOM     18  H12 UNL     1      35.400  33.465   9.651  1.00  0.00     0.178 HD
ATOM     19  H11 UNL     1      35.483  32.831  11.305  1.00  0.00     0.178 HD
ENDBRANCH  15  17
ENDBRANCH  13  15
ENDBRANCH   8  13
BRANCH  11  20
HETATM   20  N12 UNL     1      31.249  37.645  13.569  1.00  0.00    -0.293 N 
ATOM     21  H12 UNL     1      31.268  38.509  14.111  1.00  0.00     0.187 HD
BRANCH  20  22
HETATM   22  N13 UNL     1      30.309  36.643  13.899  1.00  0.00    -0.344 N 
ATOM     23 2H13 UNL     1      30.439  35.710  13.507  1.00  0.00     0.176 HD
ATOM     24 1H13 UNL     1      29.518  36.840  14.513  1.00  0.00     0.176 HD
ENDBRANCH  20  22
ENDBRANCH  11  20
ENDBRANCH   1   6
BRANCH   4  25
HETATM   25  C5  UNL     1      30.641  39.939   7.374  1.00  0.00     0.118 A 
HETATM   26  C6  UNL     1      29.657  39.779   6.405  1.00  0.00     0.071 A 
HETATM   27  C7  UNL     1      30.219  39.978   5.168  1.00  0.00     0.097 A 
HETATM   28  N10 UNL     1      31.514  40.252   5.398  1.00  0.00    -0.296 N 
HETATM   29  N11 UNL     1      31.762  40.229   6.698  1.00  0.00    -0.295 N 
ATOM     30  H10 UNL     1      32.206  40.448   4.675  1.00  0.00     0.187 HD
ATOM     31  H11 UNL     1      32.672  40.406   7.123  1.00  0.00     0.187 HD
BRANCH  27  32
HETATM   32  C8  UNL     1      29.537  39.904   3.881  1.00  0.00     0.165 A 
HETATM   33  N6  UNL     1      29.929  40.416   2.702  1.00  0.00    -0.267 N 
HETATM   34  N7  UNL     1      29.039  40.130   1.792  1.00  0.00    -0.227 N 
ATOM     35  H6  UNL     1      30.787  40.945   2.544  1.00  0.00     0.190 HD
HETATM   36  N8  UNL     1      28.091  39.445   2.374  1.00  0.00    -0.227 N 
ATOM     37  H7  UNL     1      29.077  40.393   0.808  1.00  0.00     0.210 HD
HETATM   38  N9  UNL     1      28.372  39.292   3.653  1.00  0.00    -0.267 N 
ATOM     39  H8  UNL     1      27.258  39.083   1.909  1.00  0.00     0.210 HD
ATOM     40  H9  UNL     1      27.804  38.799   4.342  1.00  0.00     0.190 HD
ENDBRANCH  27  32
ENDBRANCH   4  25
TORSDOF 8
ENDMDL
MODEL 3
REMARK VINA RESULT: -7.133134098      1.692      2.317
REMARK  8 active torsions:
REMARK  status: ('A' for Active; 'I' for Inactive)
REMARK    1  A    between atoms: N1_1  and  N2_4 
REMARK    2  A    between atoms: N2_4  and  N3_6 
REMARK    3  A    between atoms: N3_6  and  C1_8 
REMARK    4  A    between atoms: C2_11  and  C3_12 
REMARK       I    between atoms: N5_13  and  C4_15 
REMARK    5  A    between atoms: C4_15  and  C5_17 
REMARK    6  A    between atoms: C7_19  and  C8_20 
REMARK    7  A    between atoms: C9_33  and  N12_34 
REMARK    8  A    between atoms: N12_34  and  N13_36 
ROOT
HETATM    1  C3  UNL     1      31.565  38.983  11.637  1.00  0.00     0.097 C 
HETATM    2  N5  UNL     1      31.592  39.057  10.350  1.00  0.00    -0.333 N 
ATOM      3  H5  UNL     1      32.399  38.721   9.824  1.00  0.00     0.168 HD
HETATM    4  C4  UNL     1      30.476  39.619   9.682  1.00  0.00     0.273 C 
HETATM    5  O1  UNL     1      29.742  40.423  10.273  1.00  0.00    -0.266 OA
ENDROOT
BRANCH   1   6
HETATM    6  C2  UNL     1      32.751  38.389  12.317  1.00  0.00     0.208 A 
HETATM    7  N4  UNL     1      33.620  37.911  11.289  1.00  0.00    -0.208 N 
HETATM    8  C1  UNL     1      33.690  36.649  11.349  1.00  0.00     0.696 A 
ATOM      9  H4  UNL     1      34.107  38.496  10.611  1.00  0.00     0.179 HD
HETATM   10  N14 UNL     1      32.884  36.195  12.409  1.00  0.00    -0.176 N 
HETATM   11  C9  UNL     1      32.308  37.172  13.012  1.00  0.00     0.140 A 
ATOM     12  H14 UNL     1      32.771  35.215  12.666  1.00  0.00     0.185 HD
BRANCH   8  13
HETATM   13  N3  UNL     1      34.494  35.876  10.438  1.00  0.00    -0.118 N 
ATOM     14  H3  UNL     1      34.525  36.085   9.441  1.00  0.00     0.207 HD
BRANCH  13  15
HETATM   15  N2  UNL     1      35.226  34.828  10.987  1.00  0.00    -0.235 N 
ATOM     16  H2  UNL     1      35.713  34.962  11.874  1.00  0.00     0.208 HD
BRANCH  15  17
HETATM   17  N1  UNL     1      35.296  33.691  10.389  1.00  0.00    -0.330 N 
ATOM     18  H12 UNL     1      35.447  33.678   9.380  1.00  0.00     0.178 HD
ATOM     19  H11 UNL     1      35.202  32.820  10.913  1.00  0.00     0.178 HD
ENDBRANCH  15  17
ENDBRANCH  13  15
ENDBRANCH   8  13
BRANCH  11  20
HETATM   20  N12 UNL     1      31.420  37.140  14.126  1.00  0.00    -0.293 N 
ATOM     21  H12 UNL     1      31.688  37.605  14.994  1.00  0.00     0.187 HD
BRANCH  20  22
HETATM   22  N13 UNL     1      30.175  36.476  14.054  1.00  0.00    -0.344 N 
ATOM     23 2H13 UNL     1      30.043  35.633  14.613  1.00  0.00     0.176 HD
ATOM     24 1H13 UNL     1      29.422  36.825  13.460  1.00  0.00     0.176 HD
ENDBRANCH  20  22
ENDBRANCH  11  20
ENDBRANCH   1   6
BRANCH   4  25
HETATM   25  C5  UNL     1      30.199  39.251   8.318  1.00  0.00     0.118 A 
HETATM   26  C6  UNL     1      30.205  40.079   7.202  1.00  0.00     0.071 A 
HETATM   27  C7  UNL     1      29.887  39.331   6.096  1.00  0.00     0.097 A 
HETATM   28  N10 UNL     1      29.696  38.080   6.547  1.00  0.00    -0.296 N 
HETATM   29  N11 UNL     1      29.880  38.034   7.857  1.00  0.00    -0.295 N 
ATOM     30  H10 UNL     1      29.445  37.281   5.965  1.00  0.00     0.187 HD
ATOM     31  H11 UNL     1      29.792  37.195   8.431  1.00  0.00     0.187 HD
BRANCH  27  32
HETATM   32  C8  UNL     1      29.783  39.809   4.722  1.00  0.00     0.165 A 
HETATM   33  N6  UNL     1      29.109  39.257   3.698  1.00  0.00    -0.267 N 
HETATM   34  N7  UNL     1      29.268  39.993   2.633  1.00  0.00    -0.227 N 
ATOM     35  H6  UNL     1      28.560  38.399   3.747  1.00  0.00     0.190 HD
HETATM   36  N8  UNL     1      30.029  41.002   2.965  1.00  0.00    -0.227 N 
ATOM     37  H7  UNL     1      28.870  39.814   1.711  1.00  0.00     0.210 HD
HETATM   38  N9  UNL     1      30.358  40.912   4.238  1.00  0.00    -0.267 N 
ATOM     39  H8  UNL     1      30.325  41.747   2.333  1.00  0.00     0.210 HD
ATOM     40  H9  UNL     1      30.945  41.566   4.758  1.00  0.00     0.190 HD
ENDBRANCH  27  32
ENDBRANCH   4  25
TORSDOF 8
ENDMDL
MODEL 4
REMARK VINA RESULT: -7.116422367      2.698      5.148
REMARK  8 active torsions:
REMARK  status: ('A' for Active; 'I' for Inactive)
REMARK    1  A    between atoms: N1_1  and  N2_4 
REMARK    2  A    between atoms: N2_4  and  N3_6 
REMARK    3  A    between atoms: N3_6  and  C1_8 
REMARK    4  A    between atoms: C2_11  and  C3_12 
REMARK       I    between atoms: N5_13  and  C4_15 
REMARK    5  A    between atoms: C4_15  and  C5_17 
REMARK    6  A    between atoms: C7_19  and  C8_20 
REMARK    7  A    between atoms: C9_33  and  N12_34 
REMARK    8  A    between atoms: N12_34  and  N13_36 
ROOT
HETATM    1  C3  UNL     1      30.403  39.665   6.982  1.00  0.00     0.097 C 
HETATM    2  N5  UNL     1      29.742  40.157   5.990  1.00  0.00    -0.333 N 
ATOM      3  H5  UNL     1      29.433  41.129   5.998  1.00  0.00     0.168 HD
HETATM    4  C4  UNL     1      29.453  39.315   4.888  1.00  0.00     0.273 C 
HETATM    5  O1  UNL     1      29.393  38.087   5.046  1.00  0.00    -0.266 OA
ENDROOT
BRANCH   1   6
HETATM    6  C2  UNL     1      30.695  40.570   8.130  1.00  0.00     0.208 A 
HETATM    7  N4  UNL     1      31.103  41.822   7.575  1.00  0.00    -0.208 N 
HETATM    8  C1  UNL     1      32.317  42.034   7.861  1.00  0.00     0.696 A 
ATOM      9  H4  UNL     1      30.509  42.447   7.033  1.00  0.00     0.179 HD
HETATM   10  N14 UNL     1      32.805  40.953   8.619  1.00  0.00    -0.176 N 
HETATM   11  C9  UNL     1      31.897  40.065   8.808  1.00  0.00     0.140 A 
ATOM     12  H14 UNL     1      33.758  40.884   8.974  1.00  0.00     0.185 HD
BRANCH   8  13
HETATM   13  N3  UNL     1      33.015  43.220   7.439  1.00  0.00    -0.118 N 
ATOM     14  H3  UNL     1      32.518  44.081   7.210  1.00  0.00     0.207 HD
BRANCH  13  15
HETATM   15  N2  UNL     1      34.402  43.134   7.359  1.00  0.00    -0.235 N 
ATOM     16  H2  UNL     1      34.831  42.570   6.625  1.00  0.00     0.208 HD
BRANCH  15  17
HETATM   17  N1  UNL     1      35.148  43.758   8.201  1.00  0.00    -0.330 N 
ATOM     18  H12 UNL     1      35.460  43.264   9.038  1.00  0.00     0.178 HD
ATOM     19  H11 UNL     1      35.423  44.726   8.036  1.00  0.00     0.178 HD
ENDBRANCH  15  17
ENDBRANCH  13  15
ENDBRANCH   8  13
BRANCH  11  20
HETATM   20  N12 UNL     1      31.982  38.832   9.517  1.00  0.00    -0.293 N 
ATOM     21  H12 UNL     1      31.433  38.705  10.368  1.00  0.00     0.187 HD
BRANCH  20  22
HETATM   22  N13 UNL     1      32.811  37.781   9.067  1.00  0.00    -0.344 N 
ATOM     23 2H13 UNL     1      33.049  37.744   8.075  1.00  0.00     0.176 HD
ATOM     24 1H13 UNL     1      33.166  37.073   9.710  1.00  0.00     0.176 HD
ENDBRANCH  20  22
ENDBRANCH  11  20
ENDBRANCH   1   6
BRANCH   4  25
HETATM   25  C5  UNL     1      29.230  39.890   3.587  1.00  0.00     0.118 A 
HETATM   26  C6  UNL     1      29.570  41.167   3.158  1.00  0.00     0.071 A 
HETATM   27  C7  UNL     1      29.181  41.311   1.849  1.00  0.00     0.097 A 
HETATM   28  N10 UNL     1      28.621  40.139   1.507  1.00  0.00    -0.296 N 
HETATM   29  N11 UNL     1      28.650  39.302   2.532  1.00  0.00    -0.295 N 
ATOM     30  H10 UNL     1      28.229  39.926   0.590  1.00  0.00     0.187 HD
ATOM     31  H11 UNL     1      28.284  38.349   2.519  1.00  0.00     0.187 HD
BRANCH  27  32
HETATM   32  C8  UNL     1      29.349  42.497   1.017  1.00  0.00     0.165 A 
HETATM   33  N6  UNL     1      28.645  42.856  -0.070  1.00  0.00    -0.267 N 
HETATM   34  N7  UNL     1      29.109  43.986  -0.528  1.00  0.00    -0.227 N 
ATOM     35  H6  UNL     1      27.870  42.329  -0.472  1.00  0.00     0.190 HD
HETATM   36  N8  UNL     1      30.094  44.349   0.250  1.00  0.00    -0.227 N 
ATOM     37  H7  UNL     1      28.765  44.494  -1.343  1.00  0.00     0.210 HD
HETATM   38  N9  UNL     1      30.262  43.454   1.204  1.00  0.00    -0.267 N 
ATOM     39  H8  UNL     1      30.651  45.197   0.137  1.00  0.00     0.210 HD
ATOM     40  H9  UNL     1      30.960  43.486   1.947  1.00  0.00     0.190 HD
ENDBRANCH  27  32
ENDBRANCH   4  25
TORSDOF 8
ENDMDL
MODEL 5
REMARK VINA RESULT: -7.014887470      2.325      8.778
REMARK  8 active torsions:
REMARK  status: ('A' for Active; 'I' for Inactive)
REMARK    1  A    between atoms: N1_1  and  N2_4 
REMARK    2  A    between atoms: N2_4  and  N3_6 
REMARK    3  A    between atoms: N3_6  and  C1_8 
REMARK    4  A    between atoms: C2_11  and  C3_12 
REMARK       I    between atoms: N5_13  and  C4_15 
REMARK    5  A    between atoms: C4_15  and  C5_17 
REMARK    6  A    between atoms: C7_19  and  C8_20 
REMARK    7  A    between atoms: C9_33  and  N12_34 
REMARK    8  A    between atoms: N12_34  and  N13_36 
ROOT
HETATM    1  C3  UNL     1      30.962  40.348   9.734  1.00  0.00     0.097 C 
HETATM    2  N5  UNL     1      31.500  39.176   9.710  1.00  0.00    -0.333 N 
ATOM      3  H5  UNL     1      31.625  38.677   8.829  1.00  0.00     0.168 HD
HETATM    4  C4  UNL     1      31.912  38.597  10.934  1.00  0.00     0.273 C 
HETATM    5  O1  UNL     1      31.372  38.941  11.995  1.00  0.00    -0.266 OA
ENDROOT
BRANCH   1   6
HETATM    6  C2  UNL     1      30.537  40.937   8.433  1.00  0.00     0.208 A 
HETATM    7  N4  UNL     1      29.518  40.086   7.908  1.00  0.00    -0.208 N 
HETATM    8  C1  UNL     1      29.934  39.532   6.849  1.00  0.00     0.696 A 
ATOM      9  H4  UNL     1      28.597  39.945   8.322  1.00  0.00     0.179 HD
HETATM   10  N14 UNL     1      31.247  39.968   6.591  1.00  0.00    -0.176 N 
HETATM   11  C9  UNL     1      31.652  40.793   7.487  1.00  0.00     0.140 A 
ATOM     12  H14 UNL     1      31.805  39.666   5.792  1.00  0.00     0.185 HD
BRANCH   8  13
HETATM   13  N3  UNL     1      29.127  38.614   6.088  1.00  0.00    -0.118 N 
ATOM     14  H3  UNL     1      28.328  38.133   6.501  1.00  0.00     0.207 HD
BRANCH  13  15
HETATM   15  N2  UNL     1      29.492  38.416   4.760  1.00  0.00    -0.235 N 
ATOM     16  H2  UNL     1      30.059  37.607   4.507  1.00  0.00     0.208 HD
BRANCH  15  17
HETATM   17  N1  UNL     1      29.120  39.243   3.846  1.00  0.00    -0.330 N 
ATOM     18  H12 UNL     1      29.059  40.234   4.080  1.00  0.00     0.178 HD
ATOM     19  H11 UNL     1      28.892  38.914   2.908  1.00  0.00     0.178 HD
ENDBRANCH  15  17
ENDBRANCH  13  15
ENDBRANCH   8  13
BRANCH  11  20
HETATM   20  N12 UNL     1      32.908  41.459   7.591  1.00  0.00    -0.293 N 
ATOM     21  H12 UNL     1      33.754  40.911   7.749  1.00  0.00     0.187 HD
BRANCH  20  22
HETATM   22  N13 UNL     1      33.005  42.863   7.478  1.00  0.00    -0.344 N 
ATOM     23 2H13 UNL     1      32.150  43.397   7.318  1.00  0.00     0.176 HD
ATOM     24 1H13 UNL     1      33.904  43.341   7.554  1.00  0.00     0.176 HD
ENDBRANCH  20  22
ENDBRANCH  11  20
ENDBRANCH   1   6
BRANCH   4  25
HETATM   25  C5  UNL     1      32.959  37.608  10.943  1.00  0.00     0.118 A 
HETATM   26  C6  UNL     1      34.030  37.519  11.823  1.00  0.00     0.071 A 
HETATM   27  C7  UNL     1      34.794  36.431  11.481  1.00  0.00     0.097 A 
HETATM   28  N10 UNL     1      34.186  35.882  10.417  1.00  0.00    -0.296 N 
HETATM   29  N11 UNL     1      33.104  36.577  10.099  1.00  0.00    -0.295 N 
ATOM     30  H10 UNL     1      34.510  35.051   9.923  1.00  0.00     0.187 HD
ATOM     31  H11 UNL     1      32.474  36.358   9.327  1.00  0.00     0.187 HD
BRANCH  27  32
HETATM   32  C8  UNL     1      36.010  35.977  12.146  1.00  0.00     0.165 A 
HETATM   33  N6  UNL     1      37.064  36.710  12.541  1.00  0.00    -0.267 N 
HETATM   34  N7  UNL     1      37.947  35.927  13.098  1.00  0.00    -0.227 N 
ATOM     35  H6  UNL     1      37.159  37.719  12.425  1.00  0.00     0.190 HD
HETATM   36  N8  UNL     1      37.470  34.711  13.062  1.00  0.00    -0.227 N 
ATOM     37  H7  UNL     1      38.845  36.213  13.488  1.00  0.00     0.210 HD
HETATM   38  N9  UNL     1      36.285  34.715  12.485  1.00  0.00    -0.267 N 
ATOM     39  H8  UNL     1      37.944  33.884  13.426  1.00  0.00     0.210 HD
ATOM     40  H9  UNL     1      35.688  33.902  12.325  1.00  0.00     0.190 HD
ENDBRANCH  27  32
ENDBRANCH   4  25
TORSDOF 8
ENDMDL
