MODEL 1
REMARK VINA RESULT: -6.574223428      0.000      0.000
REMARK  7 active torsions:
REMARK  status: ('A' for Active; 'I' for Inactive)
REMARK    1  A    between atoms: C3_6  and  N3_7 
REMARK    2  A    between atoms: C4_12  and  C5_13 
REMARK       I    between atoms: C5_13  and  N5_15 
REMARK    3  A    between atoms: N5_15  and  C6_17 
REMARK    4  A    between atoms: C6_17  and  C7_18 
REMARK    5  A    between atoms: C7_18  and  O2_19 
REMARK    6  A    between atoms: N6_24  and  N7_25 
REMARK    7  A    between atoms: N7_25  and  C10_27 
ROOT
HETATM    1  C1  UNL     1      29.784  39.935   9.298  1.00  0.00     0.182 C 
HETATM    2  N1  UNL     1      30.954  39.166   9.652  1.00  0.00    -0.255 N 
HETATM    3  C2  UNL     1      31.501  39.206  10.895  1.00  0.00     0.157 A 
HETATM    4  N2  UNL     1      31.169  39.883  11.999  1.00  0.00    -0.174 N 
ATOM      5  H2  UNL     1      30.360  40.505  11.992  1.00  0.00     0.186 HD
HETATM    6  C3  UNL     1      31.893  39.747  13.106  1.00  0.00     0.678 A 
HETATM    7  N4  UNL     1      32.967  38.947  13.182  1.00  0.00    -0.185 N 
ATOM      8  H4  UNL     1      33.495  38.871  14.052  1.00  0.00     0.184 HD
HETATM    9  C4  UNL     1      33.342  38.239  12.086  1.00  0.00     0.136 A 
HETATM   10  C8  UNL     1      32.589  38.373  10.912  1.00  0.00     0.114 A 
HETATM   11  C9  UNL     1      32.664  37.847   9.649  1.00  0.00     0.298 A 
HETATM   12  O3  UNL     1      33.509  37.039   9.220  1.00  0.00    -0.264 OA
HETATM   13  N6  UNL     1      31.634  38.356   8.885  1.00  0.00    -0.150 N 
ENDROOT
BRANCH  13  14
HETATM   14  N7  UNL     1      31.454  38.000   7.546  1.00  0.00    -0.246 N 
ATOM     15  H7  UNL     1      31.730  37.053   7.287  1.00  0.00     0.192 HD
BRANCH  14  16
HETATM   16  C10 UNL     1      30.937  38.800   6.521  1.00  0.00     0.192 C 
HETATM   17  N8  UNL     1      29.846  38.496   5.883  1.00  0.00    -0.360 N 
HETATM   18  C11 UNL     1      29.529  39.471   4.886  1.00  0.00     0.142 C 
ATOM     19  H8  UNL     1      29.286  37.664   6.070  1.00  0.00     0.162 HD
HETATM   20  C12 UNL     1      30.778  40.306   4.796  1.00  0.00     0.142 C 
HETATM   21  N9  UNL     1      31.454  40.020   6.035  1.00  0.00    -0.360 N 
ATOM     22  H9  UNL     1      32.172  40.593   6.479  1.00  0.00     0.162 HD
ENDBRANCH  14  16
ENDBRANCH  13  14
BRANCH   9  23
HETATM   23  C5  UNL     1      34.502  37.397  12.146  1.00  0.00     0.270 C 
HETATM   24  O1  UNL     1      35.669  37.798  12.193  1.00  0.00    -0.266 OA
HETATM   25  N5  UNL     1      34.329  35.977  12.153  1.00  0.00    -0.354 N 
ATOM     26  H5  UNL     1      33.397  35.564  12.119  1.00  0.00     0.162 HD
BRANCH  25  27
HETATM   27  C6  UNL     1      35.522  35.133  12.210  1.00  0.00     0.149 C 
BRANCH  27  28
HETATM   28  C7  UNL     1      35.520  34.116  11.104  1.00  0.00     0.183 C 
BRANCH  28  29
HETATM   29  O2  UNL     1      34.808  34.525   9.998  1.00  0.00    -0.399 OA
ATOM     30  H2  UNL     1      33.872  34.388  10.088  1.00  0.00     0.209 HD
ENDBRANCH  28  29
ENDBRANCH  27  28
ENDBRANCH  25  27
ENDBRANCH   9  23
BRANCH   6  31
HETATM   31  N3  UNL     1      31.586  40.397  14.191  1.00  0.00    -0.234 N 
ATOM     32  H32 UNL     1      30.930  39.936  14.820  1.00  0.00     0.174 HD
ATOM     33  H31 UNL     1      31.987  41.315  14.382  1.00  0.00     0.174 HD
ENDBRANCH   6  31
TORSDOF 7
ENDMDL
MODEL 2
REMARK VINA RESULT: -6.311976978      1.655      2.137
REMARK  7 active torsions:
REMARK  status: ('A' for Active; 'I' for Inactive)
REMARK    1  A    between atoms: C3_6  and  N3_7 
REMARK    2  A    between atoms: C4_12  and  C5_13 
REMARK       I    between atoms: C5_13  and  N5_15 
REMARK    3  A    between atoms: N5_15  and  C6_17 
REMARK    4  A    between atoms: C6_17  and  C7_18 
REMARK    5  A    between atoms: C7_18  and  O2_19 
REMARK    6  A    between atoms: N6_24  and  N7_25 
REMARK    7  A    between atoms: N7_25  and  C10_27 
ROOT
HETATM    1  C1  UNL     1      29.467  41.149   7.642  1.00  0.00     0.182 C 
HETATM    2  N1  UNL     1      30.210  40.141   8.361  1.00  0.00    -0.255 N 
HETATM    3  C2  UNL     1      30.347  40.165   9.712  1.00  0.00     0.157 A 
HETATM    4  N2  UNL     1      29.905  41.017  10.644  1.00  0.00    -0.174 N 
ATOM      5  H2  UNL     1      29.345  41.826  10.371  1.00  0.00     0.186 HD
HETATM    6  C3  UNL     1      30.195  40.811  11.925  1.00  0.00     0.678 A 
HETATM    7  N4  UNL     1      30.925  39.769  12.350  1.00  0.00    -0.185 N 
ATOM      8  H4  UNL     1      31.125  39.648  13.343  1.00  0.00     0.184 HD
HETATM    9  C4  UNL     1      31.395  38.878  11.441  1.00  0.00     0.136 A 
HETATM   10  C8  UNL     1      31.099  39.082  10.087  1.00  0.00     0.114 A 
HETATM   11  C9  UNL     1      31.398  38.426   8.922  1.00  0.00     0.298 A 
HETATM   12  O3  UNL     1      32.067  37.384   8.795  1.00  0.00    -0.264 OA
HETATM   13  N6  UNL     1      30.831  39.106   7.862  1.00  0.00    -0.150 N 
ENDROOT
BRANCH  13  14
HETATM   14  N7  UNL     1      30.968  38.672   6.542  1.00  0.00    -0.246 N 
ATOM     15  H7  UNL     1      31.479  37.801   6.400  1.00  0.00     0.192 HD
BRANCH  14  16
HETATM   16  C10 UNL     1      30.480  39.301   5.390  1.00  0.00     0.192 C 
HETATM   17  N8  UNL     1      31.021  40.378   4.903  1.00  0.00    -0.360 N 
HETATM   18  C11 UNL     1      30.341  40.822   3.725  1.00  0.00     0.142 C 
ATOM     19  H8  UNL     1      31.830  40.848   5.310  1.00  0.00     0.162 HD
HETATM   20  C12 UNL     1      29.079  40.003   3.714  1.00  0.00     0.142 C 
HETATM   21  N9  UNL     1      29.396  38.898   4.581  1.00  0.00    -0.360 N 
ATOM     22  H9  UNL     1      28.926  37.994   4.606  1.00  0.00     0.162 HD
ENDBRANCH  14  16
ENDBRANCH  13  14
BRANCH   9  23
HETATM   23  C5  UNL     1      32.198  37.771  11.878  1.00  0.00     0.270 C 
HETATM   24  O1  UNL     1      31.771  36.773  12.468  1.00  0.00    -0.266 OA
HETATM   25  N5  UNL     1      33.606  37.794  11.628  1.00  0.00    -0.354 N 
ATOM     26  H5  UNL     1      34.038  38.581  11.144  1.00  0.00     0.162 HD
BRANCH  25  27
HETATM   27  C6  UNL     1      34.410  36.660  12.083  1.00  0.00     0.149 C 
BRANCH  27  28
HETATM   28  C7  UNL     1      34.945  35.873  10.920  1.00  0.00     0.183 C 
BRANCH  28  29
HETATM   29  O2  UNL     1      34.396  36.253   9.715  1.00  0.00    -0.399 OA
ATOM     30  H2  UNL     1      34.736  35.757   8.980  1.00  0.00     0.209 HD
ENDBRANCH  28  29
ENDBRANCH  27  28
ENDBRANCH  25  27
ENDBRANCH   9  23
BRANCH   6  31
HETATM   31  N3  UNL     1      29.774  41.629  12.846  1.00  0.00    -0.234 N 
ATOM     32  H32 UNL     1      28.764  41.757  12.904  1.00  0.00     0.174 HD
ATOM     33  H31 UNL     1      30.431  42.106  13.462  1.00  0.00     0.174 HD
ENDBRANCH   6  31
TORSDOF 7
ENDMDL
MODEL 3
REMARK VINA RESULT: -6.269091089      5.788      7.968
REMARK  7 active torsions:
REMARK  status: ('A' for Active; 'I' for Inactive)
REMARK    1  A    between atoms: C3_6  and  N3_7 
REMARK    2  A    between atoms: C4_12  and  C5_13 
REMARK       I    between atoms: C5_13  and  N5_15 
REMARK    3  A    between atoms: N5_15  and  C6_17 
REMARK    4  A    between atoms: C6_17  and  C7_18 
REMARK    5  A    between atoms: C7_18  and  O2_19 
REMARK    6  A    between atoms: N6_24  and  N7_25 
REMARK    7  A    between atoms: N7_25  and  C10_27 
ROOT
HETATM    1  C1  UNL     1      29.062  39.954   1.784  1.00  0.00     0.182 C 
HETATM    2  N1  UNL     1      29.520  40.803   2.859  1.00  0.00    -0.255 N 
HETATM    3  C2  UNL     1      29.670  40.348   4.130  1.00  0.00     0.157 A 
HETATM    4  N2  UNL     1      29.457  39.149   4.685  1.00  0.00    -0.174 N 
ATOM      5  H2  UNL     1      29.125  38.374   4.112  1.00  0.00     0.186 HD
HETATM    6  C3  UNL     1      29.679  38.969   5.984  1.00  0.00     0.678 A 
HETATM    7  N4  UNL     1      30.115  39.946   6.793  1.00  0.00    -0.185 N 
ATOM      8  H4  UNL     1      30.272  39.765   7.784  1.00  0.00     0.184 HD
HETATM    9  C4  UNL     1      30.345  41.179   6.274  1.00  0.00     0.136 A 
HETATM   10  C8  UNL     1      30.116  41.385   4.907  1.00  0.00     0.114 A 
HETATM   11  C9  UNL     1      30.222  42.456   4.059  1.00  0.00     0.298 A 
HETATM   12  O3  UNL     1      30.592  43.609   4.346  1.00  0.00    -0.264 OA
HETATM   13  N6  UNL     1      29.846  42.066   2.790  1.00  0.00    -0.150 N 
ENDROOT
BRANCH  13  14
HETATM   14  N7  UNL     1      29.849  42.950   1.708  1.00  0.00    -0.246 N 
ATOM     15  H7  UNL     1      30.680  42.939   1.116  1.00  0.00     0.192 HD
BRANCH  14  16
HETATM   16  C10 UNL     1      28.839  43.848   1.346  1.00  0.00     0.192 C 
HETATM   17  N8  UNL     1      28.232  44.600   2.215  1.00  0.00    -0.360 N 
HETATM   18  C11 UNL     1      27.244  45.429   1.596  1.00  0.00     0.142 C 
ATOM     19  H8  UNL     1      28.436  44.600   3.215  1.00  0.00     0.162 HD
HETATM   20  C12 UNL     1      27.117  44.855   0.210  1.00  0.00     0.142 C 
HETATM   21  N9  UNL     1      28.337  44.106   0.053  1.00  0.00    -0.360 N 
ATOM     22  H9  UNL     1      28.760  43.816  -0.829  1.00  0.00     0.162 HD
ENDBRANCH  14  16
ENDBRANCH  13  14
BRANCH   9  23
HETATM   23  C5  UNL     1      30.790  42.240   7.132  1.00  0.00     0.270 C 
HETATM   24  O1  UNL     1      30.099  42.797   7.991  1.00  0.00    -0.266 OA
HETATM   25  N5  UNL     1      32.134  42.715   7.009  1.00  0.00    -0.354 N 
ATOM     26  H5  UNL     1      32.772  42.307   6.325  1.00  0.00     0.162 HD
BRANCH  25  27
HETATM   27  C6  UNL     1      32.570  43.799   7.888  1.00  0.00     0.149 C 
BRANCH  27  28
HETATM   28  C7  UNL     1      34.056  44.005   7.798  1.00  0.00     0.183 C 
BRANCH  28  29
HETATM   29  O2  UNL     1      34.738  42.860   7.450  1.00  0.00    -0.399 OA
ATOM     30  H2  UNL     1      35.653  42.882   7.705  1.00  0.00     0.209 HD
ENDBRANCH  28  29
ENDBRANCH  27  28
ENDBRANCH  25  27
ENDBRANCH   9  23
BRANCH   6  31
HETATM   31  N3  UNL     1      29.478  37.811   6.542  1.00  0.00    -0.234 N 
ATOM     32  H32 UNL     1      28.682  37.277   6.193  1.00  0.00     0.174 HD
ATOM     33  H31 UNL     1      30.090  37.474   7.284  1.00  0.00     0.174 HD
ENDBRANCH   6  31
TORSDOF 7
ENDMDL
MODEL 4
REMARK VINA RESULT: -6.253350644      3.842      8.448
REMARK  7 active torsions:
REMARK  status: ('A' for Active; 'I' for Inactive)
REMARK    1  A    between atoms: C3_6  and  N3_7 
REMARK    2  A    between atoms: C4_12  and  C5_13 
REMARK       I    between atoms: C5_13  and  N5_15 
REMARK    3  A    between atoms: N5_15  and  C6_17 
REMARK    4  A    between atoms: C6_17  and  C7_18 
REMARK    5  A    between atoms: C7_18  and  O2_19 
REMARK    6  A    between atoms: N6_24  and  N7_25 
REMARK    7  A    between atoms: N7_25  and  C10_27 
ROOT
HETATM    1  C1  UNL     1      29.712  37.510   6.449  1.00  0.00     0.182 C 
HETATM    2  N1  UNL     1      29.837  38.948   6.425  1.00  0.00    -0.255 N 
HETATM    3  C2  UNL     1      29.732  39.666   5.277  1.00  0.00     0.157 A 
HETATM    4  N2  UNL     1      29.523  39.303   4.007  1.00  0.00    -0.174 N 
ATOM      5  H2  UNL     1      29.402  38.318   3.772  1.00  0.00     0.186 HD
HETATM    6  C3  UNL     1      29.472  40.226   3.051  1.00  0.00     0.678 A 
HETATM    7  N4  UNL     1      29.623  41.537   3.292  1.00  0.00    -0.185 N 
ATOM      8  H4  UNL     1      29.578  42.212   2.529  1.00  0.00     0.184 HD
HETATM    9  C4  UNL     1      29.838  41.953   4.566  1.00  0.00     0.136 A 
HETATM   10  C8  UNL     1      29.895  40.993   5.585  1.00  0.00     0.114 A 
HETATM   11  C9  UNL     1      30.097  41.030   6.939  1.00  0.00     0.298 A 
HETATM   12  O3  UNL     1      30.291  42.038   7.643  1.00  0.00    -0.264 OA
HETATM   13  N6  UNL     1      30.055  39.743   7.438  1.00  0.00    -0.150 N 
ENDROOT
BRANCH  13  14
HETATM   14  N7  UNL     1      30.231  39.465   8.795  1.00  0.00    -0.246 N 
ATOM     15  H7  UNL     1      29.476  39.748   9.419  1.00  0.00     0.192 HD
BRANCH  14  16
HETATM   16  C10 UNL     1      31.331  38.841   9.395  1.00  0.00     0.192 C 
HETATM   17  N8  UNL     1      32.034  37.933   8.785  1.00  0.00    -0.360 N 
HETATM   18  C11 UNL     1      33.102  37.453   9.608  1.00  0.00     0.142 C 
ATOM     19  H8  UNL     1      31.847  37.604   7.838  1.00  0.00     0.162 HD
HETATM   20  C12 UNL     1      32.776  38.004  10.970  1.00  0.00     0.142 C 
HETATM   21  N9  UNL     1      31.865  39.081  10.679  1.00  0.00    -0.360 N 
ATOM     22  H9  UNL     1      31.646  39.869  11.288  1.00  0.00     0.162 HD
ENDBRANCH  14  16
ENDBRANCH  13  14
BRANCH   9  23
HETATM   23  C5  UNL     1      30.025  43.350   4.836  1.00  0.00     0.270 C 
HETATM   24  O1  UNL     1      31.033  44.002   4.545  1.00  0.00    -0.266 OA
HETATM   25  N5  UNL     1      28.981  44.075   5.493  1.00  0.00    -0.354 N 
ATOM     26  H5  UNL     1      28.114  43.611   5.765  1.00  0.00     0.162 HD
BRANCH  25  27
HETATM   27  C6  UNL     1      29.188  45.497   5.764  1.00  0.00     0.149 C 
BRANCH  27  28
HETATM   28  C7  UNL     1      29.576  45.724   7.198  1.00  0.00     0.183 C 
BRANCH  28  29
HETATM   29  O2  UNL     1      30.713  45.037   7.563  1.00  0.00    -0.399 OA
ATOM     30  H2  UNL     1      31.233  45.498   8.211  1.00  0.00     0.209 HD
ENDBRANCH  28  29
ENDBRANCH  27  28
ENDBRANCH  25  27
ENDBRANCH   9  23
BRANCH   6  31
HETATM   31  N3  UNL     1      29.270  39.892   1.810  1.00  0.00    -0.234 N 
ATOM     32  H32 UNL     1      28.326  39.583   1.576  1.00  0.00     0.174 HD
ATOM     33  H31 UNL     1      30.023  39.942   1.124  1.00  0.00     0.174 HD
ENDBRANCH   6  31
TORSDOF 7
ENDMDL
MODEL 5
REMARK VINA RESULT: -6.225211883      4.207      8.773
REMARK  7 active torsions:
REMARK  status: ('A' for Active; 'I' for Inactive)
REMARK    1  A    between atoms: C3_6  and  N3_7 
REMARK    2  A    between atoms: C4_12  and  C5_13 
REMARK       I    between atoms: C5_13  and  N5_15 
REMARK    3  A    between atoms: N5_15  and  C6_17 
REMARK    4  A    between atoms: C6_17  and  C7_18 
REMARK    5  A    between atoms: C7_18  and  O2_19 
REMARK    6  A    between atoms: N6_24  and  N7_25 
REMARK    7  A    between atoms: N7_25  and  C10_27 
ROOT
HETATM    1  C1  UNL     1      29.732  37.508   6.465  1.00  0.00     0.182 C 
HETATM    2  N1  UNL     1      29.843  38.947   6.442  1.00  0.00    -0.255 N 
HETATM    3  C2  UNL     1      29.735  39.666   5.295  1.00  0.00     0.157 A 
HETATM    4  N2  UNL     1      29.532  39.301   4.024  1.00  0.00    -0.174 N 
ATOM      5  H2  UNL     1      29.420  38.315   3.788  1.00  0.00     0.186 HD
HETATM    6  C3  UNL     1      29.475  40.225   3.068  1.00  0.00     0.678 A 
HETATM    7  N4  UNL     1      29.613  41.537   3.311  1.00  0.00    -0.185 N 
ATOM      8  H4  UNL     1      29.563  42.212   2.548  1.00  0.00     0.184 HD
HETATM    9  C4  UNL     1      29.821  41.953   4.586  1.00  0.00     0.136 A 
HETATM   10  C8  UNL     1      29.884  40.993   5.604  1.00  0.00     0.114 A 
HETATM   11  C9  UNL     1      30.082  41.031   6.959  1.00  0.00     0.298 A 
HETATM   12  O3  UNL     1      30.265  42.040   7.664  1.00  0.00    -0.264 OA
HETATM   13  N6  UNL     1      30.051  39.744   7.456  1.00  0.00    -0.150 N 
ENDROOT
BRANCH  13  14
HETATM   14  N7  UNL     1      30.227  39.466   8.814  1.00  0.00    -0.246 N 
ATOM     15  H7  UNL     1      29.479  39.767   9.439  1.00  0.00     0.192 HD
BRANCH  14  16
HETATM   16  C10 UNL     1      31.316  38.821   9.411  1.00  0.00     0.192 C 
HETATM   17  N8  UNL     1      32.060  37.971   8.768  1.00  0.00    -0.360 N 
HETATM   18  C11 UNL     1      33.105  37.453   9.597  1.00  0.00     0.142 C 
ATOM     19  H8  UNL     1      31.916  37.705   7.794  1.00  0.00     0.162 HD
HETATM   20  C12 UNL     1      32.716  37.901  10.980  1.00  0.00     0.142 C 
HETATM   21  N9  UNL     1      31.795  38.979  10.729  1.00  0.00    -0.360 N 
ATOM     22  H9  UNL     1      31.537  39.719  11.382  1.00  0.00     0.162 HD
ENDBRANCH  14  16
ENDBRANCH  13  14
BRANCH   9  23
HETATM   23  C5  UNL     1      29.994  43.352   4.858  1.00  0.00     0.270 C 
HETATM   24  O1  UNL     1      30.985  44.020   4.544  1.00  0.00    -0.266 OA
HETATM   25  N5  UNL     1      28.956  44.059   5.543  1.00  0.00    -0.354 N 
ATOM     26  H5  UNL     1      28.103  43.581   5.835  1.00  0.00     0.162 HD
BRANCH  25  27
HETATM   27  C6  UNL     1      29.150  45.483   5.816  1.00  0.00     0.149 C 
BRANCH  27  28
HETATM   28  C7  UNL     1      28.448  46.330   4.792  1.00  0.00     0.183 C 
BRANCH  28  29
HETATM   29  O2  UNL     1      29.172  46.480   3.630  1.00  0.00    -0.399 OA
ATOM     30  H2  UNL     1      29.078  45.744   3.037  1.00  0.00     0.209 HD
ENDBRANCH  28  29
ENDBRANCH  27  28
ENDBRANCH  25  27
ENDBRANCH   9  23
BRANCH   6  31
HETATM   31  N3  UNL     1      29.279  39.890   1.826  1.00  0.00    -0.234 N 
ATOM     32  H32 UNL     1      29.827  39.102   1.481  1.00  0.00     0.174 HD
ATOM     33  H31 UNL     1      28.611  40.397   1.246  1.00  0.00     0.174 HD
ENDBRANCH   6  31
TORSDOF 7
ENDMDL
