MODEL 1
REMARK VINA RESULT: -9.551033076      0.000      0.000
REMARK  14 active torsions:
REMARK  status: ('A' for Active; 'I' for Inactive)
REMARK    1  A    between atoms: C2_2  and  C3_3 
REMARK    2  A    between atoms: C3_3  and  C4_4 
REMARK    3  A    between atoms: C4_4  and  C5_5 
REMARK    4  A    between atoms: C5_5  and  N1_6 
REMARK    5  A    between atoms: N2_9  and  C7_10 
REMARK    6  A    between atoms: C7_10  and  O2_11 
REMARK    7  A    between atoms: C7_10  and  C8_13 
REMARK    8  A    between atoms: C9_18  and  C10_19 
REMARK    9  A    between atoms: C21_30  and  C22_31 
REMARK       I    between atoms: C22_31  and  N5_33 
REMARK   10  A    between atoms: N5_33  and  C23_35 
REMARK   11  A    between atoms: C23_35  and  C25_38 
REMARK   12  A    between atoms: C25_38  and  C26_39 
REMARK   13  A    between atoms: N7_41  and  C28_42 
REMARK   14  A    between atoms: C28_42  and  C29_43 
ROOT
HETATM    1  C23 UNL     1      23.157  26.963  18.902  1.00  0.00     0.197 C 
HETATM    2  C24 UNL     1      24.427  27.569  18.507  1.00  0.00     0.085 C 
HETATM    3  N6  UNL     1      25.439  28.049  18.212  1.00  0.00    -0.195 NA
ENDROOT
BRANCH   1   4
HETATM    4  N5  UNL     1      22.569  26.204  17.829  1.00  0.00    -0.342 N 
HETATM    5  C22 UNL     1      21.298  26.524  17.315  1.00  0.00     0.243 C 
HETATM    6  O3  UNL     1      20.711  27.519  17.872  1.00  0.00    -0.271 OA
ATOM      7  H5  UNL     1      23.084  25.417  17.433  1.00  0.00     0.163 HD
BRANCH   5   8
HETATM    8  C21 UNL     1      20.570  25.872  16.237  1.00  0.00     0.199 C 
HETATM    9  N1  UNL     1      19.608  26.725  15.543  1.00  0.00    -0.319 N 
HETATM   10  C6  UNL     1      18.355  26.068  15.715  1.00  0.00     0.327 C 
HETATM   11  O1  UNL     1      17.318  26.125  14.999  1.00  0.00    -0.247 OA
HETATM   12  N2  UNL     1      18.438  25.270  16.892  1.00  0.00    -0.276 N 
HETATM   13  C20 UNL     1      19.806  24.689  16.716  1.00  0.00     0.171 C 
BRANCH   9  14
HETATM   14  C5  UNL     1      19.855  27.940  14.831  1.00  0.00     0.129 C 
BRANCH  14  15
HETATM   15  C4  UNL     1      20.850  27.903  13.740  1.00  0.00     0.020 C 
BRANCH  15  16
HETATM   16  C3  UNL     1      22.034  28.781  13.799  1.00  0.00     0.001 C 
BRANCH  16  17
HETATM   17  C2  UNL     1      22.582  29.009  15.194  1.00  0.00    -0.004 C 
HETATM   18  C1  UNL     1      24.098  29.121  15.166  1.00  0.00     0.005 C 
ENDBRANCH  16  17
ENDBRANCH  15  16
ENDBRANCH  14  15
ENDBRANCH   9  14
BRANCH  12  19
HETATM   19  C7  UNL     1      17.577  24.979  17.941  1.00  0.00     0.175 C 
BRANCH  19  20
HETATM   20  O2  UNL     1      18.067  25.282  19.117  1.00  0.00    -0.344 OA
ATOM     21  H2  UNL     1      17.400  25.469  19.767  1.00  0.00     0.219 HD
ENDBRANCH  19  20
BRANCH  19  22
HETATM   22  C8  UNL     1      16.255  24.407  17.953  1.00  0.00     0.107 A 
HETATM   23  N3  UNL     1      15.094  24.886  18.396  1.00  0.00    -0.296 N 
HETATM   24  N4  UNL     1      14.082  24.024  18.168  1.00  0.00    -0.299 N 
ATOM     25  H3  UNL     1      14.983  25.792  18.851  1.00  0.00     0.187 HD
HETATM   26  C9  UNL     1      14.568  22.934  17.559  1.00  0.00     0.066 A 
ATOM     27  H4  UNL     1      13.105  24.177  18.419  1.00  0.00     0.187 HD
HETATM   28  C18 UNL     1      15.899  23.150  17.418  1.00  0.00    -0.001 A 
HETATM   29  C19 UNL     1      16.840  22.216  16.784  1.00  0.00     0.053 C 
BRANCH  26  30
HETATM   30  C10 UNL     1      13.761  21.800  17.154  1.00  0.00    -0.006 A 
HETATM   31  C11 UNL     1      13.424  21.579  15.820  1.00  0.00     0.020 A 
HETATM   32  C12 UNL     1      12.651  20.519  15.421  1.00  0.00    -0.061 A 
HETATM   33  C13 UNL     1      12.356  20.382  13.965  1.00  0.00     0.048 C 
HETATM   34  C14 UNL     1      12.197  19.648  16.371  1.00  0.00     0.013 A 
HETATM   35  C15 UNL     1      12.519  19.850  17.684  1.00  0.00    -0.061 A 
HETATM   36  C16 UNL     1      12.013  18.887  18.721  1.00  0.00     0.048 C 
HETATM   37  C17 UNL     1      13.283  20.897  18.086  1.00  0.00     0.020 A 
ENDBRANCH  26  30
ENDBRANCH  19  22
ENDBRANCH  12  19
ENDBRANCH   5   8
ENDBRANCH   1   4
BRANCH   1  38
HETATM   38  C25 UNL     1      23.395  26.142  20.136  1.00  0.00     0.100 C 
BRANCH  38  39
HETATM   39  C26 UNL     1      22.095  25.515  20.537  1.00  0.00     0.047 A 
HETATM   40  C27 UNL     1      21.802  24.181  20.695  1.00  0.00     0.138 A 
HETATM   41  N7  UNL     1      20.512  24.120  21.048  1.00  0.00    -0.287 N 
HETATM   42  N8  UNL     1      20.038  25.351  21.103  1.00  0.00    -0.241 N 
HETATM   43  N9  UNL     1      20.977  26.193  20.798  1.00  0.00    -0.289 N 
ATOM     44  H8  UNL     1      19.080  25.603  21.347  1.00  0.00     0.208 HD
ATOM     45  H9  UNL     1      20.876  27.207  20.763  1.00  0.00     0.188 HD
BRANCH  41  46
HETATM   46  C28 UNL     1      19.718  22.923  21.339  1.00  0.00     0.149 C 
BRANCH  46  47
HETATM   47  C29 UNL     1      19.412  22.275  19.999  1.00  0.00     0.017 C 
HETATM   48  C30 UNL     1      18.046  21.627  20.001  1.00  0.00     0.007 C 
ENDBRANCH  46  47
ENDBRANCH  41  46
ENDBRANCH  38  39
ENDBRANCH   1  38
TORSDOF 14
ENDMDL
MODEL 2
REMARK VINA RESULT: -9.412355195      1.774      2.201
REMARK  14 active torsions:
REMARK  status: ('A' for Active; 'I' for Inactive)
REMARK    1  A    between atoms: C2_2  and  C3_3 
REMARK    2  A    between atoms: C3_3  and  C4_4 
REMARK    3  A    between atoms: C4_4  and  C5_5 
REMARK    4  A    between atoms: C5_5  and  N1_6 
REMARK    5  A    between atoms: N2_9  and  C7_10 
REMARK    6  A    between atoms: C7_10  and  O2_11 
REMARK    7  A    between atoms: C7_10  and  C8_13 
REMARK    8  A    between atoms: C9_18  and  C10_19 
REMARK    9  A    between atoms: C21_30  and  C22_31 
REMARK       I    between atoms: C22_31  and  N5_33 
REMARK   10  A    between atoms: N5_33  and  C23_35 
REMARK   11  A    between atoms: C23_35  and  C25_38 
REMARK   12  A    between atoms: C25_38  and  C26_39 
REMARK   13  A    between atoms: N7_41  and  C28_42 
REMARK   14  A    between atoms: C28_42  and  C29_43 
ROOT
HETATM    1  C23 UNL     1      21.584  25.901  19.713  1.00  0.00     0.197 C 
HETATM    2  C24 UNL     1      22.906  26.396  20.091  1.00  0.00     0.085 C 
HETATM    3  N6  UNL     1      23.951  26.783  20.408  1.00  0.00    -0.195 NA
ENDROOT
BRANCH   1   4
HETATM    4  N5  UNL     1      21.538  25.496  18.332  1.00  0.00    -0.342 N 
HETATM    5  C22 UNL     1      20.560  26.000  17.453  1.00  0.00     0.243 C 
HETATM    6  O3  UNL     1      19.724  26.824  17.970  1.00  0.00    -0.271 OA
ATOM      7  H5  UNL     1      22.227  24.830  17.983  1.00  0.00     0.163 HD
BRANCH   5   8
HETATM    8  C21 UNL     1      20.380  25.705  16.040  1.00  0.00     0.199 C 
HETATM    9  N1  UNL     1      19.746  26.771  15.267  1.00  0.00    -0.319 N 
HETATM   10  C6  UNL     1      18.573  26.173  14.724  1.00  0.00     0.327 C 
HETATM   11  O1  UNL     1      17.922  26.484  13.688  1.00  0.00    -0.247 OA
HETATM   12  N2  UNL     1      18.204  25.087  15.570  1.00  0.00    -0.276 N 
HETATM   13  C20 UNL     1      19.552  24.489  15.825  1.00  0.00     0.171 C 
BRANCH   9  14
HETATM   14  C5  UNL     1      20.198  28.114  15.074  1.00  0.00     0.129 C 
BRANCH  14  15
HETATM   15  C4  UNL     1      21.247  28.343  14.059  1.00  0.00     0.020 C 
BRANCH  15  16
HETATM   16  C3  UNL     1      22.593  28.773  14.481  1.00  0.00     0.001 C 
BRANCH  16  17
HETATM   17  C2  UNL     1      22.960  28.395  15.903  1.00  0.00    -0.004 C 
HETATM   18  C1  UNL     1      23.840  27.155  15.922  1.00  0.00     0.005 C 
ENDBRANCH  16  17
ENDBRANCH  15  16
ENDBRANCH  14  15
ENDBRANCH   9  14
BRANCH  12  19
HETATM   19  C7  UNL     1      17.004  24.583  16.050  1.00  0.00     0.175 C 
BRANCH  19  20
HETATM   20  O2  UNL     1      16.612  25.145  17.166  1.00  0.00    -0.344 OA
ATOM     21  H2  UNL     1      16.136  25.956  17.034  1.00  0.00     0.219 HD
ENDBRANCH  19  20
BRANCH  19  22
HETATM   22  C8  UNL     1      16.130  23.560  15.535  1.00  0.00     0.107 A 
HETATM   23  N3  UNL     1      16.253  22.740  14.494  1.00  0.00    -0.296 N 
HETATM   24  N4  UNL     1      15.204  21.898  14.398  1.00  0.00    -0.299 N 
ATOM     25  H3  UNL     1      17.043  22.747  13.848  1.00  0.00     0.187 HD
HETATM   26  C9  UNL     1      14.348  22.154  15.396  1.00  0.00     0.066 A 
ATOM     27  H4  UNL     1      15.082  21.182  13.681  1.00  0.00     0.187 HD
HETATM   28  C18 UNL     1      14.898  23.171  16.105  1.00  0.00    -0.001 A 
HETATM   29  C19 UNL     1      14.306  23.775  17.307  1.00  0.00     0.053 C 
BRANCH  26  30
HETATM   30  C10 UNL     1      13.109  21.433  15.611  1.00  0.00    -0.006 A 
HETATM   31  C11 UNL     1      12.004  21.611  14.781  1.00  0.00     0.020 A 
HETATM   32  C12 UNL     1      10.819  20.948  14.979  1.00  0.00    -0.061 A 
HETATM   33  C13 UNL     1       9.705  21.215  14.024  1.00  0.00     0.048 C 
HETATM   34  C14 UNL     1      10.725  20.080  16.030  1.00  0.00     0.013 A 
HETATM   35  C15 UNL     1      11.800  19.894  16.855  1.00  0.00    -0.061 A 
HETATM   36  C16 UNL     1      11.684  18.940  18.009  1.00  0.00     0.048 C 
HETATM   37  C17 UNL     1      12.974  20.548  16.665  1.00  0.00     0.020 A 
ENDBRANCH  26  30
ENDBRANCH  19  22
ENDBRANCH  12  19
ENDBRANCH   5   8
ENDBRANCH   1   4
BRANCH   1  38
HETATM   38  C25 UNL     1      21.212  24.796  20.658  1.00  0.00     0.100 C 
BRANCH  38  39
HETATM   39  C26 UNL     1      19.784  24.424  20.402  1.00  0.00     0.047 A 
HETATM   40  C27 UNL     1      19.270  23.202  20.039  1.00  0.00     0.138 A 
HETATM   41  N7  UNL     1      17.948  23.372  19.917  1.00  0.00    -0.287 N 
HETATM   42  N8  UNL     1      17.665  24.632  20.189  1.00  0.00    -0.241 N 
HETATM   43  N9  UNL     1      18.756  25.270  20.479  1.00  0.00    -0.289 N 
ATOM     44  H8  UNL     1      16.731  25.043  20.173  1.00  0.00     0.208 HD
ATOM     45  H9  UNL     1      18.818  26.258  20.727  1.00  0.00     0.188 HD
BRANCH  41  46
HETATM   46  C28 UNL     1      16.945  22.368  19.551  1.00  0.00     0.149 C 
BRANCH  46  47
HETATM   47  C29 UNL     1      17.520  21.595  18.376  1.00  0.00     0.017 C 
HETATM   48  C30 UNL     1      16.564  20.522  17.904  1.00  0.00     0.007 C 
ENDBRANCH  46  47
ENDBRANCH  41  46
ENDBRANCH  38  39
ENDBRANCH   1  38
TORSDOF 14
ENDMDL
MODEL 3
REMARK VINA RESULT: -9.321460339      1.772      2.657
REMARK  14 active torsions:
REMARK  status: ('A' for Active; 'I' for Inactive)
REMARK    1  A    between atoms: C2_2  and  C3_3 
REMARK    2  A    between atoms: C3_3  and  C4_4 
REMARK    3  A    between atoms: C4_4  and  C5_5 
REMARK    4  A    between atoms: C5_5  and  N1_6 
REMARK    5  A    between atoms: N2_9  and  C7_10 
REMARK    6  A    between atoms: C7_10  and  O2_11 
REMARK    7  A    between atoms: C7_10  and  C8_13 
REMARK    8  A    between atoms: C9_18  and  C10_19 
REMARK    9  A    between atoms: C21_30  and  C22_31 
REMARK       I    between atoms: C22_31  and  N5_33 
REMARK   10  A    between atoms: N5_33  and  C23_35 
REMARK   11  A    between atoms: C23_35  and  C25_38 
REMARK   12  A    between atoms: C25_38  and  C26_39 
REMARK   13  A    between atoms: N7_41  and  C28_42 
REMARK   14  A    between atoms: C28_42  and  C29_43 
ROOT
HETATM    1  C23 UNL     1      23.242  26.746  18.829  1.00  0.00     0.197 C 
HETATM    2  C24 UNL     1      24.527  27.329  18.449  1.00  0.00     0.085 C 
HETATM    3  N6  UNL     1      25.551  27.790  18.164  1.00  0.00    -0.195 NA
ENDROOT
BRANCH   1   4
HETATM    4  N5  UNL     1      22.614  26.064  17.726  1.00  0.00    -0.342 N 
HETATM    5  C22 UNL     1      21.226  26.142  17.511  1.00  0.00     0.243 C 
HETATM    6  O3  UNL     1      20.572  26.844  18.363  1.00  0.00    -0.271 OA
ATOM      7  H5  UNL     1      23.189  25.514  17.087  1.00  0.00     0.163 HD
BRANCH   5   8
HETATM    8  C21 UNL     1      20.441  25.528  16.450  1.00  0.00     0.199 C 
HETATM    9  N1  UNL     1      19.478  26.419  15.806  1.00  0.00    -0.319 N 
HETATM   10  C6  UNL     1      18.215  25.794  16.012  1.00  0.00     0.327 C 
HETATM   11  O1  UNL     1      17.154  25.892  15.336  1.00  0.00    -0.247 OA
HETATM   12  N2  UNL     1      18.318  24.974  17.173  1.00  0.00    -0.276 N 
HETATM   13  C20 UNL     1      19.662  24.359  16.936  1.00  0.00     0.171 C 
BRANCH   9  14
HETATM   14  C5  UNL     1      19.733  27.640  15.105  1.00  0.00     0.129 C 
BRANCH  14  15
HETATM   15  C4  UNL     1      20.763  27.619  14.046  1.00  0.00     0.020 C 
BRANCH  15  16
HETATM   16  C3  UNL     1      21.814  28.653  14.026  1.00  0.00     0.001 C 
BRANCH  16  17
HETATM   17  C2  UNL     1      22.515  28.867  15.353  1.00  0.00    -0.004 C 
HETATM   18  C1  UNL     1      24.014  29.024  15.153  1.00  0.00     0.005 C 
ENDBRANCH  16  17
ENDBRANCH  15  16
ENDBRANCH  14  15
ENDBRANCH   9  14
BRANCH  12  19
HETATM   19  C7  UNL     1      17.488  24.687  18.247  1.00  0.00     0.175 C 
BRANCH  19  20
HETATM   20  O2  UNL     1      17.992  25.041  19.403  1.00  0.00    -0.344 OA
ATOM     21  H2  UNL     1      17.378  24.960  20.123  1.00  0.00     0.219 HD
ENDBRANCH  19  20
BRANCH  19  22
HETATM   22  C8  UNL     1      16.185  24.076  18.304  1.00  0.00     0.107 A 
HETATM   23  N3  UNL     1      14.967  24.607  18.395  1.00  0.00    -0.296 N 
HETATM   24  N4  UNL     1      14.009  23.659  18.374  1.00  0.00    -0.299 N 
ATOM     25  H3  UNL     1      14.782  25.608  18.471  1.00  0.00     0.187 HD
HETATM   26  C9  UNL     1      14.589  22.456  18.269  1.00  0.00     0.066 A 
ATOM     27  H4  UNL     1      13.004  23.830  18.430  1.00  0.00     0.187 HD
HETATM   28  C18 UNL     1      15.924  22.690  18.225  1.00  0.00    -0.001 A 
HETATM   29  C19 UNL     1      16.957  21.653  18.096  1.00  0.00     0.053 C 
BRANCH  26  30
HETATM   30  C10 UNL     1      13.862  21.203  18.209  1.00  0.00    -0.006 A 
HETATM   31  C11 UNL     1      13.077  20.864  17.110  1.00  0.00     0.020 A 
HETATM   32  C12 UNL     1      12.371  19.689  17.043  1.00  0.00    -0.061 A 
HETATM   33  C13 UNL     1      11.566  19.430  15.814  1.00  0.00     0.048 C 
HETATM   34  C14 UNL     1      12.447  18.822  18.096  1.00  0.00     0.013 A 
HETATM   35  C15 UNL     1      13.213  19.140  19.183  1.00  0.00    -0.061 A 
HETATM   36  C16 UNL     1      13.287  18.180  20.336  1.00  0.00     0.048 C 
HETATM   37  C17 UNL     1      13.913  20.301  19.256  1.00  0.00     0.020 A 
ENDBRANCH  26  30
ENDBRANCH  19  22
ENDBRANCH  12  19
ENDBRANCH   5   8
ENDBRANCH   1   4
BRANCH   1  38
HETATM   38  C25 UNL     1      23.467  25.853  20.014  1.00  0.00     0.100 C 
BRANCH  38  39
HETATM   39  C26 UNL     1      22.811  26.483  21.204  1.00  0.00     0.047 A 
HETATM   40  C27 UNL     1      23.263  26.537  22.502  1.00  0.00     0.138 A 
HETATM   41  N7  UNL     1      22.326  27.192  23.198  1.00  0.00    -0.287 N 
HETATM   42  N8  UNL     1      21.351  27.522  22.372  1.00  0.00    -0.241 N 
HETATM   43  N9  UNL     1      21.631  27.103  21.178  1.00  0.00    -0.289 N 
ATOM     44  H8  UNL     1      20.505  28.031  22.634  1.00  0.00     0.208 HD
ATOM     45  H9  UNL     1      21.043  27.226  20.353  1.00  0.00     0.188 HD
BRANCH  41  46
HETATM   46  C28 UNL     1      22.335  27.516  24.628  1.00  0.00     0.149 C 
BRANCH  46  47
HETATM   47  C29 UNL     1      23.778  27.393  25.087  1.00  0.00     0.017 C 
HETATM   48  C30 UNL     1      23.904  27.637  26.574  1.00  0.00     0.007 C 
ENDBRANCH  46  47
ENDBRANCH  41  46
ENDBRANCH  38  39
ENDBRANCH   1  38
TORSDOF 14
ENDMDL
MODEL 4
REMARK VINA RESULT: -9.184279610      2.059      4.896
REMARK  14 active torsions:
REMARK  status: ('A' for Active; 'I' for Inactive)
REMARK    1  A    between atoms: C2_2  and  C3_3 
REMARK    2  A    between atoms: C3_3  and  C4_4 
REMARK    3  A    between atoms: C4_4  and  C5_5 
REMARK    4  A    between atoms: C5_5  and  N1_6 
REMARK    5  A    between atoms: N2_9  and  C7_10 
REMARK    6  A    between atoms: C7_10  and  O2_11 
REMARK    7  A    between atoms: C7_10  and  C8_13 
REMARK    8  A    between atoms: C9_18  and  C10_19 
REMARK    9  A    between atoms: C21_30  and  C22_31 
REMARK       I    between atoms: C22_31  and  N5_33 
REMARK   10  A    between atoms: N5_33  and  C23_35 
REMARK   11  A    between atoms: C23_35  and  C25_38 
REMARK   12  A    between atoms: C25_38  and  C26_39 
REMARK   13  A    between atoms: N7_41  and  C28_42 
REMARK   14  A    between atoms: C28_42  and  C29_43 
ROOT
HETATM    1  C23 UNL     1      19.843  26.541  16.236  1.00  0.00     0.197 C 
HETATM    2  C24 UNL     1      20.765  27.668  16.108  1.00  0.00     0.085 C 
HETATM    3  N6  UNL     1      21.491  28.563  15.989  1.00  0.00    -0.195 NA
ENDROOT
BRANCH   1   4
HETATM    4  N5  UNL     1      19.360  26.394  17.585  1.00  0.00    -0.342 N 
HETATM    5  C22 UNL     1      19.585  25.215  18.320  1.00  0.00     0.243 C 
HETATM    6  O3  UNL     1      20.233  24.295  17.705  1.00  0.00    -0.271 OA
ATOM      7  H5  UNL     1      18.843  27.161  18.016  1.00  0.00     0.163 HD
BRANCH   5   8
HETATM    8  C21 UNL     1      19.177  24.910  19.683  1.00  0.00     0.199 C 
HETATM    9  N1  UNL     1      20.005  23.916  20.363  1.00  0.00    -0.319 N 
HETATM   10  C6  UNL     1      19.101  22.869  20.706  1.00  0.00     0.327 C 
HETATM   11  O1  UNL     1      19.180  22.015  21.632  1.00  0.00    -0.247 OA
HETATM   12  N2  UNL     1      18.006  22.922  19.796  1.00  0.00    -0.276 N 
HETATM   13  C20 UNL     1      17.781  24.401  19.747  1.00  0.00     0.171 C 
BRANCH   9  14
HETATM   14  C5  UNL     1      21.406  23.973  20.645  1.00  0.00     0.129 C 
BRANCH  14  15
HETATM   15  C4  UNL     1      21.945  25.243  21.174  1.00  0.00     0.020 C 
BRANCH  15  16
HETATM   16  C3  UNL     1      22.694  26.148  20.281  1.00  0.00     0.001 C 
BRANCH  16  17
HETATM   17  C2  UNL     1      22.002  27.466  19.993  1.00  0.00    -0.004 C 
HETATM   18  C1  UNL     1      21.039  27.827  21.113  1.00  0.00     0.005 C 
ENDBRANCH  16  17
ENDBRANCH  15  16
ENDBRANCH  14  15
ENDBRANCH   9  14
BRANCH  12  19
HETATM   19  C7  UNL     1      17.242  21.977  19.126  1.00  0.00     0.175 C 
BRANCH  19  20
HETATM   20  O2  UNL     1      17.932  20.937  18.728  1.00  0.00    -0.344 OA
ATOM     21  H2  UNL     1      17.588  20.112  19.047  1.00  0.00     0.219 HD
ENDBRANCH  19  20
BRANCH  19  22
HETATM   22  C8  UNL     1      15.839  21.947  18.800  1.00  0.00     0.107 A 
HETATM   23  N3  UNL     1      14.892  22.876  18.902  1.00  0.00    -0.296 N 
HETATM   24  N4  UNL     1      13.707  22.433  18.435  1.00  0.00    -0.299 N 
ATOM     25  H3  UNL     1      15.043  23.809  19.287  1.00  0.00     0.187 HD
HETATM   26  C9  UNL     1      13.854  21.171  18.007  1.00  0.00     0.066 A 
ATOM     27  H4  UNL     1      12.840  22.970  18.412  1.00  0.00     0.187 HD
HETATM   28  C18 UNL     1      15.155  20.855  18.222  1.00  0.00    -0.001 A 
HETATM   29  C19 UNL     1      15.773  19.564  17.888  1.00  0.00     0.053 C 
BRANCH  26  30
HETATM   30  C10 UNL     1      12.786  20.378  17.431  1.00  0.00    -0.006 A 
HETATM   31  C11 UNL     1      12.438  20.484  16.086  1.00  0.00     0.020 A 
HETATM   32  C12 UNL     1      11.422  19.751  15.527  1.00  0.00    -0.061 A 
HETATM   33  C13 UNL     1      11.140  19.946  14.076  1.00  0.00     0.048 C 
HETATM   34  C14 UNL     1      10.729  18.884  16.324  1.00  0.00     0.013 A 
HETATM   35  C15 UNL     1      11.058  18.767  17.646  1.00  0.00    -0.061 A 
HETATM   36  C16 UNL     1      10.288  17.812  18.513  1.00  0.00     0.048 C 
HETATM   37  C17 UNL     1      12.062  19.490  18.205  1.00  0.00     0.020 A 
ENDBRANCH  26  30
ENDBRANCH  19  22
ENDBRANCH  12  19
ENDBRANCH   5   8
ENDBRANCH   1   4
BRANCH   1  38
HETATM   38  C25 UNL     1      18.739  26.726  15.237  1.00  0.00     0.100 C 
BRANCH  38  39
HETATM   39  C26 UNL     1      17.743  25.624  15.434  1.00  0.00     0.047 A 
HETATM   40  C27 UNL     1      17.830  24.311  15.036  1.00  0.00     0.138 A 
HETATM   41  N7  UNL     1      16.692  23.724  15.428  1.00  0.00    -0.287 N 
HETATM   42  N8  UNL     1      15.946  24.629  16.034  1.00  0.00    -0.241 N 
HETATM   43  N9  UNL     1      16.565  25.769  16.042  1.00  0.00    -0.289 N 
ATOM     44  H8  UNL     1      15.023  24.459  16.435  1.00  0.00     0.208 HD
ATOM     45  H9  UNL     1      16.209  26.635  16.447  1.00  0.00     0.188 HD
BRANCH  41  46
HETATM   46  C28 UNL     1      16.297  22.325  15.246  1.00  0.00     0.149 C 
BRANCH  46  47
HETATM   47  C29 UNL     1      14.979  22.346  14.489  1.00  0.00     0.017 C 
HETATM   48  C30 UNL     1      15.090  21.611  13.172  1.00  0.00     0.007 C 
ENDBRANCH  46  47
ENDBRANCH  41  46
ENDBRANCH  38  39
ENDBRANCH   1  38
TORSDOF 14
ENDMDL
MODEL 5
REMARK VINA RESULT: -9.040787943      1.996      3.330
REMARK  14 active torsions:
REMARK  status: ('A' for Active; 'I' for Inactive)
REMARK    1  A    between atoms: C2_2  and  C3_3 
REMARK    2  A    between atoms: C3_3  and  C4_4 
REMARK    3  A    between atoms: C4_4  and  C5_5 
REMARK    4  A    between atoms: C5_5  and  N1_6 
REMARK    5  A    between atoms: N2_9  and  C7_10 
REMARK    6  A    between atoms: C7_10  and  O2_11 
REMARK    7  A    between atoms: C7_10  and  C8_13 
REMARK    8  A    between atoms: C9_18  and  C10_19 
REMARK    9  A    between atoms: C21_30  and  C22_31 
REMARK       I    between atoms: C22_31  and  N5_33 
REMARK   10  A    between atoms: N5_33  and  C23_35 
REMARK   11  A    between atoms: C23_35  and  C25_38 
REMARK   12  A    between atoms: C25_38  and  C26_39 
REMARK   13  A    between atoms: N7_41  and  C28_42 
REMARK   14  A    between atoms: C28_42  and  C29_43 
ROOT
HETATM    1  C23 UNL     1      20.689  24.556  20.069  1.00  0.00     0.197 C 
HETATM    2  C24 UNL     1      22.034  24.816  20.576  1.00  0.00     0.085 C 
HETATM    3  N6  UNL     1      23.096  25.016  20.995  1.00  0.00    -0.195 NA
ENDROOT
BRANCH   1   4
HETATM    4  N5  UNL     1      20.693  24.275  18.657  1.00  0.00    -0.342 N 
HETATM    5  C22 UNL     1      19.965  25.066  17.749  1.00  0.00     0.243 C 
HETATM    6  O3  UNL     1      19.301  26.034  18.268  1.00  0.00    -0.271 OA
ATOM      7  H5  UNL     1      21.235  23.484  18.307  1.00  0.00     0.163 HD
BRANCH   5   8
HETATM    8  C21 UNL     1      19.870  24.926  16.304  1.00  0.00     0.199 C 
HETATM    9  N1  UNL     1      19.360  26.104  15.606  1.00  0.00    -0.319 N 
HETATM   10  C6  UNL     1      18.194  25.644  14.928  1.00  0.00     0.327 C 
HETATM   11  O1  UNL     1      17.642  26.100  13.889  1.00  0.00    -0.247 OA
HETATM   12  N2  UNL     1      17.700  24.508  15.630  1.00  0.00    -0.276 N 
HETATM   13  C20 UNL     1      18.986  23.796  15.910  1.00  0.00     0.171 C 
BRANCH   9  14
HETATM   14  C5  UNL     1      19.907  27.426  15.583  1.00  0.00     0.129 C 
BRANCH  14  15
HETATM   15  C4  UNL     1      20.408  27.936  14.291  1.00  0.00     0.020 C 
BRANCH  15  16
HETATM   16  C3  UNL     1      21.782  28.464  14.196  1.00  0.00     0.001 C 
BRANCH  16  17
HETATM   17  C2  UNL     1      22.411  28.833  15.525  1.00  0.00    -0.004 C 
HETATM   18  C1  UNL     1      23.886  29.160  15.352  1.00  0.00     0.005 C 
ENDBRANCH  16  17
ENDBRANCH  15  16
ENDBRANCH  14  15
ENDBRANCH   9  14
BRANCH  12  19
HETATM   19  C7  UNL     1      16.439  24.042  15.975  1.00  0.00     0.175 C 
BRANCH  19  20
HETATM   20  O2  UNL     1      15.830  24.793  16.858  1.00  0.00    -0.344 OA
ATOM     21  H2  UNL     1      14.886  24.811  16.751  1.00  0.00     0.219 HD
ENDBRANCH  19  20
BRANCH  19  22
HETATM   22  C8  UNL     1      15.699  22.888  15.532  1.00  0.00     0.107 A 
HETATM   23  N3  UNL     1      16.043  21.606  15.436  1.00  0.00    -0.296 N 
HETATM   24  N4  UNL     1      15.015  20.845  15.009  1.00  0.00    -0.299 N 
ATOM     25  H3  UNL     1      16.970  21.243  15.659  1.00  0.00     0.187 HD
HETATM   26  C9  UNL     1      13.947  21.631  14.808  1.00  0.00     0.066 A 
ATOM     27  H4  UNL     1      15.044  19.836  14.863  1.00  0.00     0.187 HD
HETATM   28  C18 UNL     1      14.347  22.888  15.123  1.00  0.00    -0.001 A 
HETATM   29  C19 UNL     1      13.492  24.082  15.064  1.00  0.00     0.053 C 
BRANCH  26  30
HETATM   30  C10 UNL     1      12.657  21.151  14.355  1.00  0.00    -0.006 A 
HETATM   31  C11 UNL     1      12.544  20.180  13.362  1.00  0.00     0.020 A 
HETATM   32  C12 UNL     1      11.331  19.725  12.911  1.00  0.00    -0.061 A 
HETATM   33  C13 UNL     1      11.331  18.680  11.847  1.00  0.00     0.048 C 
HETATM   34  C14 UNL     1      10.193  20.246  13.461  1.00  0.00     0.013 A 
HETATM   35  C15 UNL     1      10.287  21.200  14.436  1.00  0.00    -0.061 A 
HETATM   36  C16 UNL     1       9.030  21.767  15.032  1.00  0.00     0.048 C 
HETATM   37  C17 UNL     1      11.484  21.655  14.886  1.00  0.00     0.020 A 
ENDBRANCH  26  30
ENDBRANCH  19  22
ENDBRANCH  12  19
ENDBRANCH   5   8
ENDBRANCH   1   4
BRANCH   1  38
HETATM   38  C25 UNL     1      20.089  23.448  20.884  1.00  0.00     0.100 C 
BRANCH  38  39
HETATM   39  C26 UNL     1      18.732  23.141  20.328  1.00  0.00     0.047 A 
HETATM   40  C27 UNL     1      18.262  21.952  19.824  1.00  0.00     0.138 A 
HETATM   41  N7  UNL     1      17.000  22.178  19.440  1.00  0.00    -0.287 N 
HETATM   42  N8  UNL     1      16.711  23.441  19.694  1.00  0.00    -0.241 N 
HETATM   43  N9  UNL     1      17.739  24.026  20.224  1.00  0.00    -0.289 N 
ATOM     44  H8  UNL     1      15.814  23.889  19.503  1.00  0.00     0.208 HD
ATOM     45  H9  UNL     1      17.782  25.003  20.514  1.00  0.00     0.188 HD
BRANCH  41  46
HETATM   46  C28 UNL     1      16.061  21.226  18.842  1.00  0.00     0.149 C 
BRANCH  46  47
HETATM   47  C29 UNL     1      14.689  21.877  18.910  1.00  0.00     0.017 C 
HETATM   48  C30 UNL     1      13.614  20.947  18.392  1.00  0.00     0.007 C 
ENDBRANCH  46  47
ENDBRANCH  41  46
ENDBRANCH  38  39
ENDBRANCH   1  38
TORSDOF 14
ENDMDL
