MODEL 1
REMARK VINA RESULT: -10.763161246      0.000      0.000
REMARK  10 active torsions:
REMARK  status: ('A' for Active; 'I' for Inactive)
REMARK    1  A    between atoms: C1_4  and  N2_6 
REMARK    2  A    between atoms: N2_6  and  C2_8 
REMARK    3  A    between atoms: C2_8  and  C3_9 
REMARK    4  A    between atoms: C4_10  and  C5_11 
REMARK    5  A    between atoms: C6_14  and  C7_15 
REMARK       I    between atoms: C7_15  and  N4_17 
REMARK    6  A    between atoms: N4_17  and  C8_19 
REMARK    7  A    between atoms: C8_19  and  C9_20 
REMARK    8  A    between atoms: C10_24  and  C11_25 
REMARK    9  A    between atoms: C11_25  and  C12_26 
REMARK   10  A    between atoms: C20_36  and  O2_37 
ROOT
HETATM    1  C5  UNL     1      -2.776 -32.899  26.063  1.00  0.00     0.086 A 
HETATM    2  N3  UNL     1      -3.097 -32.322  27.198  1.00  0.00    -0.345 N 
ATOM      3  H3  UNL     1      -4.076 -32.109  27.389  1.00  0.00     0.167 HD
HETATM    4  C6  UNL     1      -2.196 -32.018  28.085  1.00  0.00     0.115 A 
HETATM    5  C10 UNL     1      -0.905 -32.318  27.805  1.00  0.00     0.017 A 
HETATM    6  S2  UNL     1      -1.099 -33.035  26.224  1.00  0.00    -0.074 SA
ENDROOT
BRANCH   1   7
HETATM    7  C4  UNL     1      -3.735 -33.274  24.999  1.00  0.00     0.009 A 
HETATM    8  C3  UNL     1      -3.376 -33.783  23.790  1.00  0.00    -0.003 A 
HETATM    9  C21 UNL     1      -4.390 -34.103  22.905  1.00  0.00     0.077 A 
HETATM   10  C20 UNL     1      -5.747 -33.916  23.217  1.00  0.00     0.109 A 
HETATM   11 CL2  UNL     1      -4.106 -34.826  21.350  1.00  0.00    -0.081 Cl
HETATM   12  C19 UNL     1      -6.092 -33.400  24.440  1.00  0.00     0.069 A 
HETATM   13  C18 UNL     1      -5.069 -33.095  25.297  1.00  0.00     0.041 A 
HETATM   14 CL1  UNL     1      -7.766 -33.145  24.883  1.00  0.00    -0.081 Cl
BRANCH   8  15
HETATM   15  C2  UNL     1      -1.973 -34.004  23.488  1.00  0.00     0.163 C 
BRANCH  15  16
HETATM   16  N2  UNL     1      -1.398 -35.290  23.603  1.00  0.00    -0.366 N 
ATOM     17  H2  UNL     1      -1.308 -35.712  24.527  1.00  0.00     0.162 HD
BRANCH  16  18
HETATM   18  C1  UNL     1      -0.934 -36.024  22.449  1.00  0.00     0.145 C 
HETATM   19  N1  UNL     1      -0.546 -35.454  21.360  1.00  0.00    -0.379 N 
ATOM     20  H12 UNL     1      -0.218 -35.972  20.545  1.00  0.00     0.158 HD
ATOM     21  H11 UNL     1      -0.569 -34.434  21.331  1.00  0.00     0.158 HD
HETATM   22  S1  UNL     1      -0.893 -37.810  22.499  1.00  0.00    -0.014 SA
ENDBRANCH  16  18
ENDBRANCH  15  16
ENDBRANCH   8  15
BRANCH  10  23
HETATM   23  O2  UNL     1      -6.746 -34.247  22.301  1.00  0.00    -0.357 OA
ATOM     24  H2  UNL     1      -6.507 -34.585  21.446  1.00  0.00     0.217 HD
ENDBRANCH  10  23
ENDBRANCH   1   7
BRANCH   4  25
HETATM   25  C7  UNL     1      -2.623 -31.297  29.325  1.00  0.00     0.269 C 
HETATM   26  O1  UNL     1      -2.911 -30.102  29.265  1.00  0.00    -0.266 OA
HETATM   27  N4  UNL     1      -2.708 -31.959  30.577  1.00  0.00    -0.347 N 
ATOM     28  H4  UNL     1      -2.476 -32.949  30.662  1.00  0.00     0.163 HD
BRANCH  27  29
HETATM   29  C8  UNL     1      -3.131 -31.197  31.729  1.00  0.00     0.240 C 
BRANCH  29  30
HETATM   30  C9  UNL     1      -3.741 -32.068  32.782  1.00  0.00     0.403 C 
HETATM   31  F1  UNL     1      -4.956 -31.527  33.144  1.00  0.00    -0.169 F 
HETATM   32  F2  UNL     1      -2.929 -31.990  33.902  1.00  0.00    -0.169 F 
HETATM   33  F3  UNL     1      -3.825 -33.361  32.343  1.00  0.00    -0.169 F 
ENDBRANCH  29  30
ENDBRANCH  27  29
ENDBRANCH   4  25
BRANCH   5  34
HETATM   34  C11 UNL     1       0.380 -32.256  28.550  1.00  0.00     0.053 C 
BRANCH  34  35
HETATM   35  C12 UNL     1       1.548 -32.830  27.845  1.00  0.00    -0.010 C 
HETATM   36  C13 UNL     1       2.695 -33.232  28.675  1.00  0.00     0.005 C 
HETATM   37  C14 UNL     1       3.992 -33.307  27.850  1.00  0.00     0.000 C 
HETATM   38  C15 UNL     1       3.732 -33.629  26.413  1.00  0.00     0.000 C 
HETATM   39  C16 UNL     1       2.901 -32.544  25.779  1.00  0.00     0.000 C 
HETATM   40  C17 UNL     1       2.085 -31.809  26.823  1.00  0.00     0.005 C 
ENDBRANCH  34  35
ENDBRANCH   5  34
TORSDOF 10
ENDMDL
MODEL 2
REMARK VINA RESULT: -8.446554477      3.809      5.952
REMARK  10 active torsions:
REMARK  status: ('A' for Active; 'I' for Inactive)
REMARK    1  A    between atoms: C1_4  and  N2_6 
REMARK    2  A    between atoms: N2_6  and  C2_8 
REMARK    3  A    between atoms: C2_8  and  C3_9 
REMARK    4  A    between atoms: C4_10  and  C5_11 
REMARK    5  A    between atoms: C6_14  and  C7_15 
REMARK       I    between atoms: C7_15  and  N4_17 
REMARK    6  A    between atoms: N4_17  and  C8_19 
REMARK    7  A    between atoms: C8_19  and  C9_20 
REMARK    8  A    between atoms: C10_24  and  C11_25 
REMARK    9  A    between atoms: C11_25  and  C12_26 
REMARK   10  A    between atoms: C20_36  and  O2_37 
ROOT
HETATM    1  C5  UNL     1      -2.018 -33.323  25.811  1.00  0.00     0.086 A 
HETATM    2  N3  UNL     1      -0.896 -33.183  26.478  1.00  0.00    -0.345 N 
ATOM      3  H3  UNL     1      -0.047 -33.621  26.122  1.00  0.00     0.167 HD
HETATM    4  C6  UNL     1      -0.843 -32.499  27.582  1.00  0.00     0.115 A 
HETATM    5  C10 UNL     1      -1.986 -31.925  28.027  1.00  0.00     0.017 A 
HETATM    6  S2  UNL     1      -3.089 -32.443  26.777  1.00  0.00    -0.074 SA
ENDROOT
BRANCH   1   7
HETATM    7  C4  UNL     1      -2.169 -34.087  24.550  1.00  0.00     0.009 A 
HETATM    8  C3  UNL     1      -2.929 -33.683  23.498  1.00  0.00    -0.003 A 
HETATM    9  C21 UNL     1      -2.956 -34.497  22.380  1.00  0.00     0.077 A 
HETATM   10  C20 UNL     1      -2.238 -35.703  22.310  1.00  0.00     0.109 A 
HETATM   11 CL2  UNL     1      -3.820 -34.094  20.926  1.00  0.00    -0.081 Cl
HETATM   12  C19 UNL     1      -1.477 -36.096  23.381  1.00  0.00     0.069 A 
HETATM   13  C18 UNL     1      -1.466 -35.270  24.473  1.00  0.00     0.041 A 
HETATM   14 CL1  UNL     1      -0.561 -37.587  23.351  1.00  0.00    -0.081 Cl
BRANCH   8  15
HETATM   15  C2  UNL     1      -3.643 -32.421  23.565  1.00  0.00     0.163 C 
BRANCH  15  16
HETATM   16  N2  UNL     1      -4.958 -32.355  24.081  1.00  0.00    -0.366 N 
ATOM     17  H2  UNL     1      -5.148 -31.744  24.875  1.00  0.00     0.162 HD
BRANCH  16  18
HETATM   18  C1  UNL     1      -6.039 -33.128  23.515  1.00  0.00     0.145 C 
HETATM   19  N1  UNL     1      -6.467 -32.965  22.310  1.00  0.00    -0.379 N 
ATOM     20  H12 UNL     1      -7.230 -33.511  21.911  1.00  0.00     0.158 HD
ATOM     21  H11 UNL     1      -6.006 -32.255  21.741  1.00  0.00     0.158 HD
HETATM   22  S1  UNL     1      -6.847 -34.371  24.513  1.00  0.00    -0.014 SA
ENDBRANCH  16  18
ENDBRANCH  15  16
ENDBRANCH   8  15
BRANCH  10  23
HETATM   23  O2  UNL     1      -2.287 -36.503  21.169  1.00  0.00    -0.357 OA
ATOM     24  H2  UNL     1      -2.010 -36.147  20.332  1.00  0.00     0.217 HD
ENDBRANCH  10  23
ENDBRANCH   1   7
BRANCH   4  25
HETATM   25  C7  UNL     1       0.453 -32.441  28.329  1.00  0.00     0.269 C 
HETATM   26  O1  UNL     1       0.458 -32.110  29.514  1.00  0.00    -0.266 OA
HETATM   27  N4  UNL     1       1.686 -32.762  27.703  1.00  0.00    -0.347 N 
ATOM     28  H4  UNL     1       1.718 -33.039  26.722  1.00  0.00     0.163 HD
BRANCH  27  29
HETATM   29  C8  UNL     1       2.894 -32.685  28.489  1.00  0.00     0.240 C 
BRANCH  29  30
HETATM   30  C9  UNL     1       3.924 -33.668  28.028  1.00  0.00     0.403 C 
HETATM   31  F1  UNL     1       3.703 -34.865  28.674  1.00  0.00    -0.169 F 
HETATM   32  F2  UNL     1       5.156 -33.210  28.467  1.00  0.00    -0.169 F 
HETATM   33  F3  UNL     1       3.911 -33.769  26.665  1.00  0.00    -0.169 F 
ENDBRANCH  29  30
ENDBRANCH  27  29
ENDBRANCH   4  25
BRANCH   5  34
HETATM   34  C11 UNL     1      -2.342 -30.998  29.134  1.00  0.00     0.053 C 
BRANCH  34  35
HETATM   35  C12 UNL     1      -2.523 -31.633  30.458  1.00  0.00    -0.010 C 
HETATM   36  C13 UNL     1      -3.411 -32.805  30.520  1.00  0.00     0.005 C 
HETATM   37  C14 UNL     1      -3.931 -33.047  31.947  1.00  0.00     0.000 C 
HETATM   38  C15 UNL     1      -2.979 -32.553  32.990  1.00  0.00     0.000 C 
HETATM   39  C16 UNL     1      -2.797 -31.062  32.862  1.00  0.00     0.000 C 
HETATM   40  C17 UNL     1      -3.093 -30.600  31.450  1.00  0.00     0.005 C 
ENDBRANCH  34  35
ENDBRANCH   5  34
TORSDOF 10
ENDMDL
MODEL 3
REMARK VINA RESULT: -8.374448340      6.166      8.590
REMARK  10 active torsions:
REMARK  status: ('A' for Active; 'I' for Inactive)
REMARK    1  A    between atoms: C1_4  and  N2_6 
REMARK    2  A    between atoms: N2_6  and  C2_8 
REMARK    3  A    between atoms: C2_8  and  C3_9 
REMARK    4  A    between atoms: C4_10  and  C5_11 
REMARK    5  A    between atoms: C6_14  and  C7_15 
REMARK       I    between atoms: C7_15  and  N4_17 
REMARK    6  A    between atoms: N4_17  and  C8_19 
REMARK    7  A    between atoms: C8_19  and  C9_20 
REMARK    8  A    between atoms: C10_24  and  C11_25 
REMARK    9  A    between atoms: C11_25  and  C12_26 
REMARK   10  A    between atoms: C20_36  and  O2_37 
ROOT
HETATM    1  C5  UNL     1      -9.018 -36.223  24.034  1.00  0.00     0.086 A 
HETATM    2  N3  UNL     1      -8.197 -35.347  24.565  1.00  0.00    -0.345 N 
ATOM      3  H3  UNL     1      -8.282 -35.120  25.556  1.00  0.00     0.167 HD
HETATM    4  C6  UNL     1      -7.278 -34.761  23.856  1.00  0.00     0.115 A 
HETATM    5  C10 UNL     1      -7.186 -35.086  22.545  1.00  0.00     0.017 A 
HETATM    6  S2  UNL     1      -8.485 -36.247  22.431  1.00  0.00    -0.074 SA
ENDROOT
BRANCH   1   7
HETATM    7  C4  UNL     1     -10.094 -36.932  24.766  1.00  0.00     0.009 A 
HETATM    8  C3  UNL     1     -11.306 -37.239  24.233  1.00  0.00    -0.003 A 
HETATM    9  C21 UNL     1     -12.203 -37.920  25.037  1.00  0.00     0.077 A 
HETATM   10  C20 UNL     1     -11.899 -38.290  26.358  1.00  0.00     0.109 A 
HETATM   11 CL2  UNL     1     -13.766 -38.449  24.488  1.00  0.00    -0.081 Cl
HETATM   12  C19 UNL     1     -10.671 -37.971  26.880  1.00  0.00     0.069 A 
HETATM   13  C18 UNL     1      -9.803 -37.299  26.062  1.00  0.00     0.041 A 
HETATM   14 CL1  UNL     1     -10.237 -38.405  28.519  1.00  0.00    -0.081 Cl
BRANCH   8  15
HETATM   15  C2  UNL     1     -11.602 -36.883  22.857  1.00  0.00     0.163 C 
BRANCH  15  16
HETATM   16  N2  UNL     1     -11.828 -37.879  21.880  1.00  0.00    -0.366 N 
ATOM     17  H2  UNL     1     -11.349 -38.775  21.966  1.00  0.00     0.162 HD
BRANCH  16  18
HETATM   18  C1  UNL     1     -12.717 -37.664  20.763  1.00  0.00     0.145 C 
HETATM   19  N1  UNL     1     -12.494 -38.133  19.583  1.00  0.00    -0.379 N 
ATOM     20  H12 UNL     1     -13.122 -37.981  18.794  1.00  0.00     0.158 HD
ATOM     21  H11 UNL     1     -11.646 -38.686  19.451  1.00  0.00     0.158 HD
HETATM   22  S1  UNL     1     -14.202 -36.696  20.993  1.00  0.00    -0.014 SA
ENDBRANCH  16  18
ENDBRANCH  15  16
ENDBRANCH   8  15
BRANCH  10  23
HETATM   23  O2  UNL     1     -12.825 -38.975  27.143  1.00  0.00    -0.357 OA
ATOM     24  H2  UNL     1     -13.694 -38.611  27.271  1.00  0.00     0.217 HD
ENDBRANCH  10  23
ENDBRANCH   1   7
BRANCH   4  25
HETATM   25  C7  UNL     1      -6.424 -33.719  24.508  1.00  0.00     0.269 C 
HETATM   26  O1  UNL     1      -6.835 -32.562  24.595  1.00  0.00    -0.266 OA
HETATM   27  N4  UNL     1      -5.143 -34.031  25.035  1.00  0.00    -0.347 N 
ATOM     28  H4  UNL     1      -4.772 -34.979  24.980  1.00  0.00     0.163 HD
BRANCH  27  29
HETATM   29  C8  UNL     1      -4.379 -32.972  25.652  1.00  0.00     0.240 C 
BRANCH  29  30
HETATM   30  C9  UNL     1      -3.269 -33.507  26.502  1.00  0.00     0.403 C 
HETATM   31  F1  UNL     1      -3.761 -34.556  27.250  1.00  0.00    -0.169 F 
HETATM   32  F2  UNL     1      -2.926 -32.512  27.404  1.00  0.00    -0.169 F 
HETATM   33  F3  UNL     1      -2.193 -33.841  25.728  1.00  0.00    -0.169 F 
ENDBRANCH  29  30
ENDBRANCH  27  29
ENDBRANCH   4  25
BRANCH   5  34
HETATM   34  C11 UNL     1      -6.248 -34.761  21.439  1.00  0.00     0.053 C 
BRANCH  34  35
HETATM   35  C12 UNL     1      -4.841 -34.545  21.844  1.00  0.00    -0.010 C 
HETATM   36  C13 UNL     1      -4.300 -33.187  21.680  1.00  0.00     0.005 C 
HETATM   37  C14 UNL     1      -2.763 -33.192  21.623  1.00  0.00     0.000 C 
HETATM   38  C15 UNL     1      -2.170 -34.337  22.381  1.00  0.00     0.000 C 
HETATM   39  C16 UNL     1      -2.611 -35.644  21.775  1.00  0.00     0.000 C 
HETATM   40  C17 UNL     1      -3.923 -35.481  21.033  1.00  0.00     0.005 C 
ENDBRANCH  34  35
ENDBRANCH   5  34
TORSDOF 10
ENDMDL
MODEL 4
REMARK VINA RESULT: -7.876935772      2.075      3.383
REMARK  10 active torsions:
REMARK  status: ('A' for Active; 'I' for Inactive)
REMARK    1  A    between atoms: C1_4  and  N2_6 
REMARK    2  A    between atoms: N2_6  and  C2_8 
REMARK    3  A    between atoms: C2_8  and  C3_9 
REMARK    4  A    between atoms: C4_10  and  C5_11 
REMARK    5  A    between atoms: C6_14  and  C7_15 
REMARK       I    between atoms: C7_15  and  N4_17 
REMARK    6  A    between atoms: N4_17  and  C8_19 
REMARK    7  A    between atoms: C8_19  and  C9_20 
REMARK    8  A    between atoms: C10_24  and  C11_25 
REMARK    9  A    between atoms: C11_25  and  C12_26 
REMARK   10  A    between atoms: C20_36  and  O2_37 
ROOT
HETATM    1  C5  UNL     1      -1.472 -33.561  25.348  1.00  0.00     0.086 A 
HETATM    2  N3  UNL     1      -2.110 -32.905  26.291  1.00  0.00    -0.345 N 
ATOM      3  H3  UNL     1      -3.109 -32.732  26.189  1.00  0.00     0.167 HD
HETATM    4  C6  UNL     1      -1.494 -32.470  27.351  1.00  0.00     0.115 A 
HETATM    5  C10 UNL     1      -0.167 -32.719  27.459  1.00  0.00     0.017 A 
HETATM    6  S2  UNL     1       0.100 -33.584  25.966  1.00  0.00    -0.074 SA
ENDROOT
BRANCH   1   7
HETATM    7  C4  UNL     1      -2.093 -34.085  24.110  1.00  0.00     0.009 A 
HETATM    8  C3  UNL     1      -3.283 -33.656  23.610  1.00  0.00    -0.003 A 
HETATM    9  C21 UNL     1      -3.725 -34.231  22.432  1.00  0.00     0.077 A 
HETATM   10  C20 UNL     1      -2.994 -35.225  21.759  1.00  0.00     0.109 A 
HETATM   11 CL2  UNL     1      -5.187 -33.748  21.624  1.00  0.00    -0.081 Cl
HETATM   12  C19 UNL     1      -1.797 -35.647  22.278  1.00  0.00     0.069 A 
HETATM   13  C18 UNL     1      -1.382 -35.060  23.443  1.00  0.00     0.041 A 
HETATM   14 CL1  UNL     1      -0.843 -36.882  21.484  1.00  0.00    -0.081 Cl
BRANCH   8  15
HETATM   15  C2  UNL     1      -4.016 -32.607  24.293  1.00  0.00     0.163 C 
BRANCH  15  16
HETATM   16  N2  UNL     1      -5.076 -32.916  25.177  1.00  0.00    -0.366 N 
ATOM     17  H2  UNL     1      -4.881 -32.999  26.175  1.00  0.00     0.162 HD
BRANCH  16  18
HETATM   18  C1  UNL     1      -6.426 -33.119  24.707  1.00  0.00     0.145 C 
HETATM   19  N1  UNL     1      -7.195 -32.154  24.332  1.00  0.00    -0.379 N 
ATOM     20  H12 UNL     1      -8.149 -32.298  24.000  1.00  0.00     0.158 HD
ATOM     21  H11 UNL     1      -6.813 -31.209  24.370  1.00  0.00     0.158 HD
HETATM   22  S1  UNL     1      -7.095 -34.775  24.639  1.00  0.00    -0.014 SA
ENDBRANCH  16  18
ENDBRANCH  15  16
ENDBRANCH   8  15
BRANCH  10  23
HETATM   23  O2  UNL     1      -3.468 -35.786  20.574  1.00  0.00    -0.357 OA
ATOM     24  H2  UNL     1      -3.303 -36.704  20.389  1.00  0.00     0.217 HD
ENDBRANCH  10  23
ENDBRANCH   1   7
BRANCH   4  25
HETATM   25  C7  UNL     1      -2.266 -31.668  28.350  1.00  0.00     0.269 C 
HETATM   26  O1  UNL     1      -3.255 -31.031  27.986  1.00  0.00    -0.266 OA
HETATM   27  N4  UNL     1      -1.888 -31.621  29.717  1.00  0.00    -0.347 N 
ATOM     28  H4  UNL     1      -1.074 -32.136  30.053  1.00  0.00     0.163 HD
BRANCH  27  29
HETATM   29  C8  UNL     1      -2.685 -30.826  30.622  1.00  0.00     0.240 C 
BRANCH  29  30
HETATM   30  C9  UNL     1      -3.159 -31.623  31.797  1.00  0.00     0.403 C 
HETATM   31  F1  UNL     1      -3.524 -32.876  31.352  1.00  0.00    -0.169 F 
HETATM   32  F2  UNL     1      -4.317 -31.021  32.262  1.00  0.00    -0.169 F 
HETATM   33  F3  UNL     1      -2.206 -31.645  32.776  1.00  0.00    -0.169 F 
ENDBRANCH  29  30
ENDBRANCH  27  29
ENDBRANCH   4  25
BRANCH   5  34
HETATM   34  C11 UNL     1       0.863 -32.516  28.511  1.00  0.00     0.053 C 
BRANCH  34  35
HETATM   35  C12 UNL     1       2.183 -33.124  28.231  1.00  0.00    -0.010 C 
HETATM   36  C13 UNL     1       3.231 -32.941  29.247  1.00  0.00     0.005 C 
HETATM   37  C14 UNL     1       4.637 -33.133  28.652  1.00  0.00     0.000 C 
HETATM   38  C15 UNL     1       4.636 -34.066  27.483  1.00  0.00     0.000 C 
HETATM   39  C16 UNL     1       3.789 -33.504  26.371  1.00  0.00     0.000 C 
HETATM   40  C17 UNL     1       2.745 -32.550  26.915  1.00  0.00     0.005 C 
ENDBRANCH  34  35
ENDBRANCH   5  34
TORSDOF 10
ENDMDL
MODEL 5
REMARK VINA RESULT: -7.872728817      7.124      9.808
REMARK  10 active torsions:
REMARK  status: ('A' for Active; 'I' for Inactive)
REMARK    1  A    between atoms: C1_4  and  N2_6 
REMARK    2  A    between atoms: N2_6  and  C2_8 
REMARK    3  A    between atoms: C2_8  and  C3_9 
REMARK    4  A    between atoms: C4_10  and  C5_11 
REMARK    5  A    between atoms: C6_14  and  C7_15 
REMARK       I    between atoms: C7_15  and  N4_17 
REMARK    6  A    between atoms: N4_17  and  C8_19 
REMARK    7  A    between atoms: C8_19  and  C9_20 
REMARK    8  A    between atoms: C10_24  and  C11_25 
REMARK    9  A    between atoms: C11_25  and  C12_26 
REMARK   10  A    between atoms: C20_36  and  O2_37 
ROOT
HETATM    1  C5  UNL     1      -9.864 -36.556  23.403  1.00  0.00     0.086 A 
HETATM    2  N3  UNL     1      -8.873 -36.406  22.555  1.00  0.00    -0.345 N 
ATOM      3  H3  UNL     1      -8.812 -37.021  21.745  1.00  0.00     0.167 HD
HETATM    4  C6  UNL     1      -7.966 -35.488  22.727  1.00  0.00     0.115 A 
HETATM    5  C10 UNL     1      -8.077 -34.683  23.810  1.00  0.00     0.017 A 
HETATM    6  S2  UNL     1      -9.527 -35.340  24.527  1.00  0.00    -0.074 SA
ENDROOT
BRANCH   1   7
HETATM    7  C4  UNL     1     -10.933 -37.575  23.288  1.00  0.00     0.009 A 
HETATM    8  C3  UNL     1     -11.013 -38.691  24.061  1.00  0.00    -0.003 A 
HETATM    9  C21 UNL     1     -12.082 -39.542  23.845  1.00  0.00     0.077 A 
HETATM   10  C20 UNL     1     -13.061 -39.288  22.870  1.00  0.00     0.109 A 
HETATM   11 CL2  UNL     1     -12.370 -40.971  24.792  1.00  0.00    -0.081 Cl
HETATM   12  C19 UNL     1     -12.964 -38.158  22.098  1.00  0.00     0.069 A 
HETATM   13  C18 UNL     1     -11.898 -37.333  22.333  1.00  0.00     0.041 A 
HETATM   14 CL1  UNL     1     -14.153 -37.791  20.867  1.00  0.00    -0.081 Cl
BRANCH   8  15
HETATM   15  C2  UNL     1     -10.016 -38.930  25.089  1.00  0.00     0.163 C 
BRANCH  15  16
HETATM   16  N2  UNL     1     -10.248 -38.546  26.430  1.00  0.00    -0.366 N 
ATOM     17  H2  UNL     1     -10.252 -37.554  26.668  1.00  0.00     0.162 HD
BRANCH  16  18
HETATM   18  C1  UNL     1     -10.477 -39.518  27.472  1.00  0.00     0.145 C 
HETATM   19  N1  UNL     1      -9.561 -40.311  27.912  1.00  0.00    -0.379 N 
ATOM     20  H12 UNL     1      -9.723 -40.998  28.648  1.00  0.00     0.158 HD
ATOM     21  H11 UNL     1      -8.633 -40.231  27.496  1.00  0.00     0.158 HD
HETATM   22  S1  UNL     1     -12.103 -39.659  28.201  1.00  0.00    -0.014 SA
ENDBRANCH  16  18
ENDBRANCH  15  16
ENDBRANCH   8  15
BRANCH  10  23
HETATM   23  O2  UNL     1     -14.126 -40.167  22.676  1.00  0.00    -0.357 OA
ATOM     24  H2  UNL     1     -14.281 -40.864  23.303  1.00  0.00     0.217 HD
ENDBRANCH  10  23
ENDBRANCH   1   7
BRANCH   4  25
HETATM   25  C7  UNL     1      -6.825 -35.419  21.762  1.00  0.00     0.269 C 
HETATM   26  O1  UNL     1      -6.116 -36.410  21.586  1.00  0.00    -0.266 OA
HETATM   27  N4  UNL     1      -6.535 -34.234  21.037  1.00  0.00    -0.347 N 
ATOM     28  H4  UNL     1      -7.102 -33.395  21.159  1.00  0.00     0.163 HD
BRANCH  27  29
HETATM   29  C8  UNL     1      -5.418 -34.245  20.122  1.00  0.00     0.240 C 
BRANCH  29  30
HETATM   30  C9  UNL     1      -4.145 -33.829  20.790  1.00  0.00     0.403 C 
HETATM   31  F1  UNL     1      -4.425 -32.791  21.652  1.00  0.00    -0.169 F 
HETATM   32  F2  UNL     1      -3.316 -33.310  19.809  1.00  0.00    -0.169 F 
HETATM   33  F3  UNL     1      -3.552 -34.902  21.397  1.00  0.00    -0.169 F 
ENDBRANCH  29  30
ENDBRANCH  27  29
ENDBRANCH   4  25
BRANCH   5  34
HETATM   34  C11 UNL     1      -7.361 -33.480  24.309  1.00  0.00     0.053 C 
BRANCH  34  35
HETATM   35  C12 UNL     1      -5.890 -33.611  24.400  1.00  0.00    -0.010 C 
HETATM   36  C13 UNL     1      -5.361 -34.456  25.482  1.00  0.00     0.005 C 
HETATM   37  C14 UNL     1      -3.897 -34.113  25.806  1.00  0.00     0.000 C 
HETATM   38  C15 UNL     1      -3.167 -33.564  24.621  1.00  0.00     0.000 C 
HETATM   39  C16 UNL     1      -3.805 -32.275  24.170  1.00  0.00     0.000 C 
HETATM   40  C17 UNL     1      -5.260 -32.216  24.589  1.00  0.00     0.005 C 
ENDBRANCH  34  35
ENDBRANCH   5  34
TORSDOF 10
ENDMDL
