MODEL 1
REMARK VINA RESULT: -10.447063541      0.000      0.000
REMARK  10 active torsions:
REMARK  status: ('A' for Active; 'I' for Inactive)
REMARK    1  A    between atoms: N1_1  and  C1_4 
REMARK    2  A    between atoms: C2_7  and  C3_8 
REMARK    3  A    between atoms: C4_9  and  O1_10 
REMARK    4  A    between atoms: C5_12  and  C6_13 
REMARK    5  A    between atoms: C16_26  and  C17_27 
REMARK    6  A    between atoms: C17_27  and  C18_28 
REMARK    7  A    between atoms: C18_28  and  C19_29 
REMARK    8  A    between atoms: C19_29  and  C20_30 
REMARK    9  A    between atoms: C20_30  and  C21_31 
REMARK   10  A    between atoms: C21_31  and  C22_34 
ROOT
HETATM    1  C1  UNL     1     -10.772 -36.918  21.680  1.00  0.00     0.676 A 
HETATM    2  N2  UNL     1     -11.380 -37.427  22.779  1.00  0.00    -0.190 N 
ATOM      3  H2  UNL     1     -12.232 -37.985  22.728  1.00  0.00     0.184 HD
HETATM    4  C2  UNL     1     -10.770 -37.137  23.944  1.00  0.00     0.082 A 
HETATM    5  C13 UNL     1      -9.600 -36.365  23.973  1.00  0.00     0.063 A 
HETATM    6  S1  UNL     1      -8.583 -35.812  25.222  1.00  0.00    -0.083 SA
HETATM    7  C14 UNL     1      -7.434 -34.959  24.282  1.00  0.00     0.035 A 
HETATM    8  C15 UNL     1      -6.276 -34.223  24.599  1.00  0.00     0.029 A 
HETATM    9  C16 UNL     1      -5.540 -33.638  23.590  1.00  0.00    -0.041 A 
HETATM   10  C23 UNL     1      -6.022 -33.836  22.328  1.00  0.00     0.095 A 
HETATM   11  N3  UNL     1      -7.111 -34.527  22.031  1.00  0.00    -0.362 N 
ATOM     12  H3  UNL     1      -7.388 -34.614  21.053  1.00  0.00     0.165 HD
HETATM   13  C24 UNL     1      -7.886 -35.135  23.004  1.00  0.00     0.078 A 
HETATM   14  C25 UNL     1      -9.020 -35.871  22.848  1.00  0.00     0.096 A 
HETATM   15  N4  UNL     1      -9.673 -36.191  21.683  1.00  0.00    -0.188 N 
ATOM     16  H4  UNL     1      -9.297 -35.857  20.795  1.00  0.00     0.184 HD
ENDROOT
BRANCH   4  17
HETATM   17  C3  UNL     1     -11.252 -37.581  25.242  1.00  0.00     0.034 A 
HETATM   18  C4  UNL     1     -10.601 -38.625  25.861  1.00  0.00     0.095 A 
HETATM   19  C5  UNL     1     -10.990 -39.110  27.091  1.00  0.00     0.075 A 
HETATM   20  C7  UNL     1     -12.080 -38.501  27.699  1.00  0.00     0.029 A 
HETATM   21  C8  UNL     1     -12.745 -37.455  27.095  1.00  0.00    -0.050 A 
HETATM   22  C9  UNL     1     -12.330 -36.981  25.846  1.00  0.00    -0.036 A 
HETATM   23  C12 UNL     1     -13.902 -36.649  27.509  1.00  0.00     0.039 C 
HETATM   24  C10 UNL     1     -13.187 -35.872  25.414  1.00  0.00     0.040 C 
HETATM   25  C11 UNL     1     -13.739 -35.370  26.749  1.00  0.00     0.009 C 
BRANCH  18  26
HETATM   26  O1  UNL     1      -9.499 -39.216  25.211  1.00  0.00    -0.359 OA
ATOM     27  H1  UNL     1      -8.776 -39.536  25.738  1.00  0.00     0.217 HD
ENDBRANCH  18  26
BRANCH  19  28
HETATM   28  C6  UNL     1     -10.271 -40.203  27.689  1.00  0.00     0.212 C 
HETATM   29  O2  UNL     1     -10.000 -40.186  28.914  1.00  0.00    -0.644 OA
HETATM   30  O3  UNL     1      -9.855 -41.297  26.949  1.00  0.00    -0.644 OA
ENDBRANCH  19  28
ENDBRANCH   4  17
BRANCH   1  31
HETATM   31  N1  UNL     1     -11.350 -37.191  20.547  1.00  0.00    -0.234 N 
ATOM     32  H12 UNL     1     -12.212 -37.735  20.547  1.00  0.00     0.174 HD
ATOM     33  H11 UNL     1     -10.880 -36.828  19.718  1.00  0.00     0.174 HD
ENDBRANCH   1  31
BRANCH   9  34
HETATM   34  C17 UNL     1      -4.322 -32.865  23.940  1.00  0.00     0.040 C 
BRANCH  34  35
HETATM   35  C18 UNL     1      -3.985 -33.113  25.379  1.00  0.00     0.005 C 
BRANCH  35  36
HETATM   36  C19 UNL     1      -2.739 -33.958  25.582  1.00  0.00     0.007 C 
BRANCH  36  37
HETATM   37  C20 UNL     1      -2.114 -33.582  26.883  1.00  0.00     0.089 C 
BRANCH  37  38
HETATM   38  C21 UNL     1      -0.762 -32.985  26.875  1.00  0.00     0.339 C 
HETATM   39  F1  UNL     1       0.161 -34.030  26.939  1.00  0.00    -0.196 F 
HETATM   40  F2  UNL     1      -0.623 -32.330  25.636  1.00  0.00    -0.196 F 
BRANCH  38  41
HETATM   41  C22 UNL     1      -0.536 -31.988  27.938  1.00  0.00     0.454 C 
HETATM   42  F3  UNL     1       0.484 -32.343  28.776  1.00  0.00    -0.165 F 
HETATM   43  F4  UNL     1      -1.675 -31.758  28.702  1.00  0.00    -0.165 F 
HETATM   44  F5  UNL     1      -0.183 -30.771  27.330  1.00  0.00    -0.165 F 
ENDBRANCH  38  41
ENDBRANCH  37  38
ENDBRANCH  36  37
ENDBRANCH  35  36
ENDBRANCH  34  35
ENDBRANCH   9  34
TORSDOF 10
ENDMDL
MODEL 2
REMARK VINA RESULT: -10.415550596      1.976      2.831
REMARK  10 active torsions:
REMARK  status: ('A' for Active; 'I' for Inactive)
REMARK    1  A    between atoms: N1_1  and  C1_4 
REMARK    2  A    between atoms: C2_7  and  C3_8 
REMARK    3  A    between atoms: C4_9  and  O1_10 
REMARK    4  A    between atoms: C5_12  and  C6_13 
REMARK    5  A    between atoms: C16_26  and  C17_27 
REMARK    6  A    between atoms: C17_27  and  C18_28 
REMARK    7  A    between atoms: C18_28  and  C19_29 
REMARK    8  A    between atoms: C19_29  and  C20_30 
REMARK    9  A    between atoms: C20_30  and  C21_31 
REMARK   10  A    between atoms: C21_31  and  C22_34 
ROOT
HETATM    1  C1  UNL     1     -11.222 -37.225  21.991  1.00  0.00     0.676 A 
HETATM    2  N2  UNL     1     -11.725 -37.746  23.136  1.00  0.00    -0.190 N 
ATOM      3  H2  UNL     1     -12.569 -38.318  23.156  1.00  0.00     0.184 HD
HETATM    4  C2  UNL     1     -11.022 -37.450  24.245  1.00  0.00     0.082 A 
HETATM    5  C13 UNL     1      -9.866 -36.660  24.177  1.00  0.00     0.063 A 
HETATM    6  S1  UNL     1      -8.754 -36.096  25.337  1.00  0.00    -0.083 SA
HETATM    7  C14 UNL     1      -7.702 -35.222  24.305  1.00  0.00     0.035 A 
HETATM    8  C15 UNL     1      -6.533 -34.470  24.525  1.00  0.00     0.029 A 
HETATM    9  C16 UNL     1      -5.895 -33.870  23.460  1.00  0.00    -0.041 A 
HETATM   10  C23 UNL     1      -6.481 -34.071  22.243  1.00  0.00     0.095 A 
HETATM   11  N3  UNL     1      -7.580 -34.778  22.037  1.00  0.00    -0.362 N 
ATOM     12  H3  UNL     1      -7.939 -34.867  21.087  1.00  0.00     0.165 HD
HETATM   13  C24 UNL     1      -8.260 -35.401  23.071  1.00  0.00     0.078 A 
HETATM   14  C25 UNL     1      -9.392 -36.154  23.009  1.00  0.00     0.096 A 
HETATM   15  N4  UNL     1     -10.137 -36.481  21.903  1.00  0.00    -0.188 N 
ATOM     16  H4  UNL     1      -9.844 -36.138  20.988  1.00  0.00     0.184 HD
ENDROOT
BRANCH   4  17
HETATM   17  C3  UNL     1     -11.384 -37.906  25.578  1.00  0.00     0.034 A 
HETATM   18  C4  UNL     1     -10.659 -38.935  26.139  1.00  0.00     0.095 A 
HETATM   19  C5  UNL     1     -10.933 -39.428  27.396  1.00  0.00     0.075 A 
HETATM   20  C7  UNL     1     -11.983 -38.845  28.093  1.00  0.00     0.029 A 
HETATM   21  C8  UNL     1     -12.721 -37.816  27.549  1.00  0.00    -0.050 A 
HETATM   22  C9  UNL     1     -12.422 -37.332  26.271  1.00  0.00    -0.036 A 
HETATM   23  C12 UNL     1     -13.858 -37.037  28.058  1.00  0.00     0.039 C 
HETATM   24  C10 UNL     1     -13.337 -36.244  25.914  1.00  0.00     0.040 C 
HETATM   25  C11 UNL     1     -13.789 -35.755  27.291  1.00  0.00     0.009 C 
BRANCH  18  26
HETATM   26  O1  UNL     1      -9.601 -39.498  25.399  1.00  0.00    -0.359 OA
ATOM     27  H1  UNL     1      -8.895 -38.932  25.108  1.00  0.00     0.217 HD
ENDBRANCH  18  26
BRANCH  19  28
HETATM   28  C6  UNL     1     -10.141 -40.504  27.930  1.00  0.00     0.212 C 
HETATM   29  O2  UNL     1      -9.426 -40.319  28.944  1.00  0.00    -0.644 OA
HETATM   30  O3  UNL     1     -10.136 -41.765  27.356  1.00  0.00    -0.644 OA
ENDBRANCH  19  28
ENDBRANCH   4  17
BRANCH   1  31
HETATM   31  N1  UNL     1     -11.890 -37.503  20.911  1.00  0.00    -0.234 N 
ATOM     32  H12 UNL     1     -12.849 -37.840  20.992  1.00  0.00     0.174 HD
ATOM     33  H11 UNL     1     -11.386 -37.359  20.036  1.00  0.00     0.174 HD
ENDBRANCH   1  31
BRANCH   9  34
HETATM   34  C17 UNL     1      -4.663 -33.079  23.707  1.00  0.00     0.040 C 
BRANCH  34  35
HETATM   35  C18 UNL     1      -4.180 -33.353  25.100  1.00  0.00     0.005 C 
BRANCH  35  36
HETATM   36  C19 UNL     1      -2.779 -33.935  25.161  1.00  0.00     0.007 C 
BRANCH  36  37
HETATM   37  C20 UNL     1      -2.412 -34.442  23.807  1.00  0.00     0.089 C 
BRANCH  37  38
HETATM   38  C21 UNL     1      -1.297 -35.405  23.687  1.00  0.00     0.339 C 
HETATM   39  F1  UNL     1      -0.147 -34.779  24.170  1.00  0.00    -0.196 F 
HETATM   40  F2  UNL     1      -1.614 -36.489  24.528  1.00  0.00    -0.196 F 
BRANCH  38  41
HETATM   41  C22 UNL     1      -1.102 -35.935  22.325  1.00  0.00     0.454 C 
HETATM   42  F3  UNL     1      -0.667 -37.231  22.329  1.00  0.00    -0.165 F 
HETATM   43  F4  UNL     1      -0.209 -35.172  21.579  1.00  0.00    -0.165 F 
HETATM   44  F5  UNL     1      -2.340 -35.904  21.660  1.00  0.00    -0.165 F 
ENDBRANCH  38  41
ENDBRANCH  37  38
ENDBRANCH  36  37
ENDBRANCH  35  36
ENDBRANCH  34  35
ENDBRANCH   9  34
TORSDOF 10
ENDMDL
MODEL 3
REMARK VINA RESULT: -10.375041390      1.111      1.451
REMARK  10 active torsions:
REMARK  status: ('A' for Active; 'I' for Inactive)
REMARK    1  A    between atoms: N1_1  and  C1_4 
REMARK    2  A    between atoms: C2_7  and  C3_8 
REMARK    3  A    between atoms: C4_9  and  O1_10 
REMARK    4  A    between atoms: C5_12  and  C6_13 
REMARK    5  A    between atoms: C16_26  and  C17_27 
REMARK    6  A    between atoms: C17_27  and  C18_28 
REMARK    7  A    between atoms: C18_28  and  C19_29 
REMARK    8  A    between atoms: C19_29  and  C20_30 
REMARK    9  A    between atoms: C20_30  and  C21_31 
REMARK   10  A    between atoms: C21_31  and  C22_34 
ROOT
HETATM    1  C1  UNL     1     -11.198 -37.237  21.853  1.00  0.00     0.676 A 
HETATM    2  N2  UNL     1     -11.724 -37.677  23.022  1.00  0.00    -0.190 N 
ATOM      3  H2  UNL     1     -12.582 -38.226  23.067  1.00  0.00     0.184 HD
HETATM    4  C2  UNL     1     -11.024 -37.332  24.119  1.00  0.00     0.082 A 
HETATM    5  C13 UNL     1      -9.849 -36.575  24.016  1.00  0.00     0.063 A 
HETATM    6  S1  UNL     1      -8.734 -35.968  25.152  1.00  0.00    -0.083 SA
HETATM    7  C14 UNL     1      -7.653 -35.183  24.081  1.00  0.00     0.035 A 
HETATM    8  C15 UNL     1      -6.468 -34.446  24.268  1.00  0.00     0.029 A 
HETATM    9  C16 UNL     1      -5.806 -33.926  23.176  1.00  0.00    -0.041 A 
HETATM   10  C23 UNL     1      -6.385 -34.186  21.967  1.00  0.00     0.095 A 
HETATM   11  N3  UNL     1      -7.499 -34.878  21.792  1.00  0.00    -0.362 N 
ATOM     12  H3  UNL     1      -7.851 -35.015  20.845  1.00  0.00     0.165 HD
HETATM   13  C24 UNL     1      -8.203 -35.422  22.854  1.00  0.00     0.078 A 
HETATM   14  C25 UNL     1      -9.353 -36.151  22.825  1.00  0.00     0.096 A 
HETATM   15  N4  UNL     1     -10.096 -36.525  21.732  1.00  0.00    -0.188 N 
ATOM     16  H4  UNL     1      -9.786 -36.245  20.802  1.00  0.00     0.184 HD
ENDROOT
BRANCH   4  17
HETATM   17  C3  UNL     1     -11.409 -37.699  25.472  1.00  0.00     0.034 A 
HETATM   18  C4  UNL     1     -10.693 -38.687  26.113  1.00  0.00     0.095 A 
HETATM   19  C5  UNL     1     -10.989 -39.096  27.395  1.00  0.00     0.075 A 
HETATM   20  C7  UNL     1     -12.052 -38.470  28.034  1.00  0.00     0.029 A 
HETATM   21  C8  UNL     1     -12.780 -37.480  27.409  1.00  0.00    -0.050 A 
HETATM   22  C9  UNL     1     -12.459 -37.082  26.108  1.00  0.00    -0.036 A 
HETATM   23  C12 UNL     1     -13.926 -36.671  27.846  1.00  0.00     0.039 C 
HETATM   24  C10 UNL     1     -13.369 -36.021  25.663  1.00  0.00     0.040 C 
HETATM   25  C11 UNL     1     -13.845 -35.443  26.997  1.00  0.00     0.009 C 
BRANCH  18  26
HETATM   26  O1  UNL     1      -9.623 -39.296  25.431  1.00  0.00    -0.359 OA
ATOM     27  H1  UNL     1      -8.987 -39.795  25.931  1.00  0.00     0.217 HD
ENDBRANCH  18  26
BRANCH  19  28
HETATM   28  C6  UNL     1     -10.206 -40.133  28.014  1.00  0.00     0.212 C 
HETATM   29  O2  UNL     1      -9.807 -40.003  29.196  1.00  0.00    -0.644 OA
HETATM   30  O3  UNL     1      -9.867 -41.294  27.339  1.00  0.00    -0.644 OA
ENDBRANCH  19  28
ENDBRANCH   4  17
BRANCH   1  31
HETATM   31  N1  UNL     1     -11.863 -37.564  20.785  1.00  0.00    -0.234 N 
ATOM     32  H12 UNL     1     -11.595 -38.401  20.269  1.00  0.00     0.174 HD
ATOM     33  H11 UNL     1     -12.627 -36.936  20.536  1.00  0.00     0.174 HD
ENDBRANCH   1  31
BRANCH   9  34
HETATM   34  C17 UNL     1      -4.558 -33.151  23.389  1.00  0.00     0.040 C 
BRANCH  34  35
HETATM   35  C18 UNL     1      -3.409 -33.906  22.791  1.00  0.00     0.005 C 
BRANCH  35  36
HETATM   36  C19 UNL     1      -2.467 -34.508  23.820  1.00  0.00     0.007 C 
BRANCH  36  37
HETATM   37  C20 UNL     1      -2.140 -33.466  24.835  1.00  0.00     0.089 C 
BRANCH  37  38
HETATM   38  C21 UNL     1      -1.940 -33.881  26.239  1.00  0.00     0.339 C 
HETATM   39  F1  UNL     1      -1.808 -35.270  26.254  1.00  0.00    -0.196 F 
HETATM   40  F2  UNL     1      -0.725 -33.303  26.657  1.00  0.00    -0.196 F 
BRANCH  38  41
HETATM   41  C22 UNL     1      -2.996 -33.421  27.161  1.00  0.00     0.454 C 
HETATM   42  F3  UNL     1      -2.509 -32.607  28.145  1.00  0.00    -0.165 F 
HETATM   43  F4  UNL     1      -3.679 -34.476  27.757  1.00  0.00    -0.165 F 
HETATM   44  F5  UNL     1      -3.932 -32.679  26.419  1.00  0.00    -0.165 F 
ENDBRANCH  38  41
ENDBRANCH  37  38
ENDBRANCH  36  37
ENDBRANCH  35  36
ENDBRANCH  34  35
ENDBRANCH   9  34
TORSDOF 10
ENDMDL
MODEL 4
REMARK VINA RESULT: -10.359555833      0.689      1.243
REMARK  10 active torsions:
REMARK  status: ('A' for Active; 'I' for Inactive)
REMARK    1  A    between atoms: N1_1  and  C1_4 
REMARK    2  A    between atoms: C2_7  and  C3_8 
REMARK    3  A    between atoms: C4_9  and  O1_10 
REMARK    4  A    between atoms: C5_12  and  C6_13 
REMARK    5  A    between atoms: C16_26  and  C17_27 
REMARK    6  A    between atoms: C17_27  and  C18_28 
REMARK    7  A    between atoms: C18_28  and  C19_29 
REMARK    8  A    between atoms: C19_29  and  C20_30 
REMARK    9  A    between atoms: C20_30  and  C21_31 
REMARK   10  A    between atoms: C21_31  and  C22_34 
ROOT
HETATM    1  C1  UNL     1     -10.408 -36.675  21.479  1.00  0.00     0.676 A 
HETATM    2  N2  UNL     1     -11.109 -37.173  22.526  1.00  0.00    -0.190 N 
ATOM      3  H2  UNL     1     -11.975 -37.698  22.409  1.00  0.00     0.184 HD
HETATM    4  C2  UNL     1     -10.570 -36.921  23.734  1.00  0.00     0.082 A 
HETATM    5  C13 UNL     1      -9.376 -36.194  23.854  1.00  0.00     0.063 A 
HETATM    6  S1  UNL     1      -8.428 -35.696  25.177  1.00  0.00    -0.083 SA
HETATM    7  C14 UNL     1      -7.185 -34.877  24.330  1.00  0.00     0.035 A 
HETATM    8  C15 UNL     1      -6.025 -34.190  24.736  1.00  0.00     0.029 A 
HETATM    9  C16 UNL     1      -5.200 -33.621  23.789  1.00  0.00    -0.041 A 
HETATM   10  C23 UNL     1      -5.602 -33.785  22.494  1.00  0.00     0.095 A 
HETATM   11  N3  UNL     1      -6.692 -34.430  22.114  1.00  0.00    -0.362 N 
ATOM     12  H3  UNL     1      -6.905 -34.495  21.118  1.00  0.00     0.165 HD
HETATM   13  C24 UNL     1      -7.555 -35.020  23.023  1.00  0.00     0.078 A 
HETATM   14  C25 UNL     1      -8.703 -35.710  22.779  1.00  0.00     0.096 A 
HETATM   15  N4  UNL     1      -9.285 -35.991  21.567  1.00  0.00    -0.188 N 
ATOM     16  H4  UNL     1      -8.837 -35.660  20.712  1.00  0.00     0.184 HD
ENDROOT
BRANCH   4  17
HETATM   17  C3  UNL     1     -11.156 -37.361  24.990  1.00  0.00     0.034 A 
HETATM   18  C4  UNL     1     -10.575 -38.424  25.647  1.00  0.00     0.095 A 
HETATM   19  C5  UNL     1     -11.065 -38.907  26.842  1.00  0.00     0.075 A 
HETATM   20  C7  UNL     1     -12.184 -38.277  27.372  1.00  0.00     0.029 A 
HETATM   21  C8  UNL     1     -12.779 -37.213  26.729  1.00  0.00    -0.050 A 
HETATM   22  C9  UNL     1     -12.262 -36.741  25.518  1.00  0.00    -0.036 A 
HETATM   23  C12 UNL     1     -13.944 -36.383  27.062  1.00  0.00     0.039 C 
HETATM   24  C10 UNL     1     -13.059 -35.610  25.032  1.00  0.00     0.040 C 
HETATM   25  C11 UNL     1     -13.698 -35.104  26.327  1.00  0.00     0.009 C 
BRANCH  18  26
HETATM   26  O1  UNL     1      -9.442 -39.035  25.076  1.00  0.00    -0.359 OA
ATOM     27  H1  UNL     1      -8.638 -38.533  25.010  1.00  0.00     0.217 HD
ENDBRANCH  18  26
BRANCH  19  28
HETATM   28  C6  UNL     1     -10.417 -40.020  27.483  1.00  0.00     0.212 C 
HETATM   29  O2  UNL     1     -10.286 -40.041  28.730  1.00  0.00    -0.644 OA
HETATM   30  O3  UNL     1      -9.919 -41.092  26.760  1.00  0.00    -0.644 OA
ENDBRANCH  19  28
ENDBRANCH   4  17
BRANCH   1  31
HETATM   31  N1  UNL     1     -10.916 -36.912  20.306  1.00  0.00    -0.234 N 
ATOM     32  H12 UNL     1     -11.853 -36.573  20.092  1.00  0.00     0.174 HD
ATOM     33  H11 UNL     1     -10.318 -37.437  19.668  1.00  0.00     0.174 HD
ENDBRANCH   1  31
BRANCH   9  34
HETATM   34  C17 UNL     1      -3.981 -32.899  24.232  1.00  0.00     0.040 C 
BRANCH  34  35
HETATM   35  C18 UNL     1      -3.157 -33.815  25.087  1.00  0.00     0.005 C 
BRANCH  35  36
HETATM   36  C19 UNL     1      -2.639 -33.169  26.359  1.00  0.00     0.007 C 
BRANCH  36  37
HETATM   37  C20 UNL     1      -1.148 -33.153  26.315  1.00  0.00     0.089 C 
BRANCH  37  38
HETATM   38  C21 UNL     1      -0.422 -32.199  27.178  1.00  0.00     0.339 C 
HETATM   39  F1  UNL     1      -0.507 -30.941  26.580  1.00  0.00    -0.196 F 
HETATM   40  F2  UNL     1      -1.111 -32.168  28.406  1.00  0.00    -0.196 F 
BRANCH  38  41
HETATM   41  C22 UNL     1       0.976 -32.580  27.457  1.00  0.00     0.454 C 
HETATM   42  F3  UNL     1       1.872 -31.781  26.804  1.00  0.00    -0.165 F 
HETATM   43  F4  UNL     1       1.242 -33.905  27.127  1.00  0.00    -0.165 F 
HETATM   44  F5  UNL     1       1.203 -32.435  28.836  1.00  0.00    -0.165 F 
ENDBRANCH  38  41
ENDBRANCH  37  38
ENDBRANCH  36  37
ENDBRANCH  35  36
ENDBRANCH  34  35
ENDBRANCH   9  34
TORSDOF 10
ENDMDL
MODEL 5
REMARK VINA RESULT: -10.281260322      1.371      1.947
REMARK  10 active torsions:
REMARK  status: ('A' for Active; 'I' for Inactive)
REMARK    1  A    between atoms: N1_1  and  C1_4 
REMARK    2  A    between atoms: C2_7  and  C3_8 
REMARK    3  A    between atoms: C4_9  and  O1_10 
REMARK    4  A    between atoms: C5_12  and  C6_13 
REMARK    5  A    between atoms: C16_26  and  C17_27 
REMARK    6  A    between atoms: C17_27  and  C18_28 
REMARK    7  A    between atoms: C18_28  and  C19_29 
REMARK    8  A    between atoms: C19_29  and  C20_30 
REMARK    9  A    between atoms: C20_30  and  C21_31 
REMARK   10  A    between atoms: C21_31  and  C22_34 
ROOT
HETATM    1  C1  UNL     1     -11.228 -37.266  21.932  1.00  0.00     0.676 A 
HETATM    2  N2  UNL     1     -11.741 -37.740  23.093  1.00  0.00    -0.190 N 
ATOM      3  H2  UNL     1     -12.591 -38.303  23.130  1.00  0.00     0.184 HD
HETATM    4  C2  UNL     1     -11.039 -37.410  24.194  1.00  0.00     0.082 A 
HETATM    5  C13 UNL     1      -9.875 -36.634  24.102  1.00  0.00     0.063 A 
HETATM    6  S1  UNL     1      -8.763 -36.037  25.244  1.00  0.00    -0.083 SA
HETATM    7  C14 UNL     1      -7.699 -35.212  24.186  1.00  0.00     0.035 A 
HETATM    8  C15 UNL     1      -6.524 -34.462  24.383  1.00  0.00     0.029 A 
HETATM    9  C16 UNL     1      -5.877 -33.907  23.299  1.00  0.00    -0.041 A 
HETATM   10  C23 UNL     1      -6.460 -34.148  22.088  1.00  0.00     0.095 A 
HETATM   11  N3  UNL     1      -7.565 -34.852  21.904  1.00  0.00    -0.362 N 
ATOM     12  H3  UNL     1      -7.920 -34.972  20.956  1.00  0.00     0.165 HD
HETATM   13  C24 UNL     1      -8.254 -35.431  22.956  1.00  0.00     0.078 A 
HETATM   14  C25 UNL     1      -9.393 -36.175  22.918  1.00  0.00     0.096 A 
HETATM   15  N4  UNL     1     -10.137 -36.535  21.821  1.00  0.00    -0.188 N 
ATOM     16  H4  UNL     1      -9.837 -36.229  20.895  1.00  0.00     0.184 HD
ENDROOT
BRANCH   4  17
HETATM   17  C3  UNL     1     -11.411 -37.814  25.541  1.00  0.00     0.034 A 
HETATM   18  C4  UNL     1     -10.692 -38.822  26.145  1.00  0.00     0.095 A 
HETATM   19  C5  UNL     1     -10.975 -39.266  27.418  1.00  0.00     0.075 A 
HETATM   20  C7  UNL     1     -12.028 -38.654  28.087  1.00  0.00     0.029 A 
HETATM   21  C8  UNL     1     -12.758 -37.644  27.499  1.00  0.00    -0.050 A 
HETATM   22  C9  UNL     1     -12.451 -37.210  26.205  1.00  0.00    -0.036 A 
HETATM   23  C12 UNL     1     -13.896 -36.843  27.972  1.00  0.00     0.039 C 
HETATM   24  C10 UNL     1     -13.360 -36.134  25.801  1.00  0.00     0.040 C 
HETATM   25  C11 UNL     1     -13.818 -35.591  27.156  1.00  0.00     0.009 C 
BRANCH  18  26
HETATM   26  O1  UNL     1      -9.632 -39.417  25.433  1.00  0.00    -0.359 OA
ATOM     27  H1  UNL     1      -8.761 -39.048  25.520  1.00  0.00     0.217 HD
ENDBRANCH  18  26
BRANCH  19  28
HETATM   28  C6  UNL     1     -10.190 -40.324  27.998  1.00  0.00     0.212 C 
HETATM   29  O2  UNL     1      -9.763 -40.221  29.173  1.00  0.00    -0.644 OA
HETATM   30  O3  UNL     1      -9.879 -41.475  27.293  1.00  0.00    -0.644 OA
ENDBRANCH  19  28
ENDBRANCH   4  17
BRANCH   1  31
HETATM   31  N1  UNL     1     -11.895 -37.578  20.860  1.00  0.00    -0.234 N 
ATOM     32  H12 UNL     1     -12.513 -38.388  20.877  1.00  0.00     0.174 HD
ATOM     33  H11 UNL     1     -11.743 -36.966  20.058  1.00  0.00     0.174 HD
ENDBRANCH   1  31
BRANCH   9  34
HETATM   34  C17 UNL     1      -4.638 -33.119  23.522  1.00  0.00     0.040 C 
BRANCH  34  35
HETATM   35  C18 UNL     1      -3.801 -33.167  22.280  1.00  0.00     0.005 C 
BRANCH  35  36
HETATM   36  C19 UNL     1      -2.647 -34.151  22.354  1.00  0.00     0.007 C 
BRANCH  36  37
HETATM   37  C20 UNL     1      -2.654 -34.796  23.699  1.00  0.00     0.089 C 
BRANCH  37  38
HETATM   38  C21 UNL     1      -1.364 -35.180  24.310  1.00  0.00     0.339 C 
HETATM   39  F1  UNL     1      -1.378 -36.564  24.489  1.00  0.00    -0.196 F 
HETATM   40  F2  UNL     1      -0.366 -34.852  23.372  1.00  0.00    -0.196 F 
BRANCH  38  41
HETATM   41  C22 UNL     1      -1.054 -34.467  25.564  1.00  0.00     0.454 C 
HETATM   42  F3  UNL     1      -1.314 -33.128  25.479  1.00  0.00    -0.165 F 
HETATM   43  F4  UNL     1       0.269 -34.637  25.959  1.00  0.00    -0.165 F 
HETATM   44  F5  UNL     1      -1.869 -34.995  26.580  1.00  0.00    -0.165 F 
ENDBRANCH  38  41
ENDBRANCH  37  38
ENDBRANCH  36  37
ENDBRANCH  35  36
ENDBRANCH  34  35
ENDBRANCH   9  34
TORSDOF 10
ENDMDL
