MODEL 1
REMARK VINA RESULT: -10.013402776      0.000      0.000
REMARK  9 active torsions:
REMARK  status: ('A' for Active; 'I' for Inactive)
REMARK    1  A    between atoms: C2_2  and  C3_3 
REMARK    2  A    between atoms: C3_3  and  N1_4 
REMARK    3  A    between atoms: N1_4  and  C4_7 
REMARK    4  A    between atoms: C7_10  and  C8_11 
REMARK    5  A    between atoms: C8_11  and  N2_12 
REMARK    6  A    between atoms: C10_14  and  C11_15 
REMARK    7  A    between atoms: C17_24  and  N4_25 
REMARK    8  A    between atoms: C18_28  and  N5_29 
REMARK    9  A    between atoms: C19_34  and  C20_35 
ROOT
HETATM    1  C11 UNL     1     -10.055 -37.299  24.582  1.00  0.00     0.016 A 
HETATM    2  C12 UNL     1      -9.893 -38.033  25.715  1.00  0.00     0.030 A 
HETATM    3  C13 UNL     1     -10.642 -39.201  26.013  1.00  0.00     0.007 A 
HETATM    4  C14 UNL     1     -10.376 -39.750  27.298  1.00  0.00     0.048 C 
HETATM    5  C15 UNL     1     -10.272 -41.091  27.495  1.00  0.00     0.072 C 
HETATM    6  C16 UNL     1     -10.537 -41.816  28.672  1.00  0.00     0.107 C 
HETATM    7 CL1  UNL     1     -10.999 -43.487  28.530  1.00  0.00    -0.064 Cl
HETATM    8  N3  UNL     1     -10.471 -41.360  29.943  1.00  0.00    -0.330 N 
ATOM      9  H3  UNL     1     -10.835 -41.974  30.671  1.00  0.00     0.168 HD
HETATM   10  C17 UNL     1      -9.963 -40.156  30.348  1.00  0.00     0.144 C 
HETATM   11  C18 UNL     1      -9.764 -39.048  29.553  1.00  0.00     0.144 C 
HETATM   12  N6  UNL     1     -10.114 -38.833  28.282  1.00  0.00    -0.339 N 
ATOM     13  H6  UNL     1     -10.197 -37.854  28.007  1.00  0.00     0.167 HD
HETATM   14  C19 UNL     1     -11.579 -39.608  25.112  1.00  0.00     0.062 A 
HETATM   15  C21 UNL     1     -11.758 -38.859  23.935  1.00  0.00     0.041 A 
HETATM   16  C22 UNL     1     -11.006 -37.728  23.686  1.00  0.00     0.047 A 
HETATM   17 CL2  UNL     1     -11.313 -36.873  22.191  1.00  0.00    -0.083 Cl
ENDROOT
BRANCH   1  18
HETATM   18  C10 UNL     1      -9.275 -36.102  24.296  1.00  0.00     0.078 A 
HETATM   19  C9  UNL     1      -8.298 -35.992  23.330  1.00  0.00     0.143 A 
HETATM   20  N2  UNL     1      -7.790 -34.726  23.357  1.00  0.00    -0.286 N 
HETATM   21  N8  UNL     1      -8.460 -34.114  24.320  1.00  0.00    -0.240 N 
HETATM   22  N7  UNL     1      -9.341 -34.916  24.884  1.00  0.00    -0.284 N 
ATOM     23  H8  UNL     1      -8.314 -33.142  24.593  1.00  0.00     0.208 HD
ATOM     24  H7  UNL     1      -9.971 -34.666  25.647  1.00  0.00     0.188 HD
BRANCH  20  25
HETATM   25  C8  UNL     1      -6.746 -34.177  22.528  1.00  0.00     0.154 C 
BRANCH  25  26
HETATM   26  C7  UNL     1      -5.747 -33.475  23.412  1.00  0.00     0.006 C 
HETATM   27  C6  UNL     1      -5.434 -34.220  24.685  1.00  0.00     0.008 C 
HETATM   28  C5  UNL     1      -4.564 -33.287  25.538  1.00  0.00     0.033 C 
HETATM   29  C4  UNL     1      -3.245 -33.016  24.875  1.00  0.00     0.185 C 
HETATM   30  C24 UNL     1      -3.572 -32.337  23.537  1.00  0.00     0.033 C 
HETATM   31  C23 UNL     1      -4.438 -33.230  22.686  1.00  0.00     0.008 C 
BRANCH  29  32
HETATM   32  N1  UNL     1      -2.516 -34.211  24.551  1.00  0.00    -0.071 N 
ATOM     33  H12 UNL     1      -2.098 -34.135  23.623  1.00  0.00     0.277 HD
ATOM     34  H11 UNL     1      -3.156 -34.988  24.388  1.00  0.00     0.277 HD
BRANCH  32  35
HETATM   35  C3  UNL     1      -1.525 -34.569  25.522  1.00  0.00     0.232 C 
BRANCH  35  36
HETATM   36  C2  UNL     1      -0.999 -33.360  26.295  1.00  0.00     0.023 C 
HETATM   37  C1  UNL     1       0.468 -33.549  26.621  1.00  0.00     0.007 C 
ENDBRANCH  35  36
ENDBRANCH  32  35
ENDBRANCH  29  32
ENDBRANCH  25  26
ENDBRANCH  20  25
ENDBRANCH   1  18
BRANCH  14  38
HETATM   38  C20 UNL     1     -12.450 -40.761  25.311  1.00  0.00     0.418 C 
HETATM   39  F1  UNL     1     -13.274 -40.670  26.432  1.00  0.00    -0.166 F 
HETATM   40  F2  UNL     1     -11.925 -41.991  25.181  1.00  0.00    -0.166 F 
HETATM   41  F3  UNL     1     -13.457 -40.695  24.266  1.00  0.00    -0.166 F 
ENDBRANCH  14  38
BRANCH  11  42
HETATM   42  N5  UNL     1      -9.154 -38.067  30.118  1.00  0.00    -0.382 N 
ATOM     43  H52 UNL     1      -8.142 -38.177  30.190  1.00  0.00     0.157 HD
ATOM     44  H51 UNL     1      -9.750 -37.297  30.421  1.00  0.00     0.157 HD
ENDBRANCH  11  42
BRANCH  10  45
HETATM   45  N4  UNL     1      -9.633 -40.024  31.580  1.00  0.00    -0.382 N 
ATOM     46  H42 UNL     1      -8.654 -39.800  31.755  1.00  0.00     0.157 HD
ATOM     47  H41 UNL     1     -10.357 -40.151  32.287  1.00  0.00     0.157 HD
ENDBRANCH  10  45
TORSDOF 9
ENDMDL
MODEL 2
REMARK VINA RESULT: -9.560023954      1.029      1.484
REMARK  9 active torsions:
REMARK  status: ('A' for Active; 'I' for Inactive)
REMARK    1  A    between atoms: C2_2  and  C3_3 
REMARK    2  A    between atoms: C3_3  and  N1_4 
REMARK    3  A    between atoms: N1_4  and  C4_7 
REMARK    4  A    between atoms: C7_10  and  C8_11 
REMARK    5  A    between atoms: C8_11  and  N2_12 
REMARK    6  A    between atoms: C10_14  and  C11_15 
REMARK    7  A    between atoms: C17_24  and  N4_25 
REMARK    8  A    between atoms: C18_28  and  N5_29 
REMARK    9  A    between atoms: C19_34  and  C20_35 
ROOT
HETATM    1  C11 UNL     1      -9.489 -36.775  24.321  1.00  0.00     0.016 A 
HETATM    2  C12 UNL     1      -9.505 -37.607  25.397  1.00  0.00     0.030 A 
HETATM    3  C13 UNL     1     -10.271 -38.799  25.461  1.00  0.00     0.007 A 
HETATM    4  C14 UNL     1     -10.215 -39.460  26.719  1.00  0.00     0.048 C 
HETATM    5  C15 UNL     1     -10.121 -40.813  26.812  1.00  0.00     0.072 C 
HETATM    6  C16 UNL     1     -10.566 -41.641  27.860  1.00  0.00     0.107 C 
HETATM    7 CL1  UNL     1     -10.967 -43.295  27.496  1.00  0.00    -0.064 Cl
HETATM    8  N3  UNL     1     -10.722 -41.301  29.159  1.00  0.00    -0.330 N 
ATOM      9  H3  UNL     1     -11.191 -41.978  29.759  1.00  0.00     0.168 HD
HETATM   10  C17 UNL     1     -10.311 -40.136  29.747  1.00  0.00     0.144 C 
HETATM   11  C18 UNL     1     -10.002 -38.960  29.098  1.00  0.00     0.144 C 
HETATM   12  N6  UNL     1     -10.138 -38.634  27.810  1.00  0.00    -0.339 N 
ATOM     13  H6  UNL     1     -10.192 -37.634  27.612  1.00  0.00     0.167 HD
HETATM   14  C19 UNL     1     -11.037 -39.128  24.383  1.00  0.00     0.062 A 
HETATM   15  C21 UNL     1     -11.030 -38.277  23.263  1.00  0.00     0.041 A 
HETATM   16  C22 UNL     1     -10.268 -37.126  23.244  1.00  0.00     0.047 A 
HETATM   17 CL2  UNL     1     -10.336 -36.141  21.799  1.00  0.00    -0.083 Cl
ENDROOT
BRANCH   1  18
HETATM   18  C10 UNL     1      -8.694 -35.555  24.277  1.00  0.00     0.078 A 
HETATM   19  C9  UNL     1      -7.477 -35.411  23.644  1.00  0.00     0.143 A 
HETATM   20  N2  UNL     1      -7.038 -34.132  23.817  1.00  0.00    -0.286 N 
HETATM   21  N8  UNL     1      -7.981 -33.545  24.536  1.00  0.00    -0.240 N 
HETATM   22  N7  UNL     1      -8.966 -34.375  24.815  1.00  0.00    -0.284 N 
ATOM     23  H8  UNL     1      -7.950 -32.571  24.837  1.00  0.00     0.208 HD
ATOM     24  H7  UNL     1      -9.800 -34.147  25.356  1.00  0.00     0.188 HD
BRANCH  20  25
HETATM   25  C8  UNL     1      -5.811 -33.548  23.334  1.00  0.00     0.154 C 
BRANCH  25  26
HETATM   26  C7  UNL     1      -4.660 -34.124  24.119  1.00  0.00     0.006 C 
HETATM   27  C6  UNL     1      -3.319 -33.937  23.454  1.00  0.00     0.008 C 
HETATM   28  C5  UNL     1      -2.304 -34.738  24.280  1.00  0.00     0.033 C 
HETATM   29  C4  UNL     1      -2.167 -34.179  25.667  1.00  0.00     0.185 C 
HETATM   30  C24 UNL     1      -3.557 -34.289  26.310  1.00  0.00     0.033 C 
HETATM   31  C23 UNL     1      -4.576 -33.519  25.507  1.00  0.00     0.008 C 
BRANCH  29  32
HETATM   32  N1  UNL     1      -1.827 -32.782  25.685  1.00  0.00    -0.071 N 
ATOM     33  H12 UNL     1      -2.655 -32.209  25.524  1.00  0.00     0.277 HD
ATOM     34  H11 UNL     1      -1.283 -32.535  24.858  1.00  0.00     0.277 HD
BRANCH  32  35
HETATM   35  C3  UNL     1      -1.149 -32.365  26.876  1.00  0.00     0.232 C 
BRANCH  35  36
HETATM   36  C2  UNL     1       0.212 -33.040  27.043  1.00  0.00     0.023 C 
HETATM   37  C1  UNL     1       0.982 -32.386  28.171  1.00  0.00     0.007 C 
ENDBRANCH  35  36
ENDBRANCH  32  35
ENDBRANCH  29  32
ENDBRANCH  25  26
ENDBRANCH  20  25
ENDBRANCH   1  18
BRANCH  14  38
HETATM   38  C20 UNL     1     -11.908 -40.296  24.331  1.00  0.00     0.418 C 
HETATM   39  F1  UNL     1     -13.023 -40.218  25.163  1.00  0.00    -0.166 F 
HETATM   40  F2  UNL     1     -11.345 -41.517  24.369  1.00  0.00    -0.166 F 
HETATM   41  F3  UNL     1     -12.569 -40.254  23.038  1.00  0.00    -0.166 F 
ENDBRANCH  14  38
BRANCH  11  42
HETATM   42  N5  UNL     1      -9.513 -38.031  29.841  1.00  0.00    -0.382 N 
ATOM     43  H52 UNL     1     -10.156 -37.660  30.541  1.00  0.00     0.157 HD
ATOM     44  H51 UNL     1      -8.545 -37.780  29.646  1.00  0.00     0.157 HD
ENDBRANCH  11  42
BRANCH  10  45
HETATM   45  N4  UNL     1     -10.194 -40.113  31.025  1.00  0.00    -0.382 N 
ATOM     46  H42 UNL     1     -10.605 -40.904  31.520  1.00  0.00     0.157 HD
ATOM     47  H41 UNL     1      -9.710 -39.323  31.448  1.00  0.00     0.157 HD
ENDBRANCH  10  45
TORSDOF 9
ENDMDL
MODEL 3
REMARK VINA RESULT: -9.370633247      2.228      3.095
REMARK  9 active torsions:
REMARK  status: ('A' for Active; 'I' for Inactive)
REMARK    1  A    between atoms: C2_2  and  C3_3 
REMARK    2  A    between atoms: C3_3  and  N1_4 
REMARK    3  A    between atoms: N1_4  and  C4_7 
REMARK    4  A    between atoms: C7_10  and  C8_11 
REMARK    5  A    between atoms: C8_11  and  N2_12 
REMARK    6  A    between atoms: C10_14  and  C11_15 
REMARK    7  A    between atoms: C17_24  and  N4_25 
REMARK    8  A    between atoms: C18_28  and  N5_29 
REMARK    9  A    between atoms: C19_34  and  C20_35 
ROOT
HETATM    1  C11 UNL     1     -11.702 -38.859  26.070  1.00  0.00     0.016 A 
HETATM    2  C12 UNL     1     -11.020 -39.213  27.193  1.00  0.00     0.030 A 
HETATM    3  C13 UNL     1     -11.551 -40.053  28.206  1.00  0.00     0.007 A 
HETATM    4  C14 UNL     1     -10.703 -40.208  29.337  1.00  0.00     0.048 C 
HETATM    5  C15 UNL     1     -10.542 -41.409  29.951  1.00  0.00     0.072 C 
HETATM    6  C16 UNL     1     -10.212 -41.656  31.297  1.00  0.00     0.107 C 
HETATM    7 CL1  UNL     1     -10.717 -43.160  32.012  1.00  0.00    -0.064 Cl
HETATM    8  N3  UNL     1      -9.525 -40.843  32.130  1.00  0.00    -0.330 N 
ATOM      9  H3  UNL     1      -9.498 -41.109  33.114  1.00  0.00     0.168 HD
HETATM   10  C17 UNL     1      -8.860 -39.699  31.783  1.00  0.00     0.144 C 
HETATM   11  C18 UNL     1      -9.054 -38.962  30.634  1.00  0.00     0.144 C 
HETATM   12  N6  UNL     1      -9.975 -39.097  29.677  1.00  0.00    -0.339 N 
ATOM     13  H6  UNL     1     -10.163 -38.260  29.125  1.00  0.00     0.167 HD
HETATM   14  C19 UNL     1     -12.817 -40.531  28.044  1.00  0.00     0.062 A 
HETATM   15  C21 UNL     1     -13.533 -40.174  26.888  1.00  0.00     0.041 A 
HETATM   16  C22 UNL     1     -12.977 -39.354  25.926  1.00  0.00     0.047 A 
HETATM   17 CL2  UNL     1     -13.958 -38.974  24.529  1.00  0.00    -0.083 Cl
ENDROOT
BRANCH   1  18
HETATM   18  C10 UNL     1     -11.137 -37.995  25.042  1.00  0.00     0.078 A 
HETATM   19  C9  UNL     1      -9.836 -38.033  24.586  1.00  0.00     0.143 A 
HETATM   20  N2  UNL     1      -9.677 -37.078  23.625  1.00  0.00    -0.286 N 
HETATM   21  N8  UNL     1     -10.863 -36.499  23.525  1.00  0.00    -0.240 N 
HETATM   22  N7  UNL     1     -11.735 -37.031  24.357  1.00  0.00    -0.284 N 
ATOM     23  H8  UNL     1     -11.075 -35.735  22.883  1.00  0.00     0.208 HD
ATOM     24  H7  UNL     1     -12.710 -36.748  24.457  1.00  0.00     0.188 HD
BRANCH  20  25
HETATM   25  C8  UNL     1      -8.479 -36.761  22.887  1.00  0.00     0.154 C 
BRANCH  25  26
HETATM   26  C7  UNL     1      -8.097 -35.333  23.178  1.00  0.00     0.006 C 
HETATM   27  C6  UNL     1      -7.976 -35.025  24.650  1.00  0.00     0.008 C 
HETATM   28  C5  UNL     1      -7.774 -33.509  24.768  1.00  0.00     0.033 C 
HETATM   29  C4  UNL     1      -6.478 -33.082  24.141  1.00  0.00     0.185 C 
HETATM   30  C24 UNL     1      -6.570 -33.477  22.660  1.00  0.00     0.033 C 
HETATM   31  C23 UNL     1      -6.782 -34.963  22.520  1.00  0.00     0.008 C 
BRANCH  29  32
HETATM   32  N1  UNL     1      -5.336 -33.774  24.671  1.00  0.00    -0.071 N 
ATOM     33  H12 UNL     1      -5.306 -34.733  24.325  1.00  0.00     0.277 HD
ATOM     34  H11 UNL     1      -5.456 -33.955  25.668  1.00  0.00     0.277 HD
BRANCH  32  35
HETATM   35  C3  UNL     1      -4.089 -33.112  24.426  1.00  0.00     0.232 C 
BRANCH  35  36
HETATM   36  C2  UNL     1      -2.926 -34.091  24.270  1.00  0.00     0.023 C 
HETATM   37  C1  UNL     1      -2.541 -34.213  22.810  1.00  0.00     0.007 C 
ENDBRANCH  35  36
ENDBRANCH  32  35
ENDBRANCH  29  32
ENDBRANCH  25  26
ENDBRANCH  20  25
ENDBRANCH   1  18
BRANCH  14  38
HETATM   38  C20 UNL     1     -13.502 -41.364  29.026  1.00  0.00     0.418 C 
HETATM   39  F1  UNL     1     -13.706 -40.747  30.259  1.00  0.00    -0.166 F 
HETATM   40  F2  UNL     1     -13.107 -42.641  29.170  1.00  0.00    -0.166 F 
HETATM   41  F3  UNL     1     -14.879 -41.470  28.578  1.00  0.00    -0.166 F 
ENDBRANCH  14  38
BRANCH  11  42
HETATM   42  N5  UNL     1      -8.227 -37.994  30.454  1.00  0.00    -0.382 N 
ATOM     43  H52 UNL     1      -8.003 -37.798  29.478  1.00  0.00     0.157 HD
ATOM     44  H51 UNL     1      -7.897 -37.536  31.303  1.00  0.00     0.157 HD
ENDBRANCH  11  42
BRANCH  10  45
HETATM   45  N4  UNL     1      -7.968 -39.251  32.588  1.00  0.00    -0.382 N 
ATOM     46  H42 UNL     1      -8.317 -38.866  33.465  1.00  0.00     0.157 HD
ATOM     47  H41 UNL     1      -6.991 -39.308  32.302  1.00  0.00     0.157 HD
ENDBRANCH  10  45
TORSDOF 9
ENDMDL
MODEL 4
REMARK VINA RESULT: -9.367955622      3.404      4.111
REMARK  9 active torsions:
REMARK  status: ('A' for Active; 'I' for Inactive)
REMARK    1  A    between atoms: C2_2  and  C3_3 
REMARK    2  A    between atoms: C3_3  and  N1_4 
REMARK    3  A    between atoms: N1_4  and  C4_7 
REMARK    4  A    between atoms: C7_10  and  C8_11 
REMARK    5  A    between atoms: C8_11  and  N2_12 
REMARK    6  A    between atoms: C10_14  and  C11_15 
REMARK    7  A    between atoms: C17_24  and  N4_25 
REMARK    8  A    between atoms: C18_28  and  N5_29 
REMARK    9  A    between atoms: C19_34  and  C20_35 
ROOT
HETATM    1  C11 UNL     1      -9.398 -35.564  24.284  1.00  0.00     0.016 A 
HETATM    2  C12 UNL     1     -10.548 -35.656  25.005  1.00  0.00     0.030 A 
HETATM    3  C13 UNL     1     -11.467 -36.731  24.889  1.00  0.00     0.007 A 
HETATM    4  C14 UNL     1     -12.650 -36.570  25.664  1.00  0.00     0.048 C 
HETATM    5  C15 UNL     1     -13.205 -37.607  26.345  1.00  0.00     0.072 C 
HETATM    6  C16 UNL     1     -14.556 -37.788  26.696  1.00  0.00     0.107 C 
HETATM    7 CL1  UNL     1     -15.143 -39.409  26.927  1.00  0.00    -0.064 Cl
HETATM    8  N3  UNL     1     -15.485 -36.824  26.886  1.00  0.00    -0.330 N 
ATOM      9  H3  UNL     1     -16.451 -37.131  26.994  1.00  0.00     0.168 HD
HETATM   10  C17 UNL     1     -15.255 -35.477  26.949  1.00  0.00     0.144 C 
HETATM   11  C18 UNL     1     -14.139 -34.818  26.480  1.00  0.00     0.144 C 
HETATM   12  N6  UNL     1     -13.108 -35.282  25.769  1.00  0.00    -0.339 N 
ATOM     13  H6  UNL     1     -12.592 -34.584  25.233  1.00  0.00     0.167 HD
HETATM   14  C19 UNL     1     -11.182 -37.726  24.004  1.00  0.00     0.062 A 
HETATM   15  C21 UNL     1      -9.996 -37.645  23.252  1.00  0.00     0.041 A 
HETATM   16  C22 UNL     1      -9.129 -36.580  23.397  1.00  0.00     0.047 A 
HETATM   17 CL2  UNL     1      -7.684 -36.581  22.411  1.00  0.00    -0.083 Cl
ENDROOT
BRANCH   1  18
HETATM   18  C10 UNL     1      -8.468 -34.451  24.418  1.00  0.00     0.078 A 
HETATM   19  C9  UNL     1      -7.181 -34.415  23.926  1.00  0.00     0.143 A 
HETATM   20  N2  UNL     1      -6.619 -33.214  24.244  1.00  0.00    -0.286 N 
HETATM   21  N8  UNL     1      -7.562 -32.565  24.908  1.00  0.00    -0.240 N 
HETATM   22  N7  UNL     1      -8.661 -33.285  25.019  1.00  0.00    -0.284 N 
ATOM     23  H8  UNL     1      -7.453 -31.625  25.288  1.00  0.00     0.208 HD
ATOM     24  H7  UNL     1      -9.518 -32.993  25.489  1.00  0.00     0.188 HD
BRANCH  20  25
HETATM   25  C8  UNL     1      -5.288 -32.753  23.937  1.00  0.00     0.154 C 
BRANCH  25  26
HETATM   26  C7  UNL     1      -4.294 -33.661  24.616  1.00  0.00     0.006 C 
HETATM   27  C6  UNL     1      -2.986 -33.789  23.876  1.00  0.00     0.008 C 
HETATM   28  C5  UNL     1      -2.180 -34.880  24.594  1.00  0.00     0.033 C 
HETATM   29  C4  UNL     1      -1.833 -34.468  25.995  1.00  0.00     0.185 C 
HETATM   30  C24 UNL     1      -3.169 -34.252  26.720  1.00  0.00     0.033 C 
HETATM   31  C23 UNL     1      -3.985 -33.192  26.024  1.00  0.00     0.008 C 
BRANCH  29  32
HETATM   32  N1  UNL     1      -1.133 -33.215  26.061  1.00  0.00    -0.071 N 
ATOM     33  H12 UNL     1      -1.695 -32.516  26.548  1.00  0.00     0.277 HD
ATOM     34  H11 UNL     1      -1.083 -32.782  25.138  1.00  0.00     0.277 HD
BRANCH  32  35
HETATM   35  C3  UNL     1       0.172 -33.307  26.645  1.00  0.00     0.232 C 
BRANCH  35  36
HETATM   36  C2  UNL     1       0.294 -32.499  27.937  1.00  0.00     0.023 C 
HETATM   37  C1  UNL     1      -1.004 -31.774  28.221  1.00  0.00     0.007 C 
ENDBRANCH  35  36
ENDBRANCH  32  35
ENDBRANCH  29  32
ENDBRANCH  25  26
ENDBRANCH  20  25
ENDBRANCH   1  18
BRANCH  14  38
HETATM   38  C20 UNL     1     -12.059 -38.864  23.751  1.00  0.00     0.418 C 
HETATM   39  F1  UNL     1     -13.330 -38.518  23.296  1.00  0.00    -0.166 F 
HETATM   40  F2  UNL     1     -12.110 -39.849  24.664  1.00  0.00    -0.166 F 
HETATM   41  F3  UNL     1     -11.545 -39.516  22.559  1.00  0.00    -0.166 F 
ENDBRANCH  14  38
BRANCH  11  42
HETATM   42  N5  UNL     1     -14.079 -33.565  26.762  1.00  0.00    -0.382 N 
ATOM     43  H52 UNL     1     -13.842 -33.356  27.732  1.00  0.00     0.157 HD
ATOM     44  H51 UNL     1     -14.269 -32.932  25.986  1.00  0.00     0.157 HD
ENDBRANCH  11  42
BRANCH  10  45
HETATM   45  N4  UNL     1     -16.151 -34.737  27.492  1.00  0.00    -0.382 N 
ATOM     46  H42 UNL     1     -17.045 -34.693  27.004  1.00  0.00     0.157 HD
ATOM     47  H41 UNL     1     -15.913 -34.252  28.357  1.00  0.00     0.157 HD
ENDBRANCH  10  45
TORSDOF 9
ENDMDL
MODEL 5
REMARK VINA RESULT: -9.360106614      4.244      5.824
REMARK  9 active torsions:
REMARK  status: ('A' for Active; 'I' for Inactive)
REMARK    1  A    between atoms: C2_2  and  C3_3 
REMARK    2  A    between atoms: C3_3  and  N1_4 
REMARK    3  A    between atoms: N1_4  and  C4_7 
REMARK    4  A    between atoms: C7_10  and  C8_11 
REMARK    5  A    between atoms: C8_11  and  N2_12 
REMARK    6  A    between atoms: C10_14  and  C11_15 
REMARK    7  A    between atoms: C17_24  and  N4_25 
REMARK    8  A    between atoms: C18_28  and  N5_29 
REMARK    9  A    between atoms: C19_34  and  C20_35 
ROOT
HETATM    1  C11 UNL     1      -9.235 -36.066  23.375  1.00  0.00     0.016 A 
HETATM    2  C12 UNL     1     -10.321 -36.355  22.608  1.00  0.00     0.030 A 
HETATM    3  C13 UNL     1     -11.492 -36.984  23.103  1.00  0.00     0.007 A 
HETATM    4  C14 UNL     1     -12.460 -37.281  22.103  1.00  0.00     0.048 C 
HETATM    5  C15 UNL     1     -13.789 -37.095  22.318  1.00  0.00     0.072 C 
HETATM    6  C16 UNL     1     -14.866 -37.779  21.722  1.00  0.00     0.107 C 
HETATM    7 CL1  UNL     1     -16.368 -37.881  22.593  1.00  0.00    -0.064 Cl
HETATM    8  N3  UNL     1     -14.878 -38.383  20.513  1.00  0.00    -0.330 N 
ATOM      9  H3  UNL     1     -15.692 -38.958  20.294  1.00  0.00     0.168 HD
HETATM   10  C17 UNL     1     -13.907 -38.300  19.553  1.00  0.00     0.144 C 
HETATM   11  C18 UNL     1     -12.600 -37.908  19.750  1.00  0.00     0.144 C 
HETATM   12  N6  UNL     1     -11.948 -37.644  20.885  1.00  0.00    -0.339 N 
ATOM     13  H6  UNL     1     -10.932 -37.724  20.839  1.00  0.00     0.167 HD
HETATM   14  C19 UNL     1     -11.530 -37.319  24.423  1.00  0.00     0.062 A 
HETATM   15  C21 UNL     1     -10.416 -37.026  25.229  1.00  0.00     0.041 A 
HETATM   16  C22 UNL     1      -9.296 -36.412  24.704  1.00  0.00     0.047 A 
HETATM   17 CL2  UNL     1      -7.967 -36.095  25.797  1.00  0.00    -0.083 Cl
ENDROOT
BRANCH   1  18
HETATM   18  C10 UNL     1      -8.043 -35.419  22.845  1.00  0.00     0.078 A 
HETATM   19  C9  UNL     1      -7.223 -34.553  23.537  1.00  0.00     0.143 A 
HETATM   20  N2  UNL     1      -6.210 -34.153  22.717  1.00  0.00    -0.286 N 
HETATM   21  N8  UNL     1      -6.437 -34.774  21.571  1.00  0.00    -0.240 N 
HETATM   22  N7  UNL     1      -7.518 -35.526  21.633  1.00  0.00    -0.284 N 
ATOM     23  H8  UNL     1      -5.849 -34.683  20.743  1.00  0.00     0.208 HD
ATOM     24  H7  UNL     1      -7.889 -36.097  20.873  1.00  0.00     0.188 HD
BRANCH  20  25
HETATM   25  C8  UNL     1      -5.133 -33.244  23.024  1.00  0.00     0.154 C 
BRANCH  25  26
HETATM   26  C7  UNL     1      -4.222 -33.897  24.031  1.00  0.00     0.006 C 
HETATM   27  C6  UNL     1      -2.777 -33.942  23.602  1.00  0.00     0.008 C 
HETATM   28  C5  UNL     1      -2.036 -34.796  24.639  1.00  0.00     0.033 C 
HETATM   29  C4  UNL     1      -2.053 -34.147  25.992  1.00  0.00     0.185 C 
HETATM   30  C24 UNL     1      -3.532 -34.023  26.387  1.00  0.00     0.033 C 
HETATM   31  C23 UNL     1      -4.284 -33.197  25.375  1.00  0.00     0.008 C 
BRANCH  29  32
HETATM   32  N1  UNL     1      -1.526 -32.811  25.988  1.00  0.00    -0.071 N 
ATOM     33  H12 UNL     1      -2.192 -32.164  25.565  1.00  0.00     0.277 HD
ATOM     34  H11 UNL     1      -0.759 -32.730  25.319  1.00  0.00     0.277 HD
BRANCH  32  35
HETATM   35  C3  UNL     1      -1.119 -32.341  27.280  1.00  0.00     0.232 C 
BRANCH  35  36
HETATM   36  C2  UNL     1       0.248 -31.659  27.251  1.00  0.00     0.023 C 
HETATM   37  C1  UNL     1       1.233 -32.433  28.101  1.00  0.00     0.007 C 
ENDBRANCH  35  36
ENDBRANCH  32  35
ENDBRANCH  29  32
ENDBRANCH  25  26
ENDBRANCH  20  25
ENDBRANCH   1  18
BRANCH  14  38
HETATM   38  C20 UNL     1     -12.649 -38.011  25.054  1.00  0.00     0.418 C 
HETATM   39  F1  UNL     1     -12.907 -39.278  24.533  1.00  0.00    -0.166 F 
HETATM   40  F2  UNL     1     -13.784 -37.325  25.274  1.00  0.00    -0.166 F 
HETATM   41  F3  UNL     1     -12.199 -38.383  26.384  1.00  0.00    -0.166 F 
ENDBRANCH  14  38
BRANCH  11  42
HETATM   42  N5  UNL     1     -11.896 -37.780  18.681  1.00  0.00    -0.382 N 
ATOM     43  H52 UNL     1     -12.371 -38.053  17.821  1.00  0.00     0.157 HD
ATOM     44  H51 UNL     1     -10.953 -37.418  18.820  1.00  0.00     0.157 HD
ENDBRANCH  11  42
BRANCH  10  45
HETATM   45  N4  UNL     1     -14.219 -38.612  18.349  1.00  0.00    -0.382 N 
ATOM     46  H42 UNL     1     -14.657 -37.872  17.800  1.00  0.00     0.157 HD
ATOM     47  H41 UNL     1     -14.014 -39.557  18.029  1.00  0.00     0.157 HD
ENDBRANCH  10  45
TORSDOF 9
ENDMDL
