MODEL 1
REMARK VINA RESULT: -7.727797275      0.000      0.000
REMARK  12 active torsions:
REMARK  status: ('A' for Active; 'I' for Inactive)
REMARK    1  A    between atoms: C2_2  and  C3_3 
REMARK    2  A    between atoms: C3_3  and  C4_4 
REMARK    3  A    between atoms: C4_4  and  C5_5 
REMARK    4  A    between atoms: C5_5  and  N1_7 
REMARK    5  A    between atoms: C5_5  and  C19_36 
REMARK       I    between atoms: N1_7  and  C7_9 
REMARK    6  A    between atoms: C7_9  and  C8_11 
REMARK    7  A    between atoms: C14_20  and  C15_21 
REMARK    8  A    between atoms: C15_21  and  O2_22 
REMARK    9  A    between atoms: C15_21  and  C16_24 
REMARK   10  A    between atoms: C17_28  and  O3_29 
REMARK   11  A    between atoms: C18_32  and  N4_33 
REMARK   12  A    between atoms: C21_39  and  C22_40 
ROOT
HETATM    1  C19 UNL     1     -11.753 -37.925  23.587  1.00  0.00     0.047 C 
HETATM    2  C20 UNL     1     -11.938 -39.275  23.065  1.00  0.00     0.097 C 
HETATM    3  N5  UNL     1     -12.069 -40.361  22.663  1.00  0.00    -0.192 NA
HETATM    4  C21 UNL     1     -12.535 -36.952  23.224  1.00  0.00     0.002 C 
ENDROOT
BRANCH   1   5
HETATM    5  C5  UNL     1     -10.659 -37.780  24.577  1.00  0.00     0.066 C 
HETATM    6  C6  UNL     1     -11.195 -36.714  25.587  1.00  0.00     0.044 C 
BRANCH   5   7
HETATM    7  C4  UNL     1      -9.410 -37.156  24.034  1.00  0.00     0.036 C 
BRANCH   7   8
HETATM    8  C3  UNL     1      -8.789 -36.195  25.006  1.00  0.00     0.002 C 
BRANCH   8   9
HETATM    9  C2  UNL     1      -8.009 -35.143  24.204  1.00  0.00    -0.004 C 
HETATM   10  C1  UNL     1      -8.304 -33.782  24.784  1.00  0.00     0.005 C 
ENDBRANCH   8   9
ENDBRANCH   7   8
ENDBRANCH   5   7
BRANCH   5  11
HETATM   11  N1  UNL     1     -10.422 -39.013  25.254  1.00  0.00    -0.342 N 
HETATM   12  C7  UNL     1     -11.099 -39.460  26.398  1.00  0.00     0.273 C 
HETATM   13  O1  UNL     1     -12.021 -38.768  26.944  1.00  0.00    -0.266 OA
ATOM     14  H1  UNL     1      -9.698 -39.622  24.872  1.00  0.00     0.164 HD
BRANCH  12  15
HETATM   15  C8  UNL     1     -10.811 -40.730  27.045  1.00  0.00     0.145 C 
HETATM   16  N2  UNL     1     -11.173 -41.868  26.383  1.00  0.00    -0.352 N 
HETATM   17  C9  UNL     1     -11.003 -43.176  26.736  1.00  0.00     0.008 C 
ATOM     18  H2  UNL     1     -11.640 -41.718  25.489  1.00  0.00     0.166 HD
HETATM   19  C10 UNL     1     -11.241 -44.144  25.643  1.00  0.00     0.068 C 
HETATM   20  C11 UNL     1     -10.644 -43.661  27.973  1.00  0.00     0.056 C 
HETATM   21  C12 UNL     1     -10.541 -42.918  29.153  1.00  0.00     0.067 A 
HETATM   22  C13 UNL     1     -10.649 -43.432  30.403  1.00  0.00     0.074 A 
HETATM   23  N3  UNL     1     -10.342 -41.601  29.305  1.00  0.00    -0.274 N 
HETATM   24 CL1  UNL     1     -10.915 -45.125  30.783  1.00  0.00    -0.081 Cl
HETATM   25  C14 UNL     1     -10.513 -42.395  31.360  1.00  0.00     0.054 A 
HETATM   26  C17 UNL     1     -10.321 -41.257  30.617  1.00  0.00     0.159 A 
HETATM   27  C18 UNL     1     -10.180 -40.699  28.303  1.00  0.00     0.141 C 
BRANCH  25  28
HETATM   28  C15 UNL     1     -10.604 -42.667  32.785  1.00  0.00     0.264 C 
BRANCH  28  29
HETATM   29  O2  UNL     1      -9.791 -43.810  33.041  1.00  0.00    -0.382 OA
ATOM     30  H2  UNL     1      -9.928 -44.048  33.950  1.00  0.00     0.210 HD
ENDBRANCH  28  29
BRANCH  28  31
HETATM   31  C16 UNL     1     -11.941 -42.991  33.349  1.00  0.00     0.417 C 
HETATM   32  F1  UNL     1     -12.102 -42.294  34.582  1.00  0.00    -0.168 F 
HETATM   33  F2  UNL     1     -12.138 -44.307  33.662  1.00  0.00    -0.168 F 
HETATM   34  F3  UNL     1     -12.996 -42.492  32.572  1.00  0.00    -0.168 F 
ENDBRANCH  28  31
ENDBRANCH  25  28
BRANCH  26  35
HETATM   35  O3  UNL     1     -10.140 -39.977  31.073  1.00  0.00    -0.345 OA
ATOM     36  H3  UNL     1      -9.706 -39.258  30.631  1.00  0.00     0.219 HD
ENDBRANCH  26  35
BRANCH  27  37
HETATM   37  N4  UNL     1      -9.409 -39.714  28.440  1.00  0.00    -0.383 N 
ATOM     38  H42 UNL     1      -8.820 -39.400  27.668  1.00  0.00     0.157 HD
ATOM     39  H41 UNL     1      -9.452 -39.303  29.373  1.00  0.00     0.157 HD
ENDBRANCH  27  37
ENDBRANCH  12  15
ENDBRANCH   5  11
ENDBRANCH   1   5
BRANCH   4  40
HETATM   40  C22 UNL     1     -13.629 -37.112  22.225  1.00  0.00    -0.032 C 
HETATM   41  C23 UNL     1     -14.645 -38.075  22.793  1.00  0.00     0.018 C 
HETATM   42  C24 UNL     1     -14.315 -35.781  22.027  1.00  0.00     0.018 C 
HETATM   43  C25 UNL     1     -13.111 -37.548  20.880  1.00  0.00     0.018 C 
ENDBRANCH   4  40
TORSDOF 12
ENDMDL
MODEL 2
REMARK VINA RESULT: -7.480192180      1.323      1.569
REMARK  12 active torsions:
REMARK  status: ('A' for Active; 'I' for Inactive)
REMARK    1  A    between atoms: C2_2  and  C3_3 
REMARK    2  A    between atoms: C3_3  and  C4_4 
REMARK    3  A    between atoms: C4_4  and  C5_5 
REMARK    4  A    between atoms: C5_5  and  N1_7 
REMARK    5  A    between atoms: C5_5  and  C19_36 
REMARK       I    between atoms: N1_7  and  C7_9 
REMARK    6  A    between atoms: C7_9  and  C8_11 
REMARK    7  A    between atoms: C14_20  and  C15_21 
REMARK    8  A    between atoms: C15_21  and  O2_22 
REMARK    9  A    between atoms: C15_21  and  C16_24 
REMARK   10  A    between atoms: C17_28  and  O3_29 
REMARK   11  A    between atoms: C18_32  and  N4_33 
REMARK   12  A    between atoms: C21_39  and  C22_40 
ROOT
HETATM    1  C19 UNL     1     -11.833 -37.469  22.945  1.00  0.00     0.047 C 
HETATM    2  C20 UNL     1     -13.083 -38.109  23.340  1.00  0.00     0.097 C 
HETATM    3  N5  UNL     1     -14.072 -38.623  23.678  1.00  0.00    -0.192 NA
HETATM    4  C21 UNL     1     -11.698 -36.929  21.769  1.00  0.00     0.002 C 
ENDROOT
BRANCH   1   5
HETATM    5  C5  UNL     1     -10.781 -37.447  23.990  1.00  0.00     0.066 C 
HETATM    6  C6  UNL     1     -11.305 -36.410  25.038  1.00  0.00     0.044 C 
BRANCH   5   7
HETATM    7  C4  UNL     1      -9.475 -36.868  23.542  1.00  0.00     0.036 C 
BRANCH   7   8
HETATM    8  C3  UNL     1      -8.746 -36.183  24.662  1.00  0.00     0.002 C 
BRANCH   8   9
HETATM    9  C2  UNL     1      -7.968 -34.998  24.072  1.00  0.00    -0.004 C 
HETATM   10  C1  UNL     1      -8.342 -33.750  24.832  1.00  0.00     0.005 C 
ENDBRANCH   8   9
ENDBRANCH   7   8
ENDBRANCH   5   7
BRANCH   5  11
HETATM   11  N1  UNL     1     -10.648 -38.729  24.601  1.00  0.00    -0.342 N 
HETATM   12  C7  UNL     1     -11.081 -39.067  25.892  1.00  0.00     0.273 C 
HETATM   13  O1  UNL     1     -11.655 -38.218  26.650  1.00  0.00    -0.266 OA
ATOM     14  H1  UNL     1     -10.199 -39.462  24.052  1.00  0.00     0.164 HD
BRANCH  12  15
HETATM   15  C8  UNL     1     -10.915 -40.395  26.461  1.00  0.00     0.145 C 
HETATM   16  N2  UNL     1     -11.228 -41.462  25.668  1.00  0.00    -0.352 N 
HETATM   17  C9  UNL     1     -11.145 -42.799  25.928  1.00  0.00     0.008 C 
ATOM     18  H2  UNL     1     -11.577 -41.223  24.740  1.00  0.00     0.166 HD
HETATM   19  C10 UNL     1     -11.277 -43.668  24.739  1.00  0.00     0.068 C 
HETATM   20  C11 UNL     1     -10.956 -43.395  27.155  1.00  0.00     0.056 C 
HETATM   21  C12 UNL     1     -10.975 -42.752  28.397  1.00  0.00     0.067 A 
HETATM   22  C13 UNL     1     -11.252 -43.357  29.577  1.00  0.00     0.074 A 
HETATM   23  N3  UNL     1     -10.755 -41.460  28.680  1.00  0.00    -0.274 N 
HETATM   24 CL1  UNL     1     -11.616 -45.062  29.781  1.00  0.00    -0.081 Cl
HETATM   25  C14 UNL     1     -11.202 -42.404  30.627  1.00  0.00     0.054 A 
HETATM   26  C17 UNL     1     -10.885 -41.221  30.009  1.00  0.00     0.159 A 
HETATM   27  C18 UNL     1     -10.443 -40.489  27.783  1.00  0.00     0.141 C 
BRANCH  25  28
HETATM   28  C15 UNL     1     -11.476 -42.784  32.003  1.00  0.00     0.264 C 
BRANCH  28  29
HETATM   29  O2  UNL     1     -11.925 -41.609  32.675  1.00  0.00    -0.382 OA
ATOM     30  H2  UNL     1     -12.648 -41.870  33.233  1.00  0.00     0.210 HD
ENDBRANCH  28  29
BRANCH  28  31
HETATM   31  C16 UNL     1     -10.350 -43.308  32.819  1.00  0.00     0.417 C 
HETATM   32  F1  UNL     1      -9.187 -42.525  32.558  1.00  0.00    -0.168 F 
HETATM   33  F2  UNL     1      -9.976 -44.593  32.540  1.00  0.00    -0.168 F 
HETATM   34  F3  UNL     1     -10.541 -43.125  34.196  1.00  0.00    -0.168 F 
ENDBRANCH  28  31
ENDBRANCH  25  28
BRANCH  26  35
HETATM   35  O3  UNL     1     -10.721 -39.989  30.589  1.00  0.00    -0.345 OA
ATOM     36  H3  UNL     1     -11.342 -39.511  31.124  1.00  0.00     0.219 HD
ENDBRANCH  26  35
BRANCH  27  37
HETATM   37  N4  UNL     1      -9.663 -39.551  28.093  1.00  0.00    -0.383 N 
ATOM     38  H42 UNL     1      -9.936 -38.578  27.956  1.00  0.00     0.157 HD
ATOM     39  H41 UNL     1      -8.777 -39.881  28.475  1.00  0.00     0.157 HD
ENDBRANCH  27  37
ENDBRANCH  12  15
ENDBRANCH   5  11
ENDBRANCH   1   5
BRANCH   4  40
HETATM   40  C22 UNL     1     -12.763 -36.963  20.728  1.00  0.00    -0.032 C 
HETATM   41  C23 UNL     1     -13.928 -36.139  21.222  1.00  0.00     0.018 C 
HETATM   42  C24 UNL     1     -12.240 -36.314  19.467  1.00  0.00     0.018 C 
HETATM   43  C25 UNL     1     -13.162 -38.369  20.368  1.00  0.00     0.018 C 
ENDBRANCH   4  40
TORSDOF 12
ENDMDL
MODEL 3
REMARK VINA RESULT: -7.397591150      1.104      1.274
REMARK  12 active torsions:
REMARK  status: ('A' for Active; 'I' for Inactive)
REMARK    1  A    between atoms: C2_2  and  C3_3 
REMARK    2  A    between atoms: C3_3  and  C4_4 
REMARK    3  A    between atoms: C4_4  and  C5_5 
REMARK    4  A    between atoms: C5_5  and  N1_7 
REMARK    5  A    between atoms: C5_5  and  C19_36 
REMARK       I    between atoms: N1_7  and  C7_9 
REMARK    6  A    between atoms: C7_9  and  C8_11 
REMARK    7  A    between atoms: C14_20  and  C15_21 
REMARK    8  A    between atoms: C15_21  and  O2_22 
REMARK    9  A    between atoms: C15_21  and  C16_24 
REMARK   10  A    between atoms: C17_28  and  O3_29 
REMARK   11  A    between atoms: C18_32  and  N4_33 
REMARK   12  A    between atoms: C21_39  and  C22_40 
ROOT
HETATM    1  C19 UNL     1     -12.200 -37.951  23.200  1.00  0.00     0.047 C 
HETATM    2  C20 UNL     1     -12.344 -39.257  22.566  1.00  0.00     0.097 C 
HETATM    3  N5  UNL     1     -12.446 -40.310  22.077  1.00  0.00    -0.192 NA
HETATM    4  C21 UNL     1     -12.815 -36.905  22.730  1.00  0.00     0.002 C 
ENDROOT
BRANCH   1   5
HETATM    5  C5  UNL     1     -11.357 -37.935  24.419  1.00  0.00     0.066 C 
HETATM    6  C6  UNL     1     -11.992 -36.817  25.309  1.00  0.00     0.044 C 
BRANCH   5   7
HETATM    7  C4  UNL     1      -9.955 -37.457  24.196  1.00  0.00     0.036 C 
BRANCH   7   8
HETATM    8  C3  UNL     1      -9.771 -36.027  24.617  1.00  0.00     0.002 C 
BRANCH   8   9
HETATM    9  C2  UNL     1      -8.284 -35.809  24.930  1.00  0.00    -0.004 C 
HETATM   10  C1  UNL     1      -7.945 -34.362  24.669  1.00  0.00     0.005 C 
ENDBRANCH   8   9
ENDBRANCH   7   8
ENDBRANCH   5   7
BRANCH   5  11
HETATM   11  N1  UNL     1     -11.422 -39.189  25.096  1.00  0.00    -0.342 N 
HETATM   12  C7  UNL     1     -11.050 -39.417  26.429  1.00  0.00     0.273 C 
HETATM   13  O1  UNL     1     -10.609 -38.479  27.172  1.00  0.00    -0.266 OA
ATOM     14  H1  UNL     1     -11.768 -39.988  24.565  1.00  0.00     0.164 HD
BRANCH  12  15
HETATM   15  C8  UNL     1     -11.138 -40.722  27.065  1.00  0.00     0.145 C 
HETATM   16  N2  UNL     1     -11.811 -41.703  26.394  1.00  0.00    -0.352 N 
HETATM   17  C9  UNL     1     -12.024 -43.007  26.734  1.00  0.00     0.008 C 
ATOM     18  H2  UNL     1     -12.216 -41.417  25.503  1.00  0.00     0.166 HD
HETATM   19  C10 UNL     1     -12.530 -43.857  25.634  1.00  0.00     0.068 C 
HETATM   20  C11 UNL     1     -11.818 -43.587  27.966  1.00  0.00     0.056 C 
HETATM   21  C12 UNL     1     -11.506 -42.915  29.152  1.00  0.00     0.067 A 
HETATM   22  C13 UNL     1     -11.756 -43.388  30.398  1.00  0.00     0.074 A 
HETATM   23  N3  UNL     1     -10.937 -41.712  29.315  1.00  0.00    -0.274 N 
HETATM   24 CL1  UNL     1     -12.496 -44.936  30.765  1.00  0.00    -0.081 Cl
HETATM   25  C14 UNL     1     -11.328 -42.442  31.363  1.00  0.00     0.054 A 
HETATM   26  C17 UNL     1     -10.819 -41.400  30.630  1.00  0.00     0.159 A 
HETATM   27  C18 UNL     1     -10.524 -40.885  28.321  1.00  0.00     0.141 C 
BRANCH  25  28
HETATM   28  C15 UNL     1     -11.493 -42.690  32.787  1.00  0.00     0.264 C 
BRANCH  28  29
HETATM   29  O2  UNL     1     -11.032 -41.524  33.466  1.00  0.00    -0.382 OA
ATOM     30  H2  UNL     1     -11.769 -40.926  33.518  1.00  0.00     0.210 HD
ENDBRANCH  28  29
BRANCH  28  31
HETATM   31  C16 UNL     1     -10.747 -43.826  33.387  1.00  0.00     0.417 C 
HETATM   32  F1  UNL     1     -11.646 -44.915  33.587  1.00  0.00    -0.168 F 
HETATM   33  F2  UNL     1     -10.210 -43.584  34.622  1.00  0.00    -0.168 F 
HETATM   34  F3  UNL     1      -9.790 -44.371  32.519  1.00  0.00    -0.168 F 
ENDBRANCH  28  31
ENDBRANCH  25  28
BRANCH  26  35
HETATM   35  O3  UNL     1     -10.278 -40.230  31.097  1.00  0.00    -0.345 OA
ATOM     36  H3  UNL     1     -10.732 -39.497  31.494  1.00  0.00     0.219 HD
ENDBRANCH  26  35
BRANCH  27  37
HETATM   37  N4  UNL     1      -9.502 -40.164  28.464  1.00  0.00    -0.383 N 
ATOM     38  H42 UNL     1      -9.589 -39.158  28.609  1.00  0.00     0.157 HD
ATOM     39  H41 UNL     1      -8.633 -40.695  28.417  1.00  0.00     0.157 HD
ENDBRANCH  27  37
ENDBRANCH  12  15
ENDBRANCH   5  11
ENDBRANCH   1   5
BRANCH   4  40
HETATM   40  C22 UNL     1     -13.658 -36.937  21.501  1.00  0.00    -0.032 C 
HETATM   41  C23 UNL     1     -14.797 -37.899  21.739  1.00  0.00     0.018 C 
HETATM   42  C24 UNL     1     -14.250 -35.566  21.275  1.00  0.00     0.018 C 
HETATM   43  C25 UNL     1     -12.858 -37.282  20.273  1.00  0.00     0.018 C 
ENDBRANCH   4  40
TORSDOF 12
ENDMDL
MODEL 4
REMARK VINA RESULT: -7.183955308      1.867      2.211
REMARK  12 active torsions:
REMARK  status: ('A' for Active; 'I' for Inactive)
REMARK    1  A    between atoms: C2_2  and  C3_3 
REMARK    2  A    between atoms: C3_3  and  C4_4 
REMARK    3  A    between atoms: C4_4  and  C5_5 
REMARK    4  A    between atoms: C5_5  and  N1_7 
REMARK    5  A    between atoms: C5_5  and  C19_36 
REMARK       I    between atoms: N1_7  and  C7_9 
REMARK    6  A    between atoms: C7_9  and  C8_11 
REMARK    7  A    between atoms: C14_20  and  C15_21 
REMARK    8  A    between atoms: C15_21  and  O2_22 
REMARK    9  A    between atoms: C15_21  and  C16_24 
REMARK   10  A    between atoms: C17_28  and  O3_29 
REMARK   11  A    between atoms: C18_32  and  N4_33 
REMARK   12  A    between atoms: C21_39  and  C22_40 
ROOT
HETATM    1  C19 UNL     1     -12.466 -37.403  23.179  1.00  0.00     0.047 C 
HETATM    2  C20 UNL     1     -13.826 -37.711  23.607  1.00  0.00     0.097 C 
HETATM    3  N5  UNL     1     -14.906 -37.958  23.970  1.00  0.00    -0.192 NA
HETATM    4  C21 UNL     1     -12.204 -37.097  21.943  1.00  0.00     0.002 C 
ENDROOT
BRANCH   1   5
HETATM    5  C5  UNL     1     -11.450 -37.421  24.259  1.00  0.00     0.066 C 
HETATM    6  C6  UNL     1     -11.713 -36.101  25.054  1.00  0.00     0.044 C 
BRANCH   5   7
HETATM    7  C4  UNL     1     -10.038 -37.274  23.784  1.00  0.00     0.036 C 
BRANCH   7   8
HETATM    8  C3  UNL     1      -9.203 -36.464  24.734  1.00  0.00     0.002 C 
BRANCH   8   9
HETATM    9  C2  UNL     1      -8.367 -35.473  23.910  1.00  0.00    -0.004 C 
HETATM   10  C1  UNL     1      -8.364 -34.142  24.620  1.00  0.00     0.005 C 
ENDBRANCH   8   9
ENDBRANCH   7   8
ENDBRANCH   5   7
BRANCH   5  11
HETATM   11  N1  UNL     1     -11.640 -38.548  25.114  1.00  0.00    -0.342 N 
HETATM   12  C7  UNL     1     -11.547 -39.893  24.724  1.00  0.00     0.273 C 
HETATM   13  O1  UNL     1     -11.272 -40.225  23.525  1.00  0.00    -0.266 OA
ATOM     14  H1  UNL     1     -11.862 -38.359  26.091  1.00  0.00     0.164 HD
BRANCH  12  15
HETATM   15  C8  UNL     1     -11.754 -41.000  25.644  1.00  0.00     0.145 C 
HETATM   16  N2  UNL     1     -12.808 -41.833  25.396  1.00  0.00    -0.352 N 
HETATM   17  C9  UNL     1     -13.216 -42.949  26.068  1.00  0.00     0.008 C 
ATOM     18  H2  UNL     1     -13.376 -41.583  24.587  1.00  0.00     0.166 HD
HETATM   19  C10 UNL     1     -14.210 -43.773  25.346  1.00  0.00     0.068 C 
HETATM   20  C11 UNL     1     -12.803 -43.365  27.314  1.00  0.00     0.056 C 
HETATM   21  C12 UNL     1     -12.006 -42.639  28.204  1.00  0.00     0.067 A 
HETATM   22  C13 UNL     1     -11.985 -42.819  29.547  1.00  0.00     0.074 A 
HETATM   23  N3  UNL     1     -11.145 -41.644  27.946  1.00  0.00    -0.274 N 
HETATM   24 CL1  UNL     1     -12.933 -44.007  30.425  1.00  0.00    -0.081 Cl
HETATM   25  C14 UNL     1     -11.080 -41.902  30.139  1.00  0.00     0.054 A 
HETATM   26  C17 UNL     1     -10.575 -41.182  29.086  1.00  0.00     0.159 A 
HETATM   27  C18 UNL     1     -10.856 -41.139  26.719  1.00  0.00     0.141 C 
BRANCH  25  28
HETATM   28  C15 UNL     1     -10.875 -41.867  31.578  1.00  0.00     0.264 C 
BRANCH  28  29
HETATM   29  O2  UNL     1     -10.355 -40.577  31.891  1.00  0.00    -0.382 OA
ATOM     30  H2  UNL     1      -9.583 -40.713  32.427  1.00  0.00     0.210 HD
ENDBRANCH  28  29
BRANCH  28  31
HETATM   31  C16 UNL     1      -9.919 -42.840  32.169  1.00  0.00     0.417 C 
HETATM   32  F1  UNL     1      -8.716 -42.155  32.511  1.00  0.00    -0.168 F 
HETATM   33  F2  UNL     1      -9.522 -43.848  31.335  1.00  0.00    -0.168 F 
HETATM   34  F3  UNL     1     -10.348 -43.345  33.405  1.00  0.00    -0.168 F 
ENDBRANCH  28  31
ENDBRANCH  25  28
BRANCH  26  35
HETATM   35  O3  UNL     1      -9.658 -40.163  29.129  1.00  0.00    -0.345 OA
ATOM     36  H3  UNL     1      -9.723 -39.341  29.600  1.00  0.00     0.219 HD
ENDBRANCH  26  35
BRANCH  27  37
HETATM   37  N4  UNL     1      -9.697 -40.735  26.444  1.00  0.00    -0.383 N 
ATOM     38  H42 UNL     1      -9.502 -40.268  25.558  1.00  0.00     0.157 HD
ATOM     39  H41 UNL     1      -9.023 -40.930  27.185  1.00  0.00     0.157 HD
ENDBRANCH  27  37
ENDBRANCH  12  15
ENDBRANCH   5  11
ENDBRANCH   1   5
BRANCH   4  40
HETATM   40  C22 UNL     1     -13.235 -37.086  20.868  1.00  0.00    -0.032 C 
HETATM   41  C23 UNL     1     -14.231 -35.996  21.185  1.00  0.00     0.018 C 
HETATM   42  C24 UNL     1     -12.575 -36.740  19.554  1.00  0.00     0.018 C 
HETATM   43  C25 UNL     1     -13.889 -38.432  20.694  1.00  0.00     0.018 C 
ENDBRANCH   4  40
TORSDOF 12
ENDMDL
MODEL 5
REMARK VINA RESULT: -7.175224014      1.175      1.368
REMARK  12 active torsions:
REMARK  status: ('A' for Active; 'I' for Inactive)
REMARK    1  A    between atoms: C2_2  and  C3_3 
REMARK    2  A    between atoms: C3_3  and  C4_4 
REMARK    3  A    between atoms: C4_4  and  C5_5 
REMARK    4  A    between atoms: C5_5  and  N1_7 
REMARK    5  A    between atoms: C5_5  and  C19_36 
REMARK       I    between atoms: N1_7  and  C7_9 
REMARK    6  A    between atoms: C7_9  and  C8_11 
REMARK    7  A    between atoms: C14_20  and  C15_21 
REMARK    8  A    between atoms: C15_21  and  O2_22 
REMARK    9  A    between atoms: C15_21  and  C16_24 
REMARK   10  A    between atoms: C17_28  and  O3_29 
REMARK   11  A    between atoms: C18_32  and  N4_33 
REMARK   12  A    between atoms: C21_39  and  C22_40 
ROOT
HETATM    1  C19 UNL     1     -12.053 -37.397  24.455  1.00  0.00     0.047 C 
HETATM    2  C20 UNL     1     -12.792 -38.379  23.670  1.00  0.00     0.097 C 
HETATM    3  N5  UNL     1     -13.364 -39.177  23.042  1.00  0.00    -0.192 NA
HETATM    4  C21 UNL     1     -12.647 -36.355  24.960  1.00  0.00     0.002 C 
ENDROOT
BRANCH   1   5
HETATM    5  C5  UNL     1     -10.618 -37.711  24.661  1.00  0.00     0.066 C 
HETATM    6  C6  UNL     1     -10.104 -36.561  25.587  1.00  0.00     0.044 C 
BRANCH   5   7
HETATM    7  C4  UNL     1      -9.773 -37.580  23.432  1.00  0.00     0.036 C 
BRANCH   7   8
HETATM    8  C3  UNL     1      -8.910 -36.351  23.467  1.00  0.00     0.002 C 
BRANCH   8   9
HETATM    9  C2  UNL     1      -8.003 -36.369  22.228  1.00  0.00    -0.004 C 
HETATM   10  C1  UNL     1      -7.186 -35.101  22.212  1.00  0.00     0.005 C 
ENDBRANCH   8   9
ENDBRANCH   7   8
ENDBRANCH   5   7
BRANCH   5  11
HETATM   11  N1  UNL     1     -10.465 -38.968  25.317  1.00  0.00    -0.342 N 
HETATM   12  C7  UNL     1     -10.850 -39.253  26.635  1.00  0.00     0.273 C 
HETATM   13  O1  UNL     1     -11.393 -38.372  27.380  1.00  0.00    -0.266 OA
ATOM     14  H1  UNL     1     -10.038 -39.724  24.781  1.00  0.00     0.164 HD
BRANCH  12  15
HETATM   15  C8  UNL     1     -10.665 -40.557  27.251  1.00  0.00     0.145 C 
HETATM   16  N2  UNL     1     -11.108 -41.647  26.557  1.00  0.00    -0.352 N 
HETATM   17  C9  UNL     1     -11.043 -42.973  26.876  1.00  0.00     0.008 C 
ATOM     18  H2  UNL     1     -11.556 -41.439  25.664  1.00  0.00     0.166 HD
HETATM   19  C10 UNL     1     -11.346 -43.892  25.757  1.00  0.00     0.068 C 
HETATM   20  C11 UNL     1     -10.732 -43.516  28.102  1.00  0.00     0.056 C 
HETATM   21  C12 UNL     1     -10.581 -42.814  29.302  1.00  0.00     0.067 A 
HETATM   22  C13 UNL     1     -10.738 -43.350  30.537  1.00  0.00     0.074 A 
HETATM   23  N3  UNL     1     -10.282 -41.520  29.490  1.00  0.00    -0.274 N 
HETATM   24 CL1  UNL     1     -11.136 -45.026  30.871  1.00  0.00    -0.081 Cl
HETATM   25  C14 UNL     1     -10.530 -42.351  31.522  1.00  0.00     0.054 A 
HETATM   26  C17 UNL     1     -10.246 -41.213  30.810  1.00  0.00     0.159 A 
HETATM   27  C18 UNL     1     -10.044 -40.608  28.512  1.00  0.00     0.141 C 
BRANCH  25  28
HETATM   28  C15 UNL     1     -10.653 -42.652  32.939  1.00  0.00     0.264 C 
BRANCH  28  29
HETATM   29  O2  UNL     1      -9.938 -43.864  33.168  1.00  0.00    -0.382 OA
ATOM     30  H2  UNL     1      -9.013 -43.648  33.140  1.00  0.00     0.210 HD
ENDBRANCH  28  29
BRANCH  28  31
HETATM   31  C16 UNL     1     -12.015 -42.878  33.488  1.00  0.00     0.417 C 
HETATM   32  F1  UNL     1     -12.218 -42.003  34.595  1.00  0.00    -0.168 F 
HETATM   33  F2  UNL     1     -12.242 -44.132  33.986  1.00  0.00    -0.168 F 
HETATM   34  F3  UNL     1     -13.032 -42.495  32.601  1.00  0.00    -0.168 F 
ENDBRANCH  28  31
ENDBRANCH  25  28
BRANCH  26  35
HETATM   35  O3  UNL     1      -9.970 -39.962  31.301  1.00  0.00    -0.345 OA
ATOM     36  H3  UNL     1      -9.397 -39.304  30.926  1.00  0.00     0.219 HD
ENDBRANCH  26  35
BRANCH  27  37
HETATM   37  N4  UNL     1      -9.200 -39.690  28.680  1.00  0.00    -0.383 N 
ATOM     38  H42 UNL     1      -8.216 -39.835  28.449  1.00  0.00     0.157 HD
ATOM     39  H41 UNL     1      -9.612 -38.836  29.056  1.00  0.00     0.157 HD
ENDBRANCH  27  37
ENDBRANCH  12  15
ENDBRANCH   5  11
ENDBRANCH   1   5
BRANCH   4  40
HETATM   40  C22 UNL     1     -14.089 -36.052  24.741  1.00  0.00    -0.032 C 
HETATM   41  C23 UNL     1     -14.903 -37.119  25.435  1.00  0.00     0.018 C 
HETATM   42  C24 UNL     1     -14.417 -34.727  25.388  1.00  0.00     0.018 C 
HETATM   43  C25 UNL     1     -14.428 -35.927  23.280  1.00  0.00     0.018 C 
ENDBRANCH   4  40
TORSDOF 12
ENDMDL
