MODEL 1
REMARK VINA RESULT: -4.630082884      0.000      0.000
REMARK  3 active torsions:
REMARK  status: ('A' for Active; 'I' for Inactive)
REMARK    1  A    between atoms: C2_2  and  C4_4 
REMARK    2  A    between atoms: C4_4  and  O1_5 
REMARK    3  A    between atoms: C4_4  and  C5_7 
ROOT
HETATM    1  C4  UNL     1       7.685  10.208   4.890  1.00  0.00     0.127 C 
ENDROOT
BRANCH   1   2
HETATM    2  C2  UNL     1       6.555  11.060   4.309  1.00  0.00     0.006 C 
HETATM    3  C1  UNL     1       6.280  10.642   2.879  1.00  0.00     0.012 C 
HETATM    4  C3  UNL     1       5.296  10.760   5.094  1.00  0.00     0.012 C 
ENDBRANCH   1   2
BRANCH   1   5
HETATM    5  O1  UNL     1       8.222  10.784   6.018  1.00  0.00    -0.395 OA
ATOM      6  H1  UNL     1       8.720  10.155   6.527  1.00  0.00     0.210 HD
ENDBRANCH   1   5
BRANCH   1   7
HETATM    7  C5  UNL     1       8.768   9.970   3.863  1.00  0.00     0.035 C 
HETATM    8  C6  UNL     1       9.300   8.567   4.111  1.00  0.00     0.094 C 
HETATM    9  S1  UNL     1      10.525   8.353   2.749  1.00  0.00    -0.097 SA
HETATM   10  S2  UNL     1      11.055  10.454   2.683  1.00  0.00    -0.097 SA
HETATM   11  C7  UNL     1       9.925  10.924   4.060  1.00  0.00     0.094 C 
ENDBRANCH   1   7
TORSDOF 3
ENDMDL
MODEL 2
REMARK VINA RESULT: -4.535714029      1.811      2.381
REMARK  3 active torsions:
REMARK  status: ('A' for Active; 'I' for Inactive)
REMARK    1  A    between atoms: C2_2  and  C4_4 
REMARK    2  A    between atoms: C4_4  and  O1_5 
REMARK    3  A    between atoms: C4_4  and  C5_7 
ROOT
HETATM    1  C4  UNL     1       7.267  10.593   3.020  1.00  0.00     0.127 C 
ENDROOT
BRANCH   1   2
HETATM    2  C2  UNL     1       6.745  10.388   4.444  1.00  0.00     0.006 C 
HETATM    3  C1  UNL     1       7.511  11.273   5.404  1.00  0.00     0.012 C 
HETATM    4  C3  UNL     1       5.305  10.857   4.482  1.00  0.00     0.012 C 
ENDBRANCH   1   2
BRANCH   1   5
HETATM    5  O1  UNL     1       6.486   9.939   2.097  1.00  0.00    -0.395 OA
ATOM      6  H1  UNL     1       6.925   9.865   1.258  1.00  0.00     0.210 HD
ENDBRANCH   1   5
BRANCH   1   7
HETATM    7  C5  UNL     1       8.703  10.139   2.900  1.00  0.00     0.035 C 
HETATM    8  C6  UNL     1       9.009  10.059   1.412  1.00  0.00     0.094 C 
HETATM    9  S1  UNL     1      10.796   9.603   1.390  1.00  0.00    -0.097 SA
HETATM   10  S2  UNL     1      10.690   8.466   3.233  1.00  0.00    -0.097 SA
HETATM   11  C7  UNL     1       8.884   8.747   3.465  1.00  0.00     0.094 C 
ENDBRANCH   1   7
TORSDOF 3
ENDMDL
MODEL 3
REMARK VINA RESULT: -4.462031863      2.325      2.998
REMARK  3 active torsions:
REMARK  status: ('A' for Active; 'I' for Inactive)
REMARK    1  A    between atoms: C2_2  and  C4_4 
REMARK    2  A    between atoms: C4_4  and  O1_5 
REMARK    3  A    between atoms: C4_4  and  C5_7 
ROOT
HETATM    1  C4  UNL     1       7.149   9.696   3.451  1.00  0.00     0.127 C 
ENDROOT
BRANCH   1   2
HETATM    2  C2  UNL     1       6.783  10.941   4.262  1.00  0.00     0.006 C 
HETATM    3  C1  UNL     1       5.501  10.694   5.030  1.00  0.00     0.012 C 
HETATM    4  C3  UNL     1       7.868  11.159   5.295  1.00  0.00     0.012 C 
ENDBRANCH   1   2
BRANCH   1   5
HETATM    5  O1  UNL     1       8.244   9.054   3.981  1.00  0.00    -0.395 OA
ATOM      6  H1  UNL     1       8.240   8.127   3.772  1.00  0.00     0.210 HD
ENDBRANCH   1   5
BRANCH   1   7
HETATM    7  C5  UNL     1       7.403  10.047   2.004  1.00  0.00     0.035 C 
HETATM    8  C6  UNL     1       8.904  10.252   1.864  1.00  0.00     0.094 C 
HETATM    9  S1  UNL     1       9.103  10.568   0.058  1.00  0.00    -0.097 SA
HETATM   10  S2  UNL     1       7.166  11.519  -0.149  1.00  0.00    -0.097 SA
HETATM   11  C7  UNL     1       6.741  11.357   1.637  1.00  0.00     0.094 C 
ENDBRANCH   1   7
TORSDOF 3
ENDMDL
MODEL 4
REMARK VINA RESULT: -4.460055925      1.765      2.287
REMARK  3 active torsions:
REMARK  status: ('A' for Active; 'I' for Inactive)
REMARK    1  A    between atoms: C2_2  and  C4_4 
REMARK    2  A    between atoms: C4_4  and  O1_5 
REMARK    3  A    between atoms: C4_4  and  C5_7 
ROOT
HETATM    1  C4  UNL     1       6.105  10.666   3.347  1.00  0.00     0.127 C 
ENDROOT
BRANCH   1   2
HETATM    2  C2  UNL     1       5.636  11.269   2.022  1.00  0.00     0.006 C 
HETATM    3  C1  UNL     1       6.781  11.280   1.030  1.00  0.00     0.012 C 
HETATM    4  C3  UNL     1       4.576  10.355   1.444  1.00  0.00     0.012 C 
ENDBRANCH   1   2
BRANCH   1   5
HETATM    5  O1  UNL     1       5.666  11.405   4.421  1.00  0.00    -0.395 OA
ATOM      6  H1  UNL     1       4.960  10.967   4.881  1.00  0.00     0.210 HD
ENDBRANCH   1   5
BRANCH   1   7
HETATM    7  C5  UNL     1       7.610  10.539   3.383  1.00  0.00     0.035 C 
HETATM    8  C6  UNL     1       7.917   9.059   3.557  1.00  0.00     0.094 C 
HETATM    9  S1  UNL     1       9.759   9.017   3.483  1.00  0.00    -0.097 SA
HETATM   10  S2  UNL     1       9.997  10.983   4.364  1.00  0.00    -0.097 SA
HETATM   11  C7  UNL     1       8.188  11.255   4.584  1.00  0.00     0.094 C 
ENDBRANCH   1   7
TORSDOF 3
ENDMDL
MODEL 5
REMARK VINA RESULT: -4.407099355      0.609      1.239
REMARK  3 active torsions:
REMARK  status: ('A' for Active; 'I' for Inactive)
REMARK    1  A    between atoms: C2_2  and  C4_4 
REMARK    2  A    between atoms: C4_4  and  O1_5 
REMARK    3  A    between atoms: C4_4  and  C5_7 
ROOT
HETATM    1  C4  UNL     1       8.125   9.825   4.885  1.00  0.00     0.127 C 
ENDROOT
BRANCH   1   2
HETATM    2  C2  UNL     1       6.721  10.047   4.319  1.00  0.00     0.006 C 
HETATM    3  C1  UNL     1       5.997  11.096   5.137  1.00  0.00     0.012 C 
HETATM    4  C3  UNL     1       6.867  10.616   2.923  1.00  0.00     0.012 C 
ENDBRANCH   1   2
BRANCH   1   5
HETATM    5  O1  UNL     1       8.436  10.761   5.844  1.00  0.00    -0.395 OA
ATOM      6  H1  UNL     1       7.676  11.275   6.088  1.00  0.00     0.210 HD
ENDBRANCH   1   5
BRANCH   1   7
HETATM    7  C5  UNL     1       9.162   9.843   3.786  1.00  0.00     0.035 C 
HETATM    8  C6  UNL     1       9.710   8.427   3.685  1.00  0.00     0.094 C 
HETATM    9  S1  UNL     1      10.875   8.546   2.260  1.00  0.00    -0.097 SA
HETATM   10  S2  UNL     1      11.392  10.615   2.653  1.00  0.00    -0.097 SA
HETATM   11  C7  UNL     1      10.323  10.742   4.148  1.00  0.00     0.094 C 
ENDBRANCH   1   7
TORSDOF 3
ENDMDL
