MODEL 1
REMARK VINA RESULT: -5.761145377      0.000      0.000
REMARK  3 active torsions:
REMARK  status: ('A' for Active; 'I' for Inactive)
REMARK    1  A    between atoms: C2_2  and  C4_4 
REMARK    2  A    between atoms: C7_7  and  O1_8 
REMARK    3  A    between atoms: O1_8  and  C8_9 
ROOT
HETATM    1  C4  UNL     1       6.856  10.454   4.937  1.00  0.00    -0.009 C 
HETATM    2  C5  UNL     1       7.916  11.495   5.195  1.00  0.00     0.007 C 
HETATM    3  C6  UNL     1       9.181  10.792   4.803  1.00  0.00     0.033 C 
HETATM    4  C7  UNL     1       8.784  10.047   3.565  1.00  0.00     0.133 C 
HETATM    5  C9  UNL     1       7.456   9.429   4.014  1.00  0.00     0.037 C 
ENDROOT
BRANCH   4   6
HETATM    6  O1  UNL     1       8.528  10.842   2.462  1.00  0.00    -0.307 OA
BRANCH   6   7
HETATM    7  C8  UNL     1       8.745  10.350   1.195  1.00  0.00     0.333 C 
HETATM    8  O2  UNL     1       7.865  10.577   0.339  1.00  0.00    -0.251 OA
HETATM    9  S1  UNL     1      10.178   9.420   0.692  1.00  0.00     0.022 SA
ENDBRANCH   6   7
ENDBRANCH   4   6
BRANCH   1  10
HETATM   10  C2  UNL     1       5.666  11.155   4.316  1.00  0.00    -0.019 C 
HETATM   11  C1  UNL     1       5.383  10.645   2.920  1.00  0.00     0.010 C 
HETATM   12  C3  UNL     1       4.454  10.849   5.177  1.00  0.00     0.010 C 
ENDBRANCH   1  10
TORSDOF 3
ENDMDL
MODEL 2
REMARK VINA RESULT: -5.706457457      1.039      1.062
REMARK  3 active torsions:
REMARK  status: ('A' for Active; 'I' for Inactive)
REMARK    1  A    between atoms: C2_2  and  C4_4 
REMARK    2  A    between atoms: C7_7  and  O1_8 
REMARK    3  A    between atoms: O1_8  and  C8_9 
ROOT
HETATM    1  C4  UNL     1       7.534  10.265   4.519  1.00  0.00    -0.009 C 
HETATM    2  C5  UNL     1       8.700  11.214   4.630  1.00  0.00     0.007 C 
HETATM    3  C6  UNL     1       9.846  10.403   4.104  1.00  0.00     0.033 C 
HETATM    4  C7  UNL     1       9.243   9.684   2.936  1.00  0.00     0.133 C 
HETATM    5  C9  UNL     1       7.932   9.185   3.550  1.00  0.00     0.037 C 
ENDROOT
BRANCH   4   6
HETATM    6  O1  UNL     1       8.924  10.489   1.857  1.00  0.00    -0.307 OA
BRANCH   6   7
HETATM    7  C8  UNL     1       9.556  10.300   0.648  1.00  0.00     0.333 C 
HETATM    8  O2  UNL     1       9.007   9.526  -0.165  1.00  0.00    -0.251 OA
HETATM    9  S1  UNL     1      11.086  11.071   0.163  1.00  0.00     0.022 SA
ENDBRANCH   6   7
ENDBRANCH   4   6
BRANCH   1  10
HETATM   10  C2  UNL     1       6.340  11.059   4.030  1.00  0.00    -0.019 C 
HETATM   11  C1  UNL     1       5.817  10.529   2.714  1.00  0.00     0.010 C 
HETATM   12  C3  UNL     1       5.238  10.910   5.063  1.00  0.00     0.010 C 
ENDBRANCH   1  10
TORSDOF 3
ENDMDL
MODEL 3
REMARK VINA RESULT: -5.529833027      1.290      1.290
REMARK  3 active torsions:
REMARK  status: ('A' for Active; 'I' for Inactive)
REMARK    1  A    between atoms: C2_2  and  C4_4 
REMARK    2  A    between atoms: C7_7  and  O1_8 
REMARK    3  A    between atoms: O1_8  and  C8_9 
ROOT
HETATM    1  C4  UNL     1       7.163  10.174   4.455  1.00  0.00    -0.009 C 
HETATM    2  C5  UNL     1       8.332  11.054   4.820  1.00  0.00     0.007 C 
HETATM    3  C6  UNL     1       9.493  10.354   4.180  1.00  0.00     0.033 C 
HETATM    4  C7  UNL     1       8.938   9.915   2.859  1.00  0.00     0.133 C 
HETATM    5  C9  UNL     1       7.594   9.321   3.294  1.00  0.00     0.037 C 
ENDROOT
BRANCH   4   6
HETATM    6  O1  UNL     1       8.677  10.940   1.967  1.00  0.00    -0.307 OA
BRANCH   6   7
HETATM    7  C8  UNL     1       8.452  10.654   0.639  1.00  0.00     0.333 C 
HETATM    8  O2  UNL     1       9.068   9.681   0.156  1.00  0.00    -0.251 OA
HETATM    9  S1  UNL     1       7.356  11.562  -0.431  1.00  0.00     0.022 SA
ENDBRANCH   6   7
ENDBRANCH   4   6
BRANCH   1  10
HETATM   10  C2  UNL     1       6.001  11.078   4.099  1.00  0.00    -0.019 C 
HETATM   11  C1  UNL     1       5.388  10.702   2.769  1.00  0.00     0.010 C 
HETATM   12  C3  UNL     1       4.938  10.899   5.168  1.00  0.00     0.010 C 
ENDBRANCH   1  10
TORSDOF 3
ENDMDL
MODEL 4
REMARK VINA RESULT: -5.473172534      1.797      1.797
REMARK  3 active torsions:
REMARK  status: ('A' for Active; 'I' for Inactive)
REMARK    1  A    between atoms: C2_2  and  C4_4 
REMARK    2  A    between atoms: C7_7  and  O1_8 
REMARK    3  A    between atoms: O1_8  and  C8_9 
ROOT
HETATM    1  C4  UNL     1       7.207   9.899   4.736  1.00  0.00    -0.009 C 
HETATM    2  C5  UNL     1       8.214  10.633   5.585  1.00  0.00     0.007 C 
HETATM    3  C6  UNL     1       9.463   9.824   5.401  1.00  0.00     0.033 C 
HETATM    4  C7  UNL     1       9.435   9.486   3.941  1.00  0.00     0.133 C 
HETATM    5  C9  UNL     1       7.980   9.033   3.778  1.00  0.00     0.037 C 
ENDROOT
BRANCH   4   6
HETATM    6  O1  UNL     1       9.641  10.556   3.089  1.00  0.00    -0.307 OA
BRANCH   6   7
HETATM    7  C8  UNL     1      10.835  10.676   2.414  1.00  0.00     0.333 C 
HETATM    8  O2  UNL     1      10.940  10.057   1.334  1.00  0.00    -0.251 OA
HETATM    9  S1  UNL     1      12.228  11.639   2.962  1.00  0.00     0.022 SA
ENDBRANCH   6   7
ENDBRANCH   4   6
BRANCH   1  10
HETATM   10  C2  UNL     1       6.367  10.935   4.018  1.00  0.00    -0.019 C 
HETATM   11  C1  UNL     1       6.136  10.563   2.571  1.00  0.00     0.010 C 
HETATM   12  C3  UNL     1       5.015  10.985   4.707  1.00  0.00     0.010 C 
ENDBRANCH   1  10
TORSDOF 3
ENDMDL
MODEL 5
REMARK VINA RESULT: -5.426108127      2.046      3.408
REMARK  3 active torsions:
REMARK  status: ('A' for Active; 'I' for Inactive)
REMARK    1  A    between atoms: C2_2  and  C4_4 
REMARK    2  A    between atoms: C7_7  and  O1_8 
REMARK    3  A    between atoms: O1_8  and  C8_9 
ROOT
HETATM    1  C4  UNL     1       6.789  10.163   2.696  1.00  0.00    -0.009 C 
HETATM    2  C5  UNL     1       6.118  11.057   3.707  1.00  0.00     0.007 C 
HETATM    3  C6  UNL     1       6.412  10.373   5.009  1.00  0.00     0.033 C 
HETATM    4  C7  UNL     1       7.834   9.931   4.845  1.00  0.00     0.133 C 
HETATM    5  C9  UNL     1       7.785   9.318   3.442  1.00  0.00     0.037 C 
ENDROOT
BRANCH   4   6
HETATM    6  O1  UNL     1       8.765  10.954   4.826  1.00  0.00    -0.307 OA
BRANCH   6   7
HETATM    7  C8  UNL     1      10.109  10.659   4.772  1.00  0.00     0.333 C 
HETATM    8  O2  UNL     1      10.584   9.998   5.719  1.00  0.00    -0.251 OA
HETATM    9  S1  UNL     1      11.210  11.146   3.460  1.00  0.00     0.022 SA
ENDBRANCH   6   7
ENDBRANCH   4   6
BRANCH   1  10
HETATM   10  C2  UNL     1       7.453  11.052   1.665  1.00  0.00    -0.019 C 
HETATM   11  C1  UNL     1       8.550  10.323   0.921  1.00  0.00     0.010 C 
HETATM   12  C3  UNL     1       6.393  11.453   0.655  1.00  0.00     0.010 C 
ENDBRANCH   1  10
TORSDOF 3
ENDMDL
