MODEL 1
REMARK VINA RESULT: -5.870049823      0.000      0.000
REMARK  3 active torsions:
REMARK  status: ('A' for Active; 'I' for Inactive)
REMARK    1  A    between atoms: C6_6  and  C7_7 
REMARK    2  A    between atoms: C7_7  and  O1_10 
REMARK    3  A    between atoms: O1_10  and  C10_11 
ROOT
HETATM    1  C7  UNL     1       9.652  10.046   2.572  1.00  0.00     0.069 C 
HETATM    2  C8  UNL     1      10.293   8.734   2.262  1.00  0.00     0.047 C 
HETATM    3  C9  UNL     1      10.675  10.948   3.160  1.00  0.00     0.047 C 
ENDROOT
BRANCH   1   4
HETATM    4  C6  UNL     1       8.474   9.949   3.508  1.00  0.00     0.024 C 
HETATM    5  C2  UNL     1       8.618  10.491   4.858  1.00  0.00    -0.012 C 
HETATM    6  C1  UNL     1       8.788   9.379   5.871  1.00  0.00     0.010 C 
HETATM    7  C3  UNL     1       7.257  11.110   5.200  1.00  0.00     0.005 C 
HETATM    8  C4  UNL     1       6.314  10.575   4.146  1.00  0.00     0.001 C 
HETATM    9  C5  UNL     1       7.251  10.623   2.930  1.00  0.00     0.008 C 
ENDBRANCH   1   4
BRANCH   1  10
HETATM   10  O1  UNL     1       9.090  10.523   1.361  1.00  0.00    -0.295 OA
BRANCH  10  11
HETATM   11  C10 UNL     1       9.584  10.347   0.106  1.00  0.00     0.373 C 
HETATM   12  N1  UNL     1      10.783  10.936  -0.384  1.00  0.00    -0.032 NA
HETATM   13  O2  UNL     1       8.914   9.610  -0.653  1.00  0.00    -0.242 OA
ENDBRANCH  10  11
ENDBRANCH   1  10
TORSDOF 3
ENDMDL
MODEL 2
REMARK VINA RESULT: -5.730516495      2.271      3.097
REMARK  3 active torsions:
REMARK  status: ('A' for Active; 'I' for Inactive)
REMARK    1  A    between atoms: C6_6  and  C7_7 
REMARK    2  A    between atoms: C7_7  and  O1_10 
REMARK    3  A    between atoms: O1_10  and  C10_11 
ROOT
HETATM    1  C7  UNL     1       9.860  10.185   3.167  1.00  0.00     0.069 C 
HETATM    2  C8  UNL     1      10.105  10.289   1.698  1.00  0.00     0.047 C 
HETATM    3  C9  UNL     1       9.951   8.756   3.564  1.00  0.00     0.047 C 
ENDROOT
BRANCH   1   4
HETATM    4  C6  UNL     1       8.531  10.741   3.610  1.00  0.00     0.024 C 
HETATM    5  C2  UNL     1       7.333   9.934   3.384  1.00  0.00    -0.012 C 
HETATM    6  C1  UNL     1       6.528  10.476   2.222  1.00  0.00     0.010 C 
HETATM    7  C3  UNL     1       6.439  10.173   4.607  1.00  0.00     0.005 C 
HETATM    8  C4  UNL     1       7.041  11.377   5.296  1.00  0.00     0.001 C 
HETATM    9  C5  UNL     1       8.530  11.062   5.087  1.00  0.00     0.008 C 
ENDBRANCH   1   4
BRANCH   1  10
HETATM   10  O1  UNL     1      10.811  11.022   3.801  1.00  0.00    -0.295 OA
BRANCH  10  11
HETATM   11  C10 UNL     1      12.095  11.244   3.409  1.00  0.00     0.373 C 
HETATM   12  N1  UNL     1      13.127  10.264   3.419  1.00  0.00    -0.032 NA
HETATM   13  O2  UNL     1      12.360  12.403   3.017  1.00  0.00    -0.242 OA
ENDBRANCH  10  11
ENDBRANCH   1  10
TORSDOF 3
ENDMDL
MODEL 3
REMARK VINA RESULT: -5.697624738      2.153      3.555
REMARK  3 active torsions:
REMARK  status: ('A' for Active; 'I' for Inactive)
REMARK    1  A    between atoms: C6_6  and  C7_7 
REMARK    2  A    between atoms: C7_7  and  O1_10 
REMARK    3  A    between atoms: O1_10  and  C10_11 
ROOT
HETATM    1  C7  UNL     1       5.635  10.603   1.980  1.00  0.00     0.069 C 
HETATM    2  C8  UNL     1       5.962  12.015   1.624  1.00  0.00     0.047 C 
HETATM    3  C9  UNL     1       4.480  10.160   1.157  1.00  0.00     0.047 C 
ENDROOT
BRANCH   1   4
HETATM    4  C6  UNL     1       5.316  10.395   3.439  1.00  0.00     0.024 C 
HETATM    5  C2  UNL     1       5.922  11.299   4.415  1.00  0.00    -0.012 C 
HETATM    6  C1  UNL     1       7.054  10.618   5.152  1.00  0.00     0.010 C 
HETATM    7  C3  UNL     1       4.850  11.522   5.490  1.00  0.00     0.005 C 
HETATM    8  C4  UNL     1       3.815  10.450   5.231  1.00  0.00     0.001 C 
HETATM    9  C5  UNL     1       3.828  10.461   3.695  1.00  0.00     0.008 C 
ENDBRANCH   1   4
BRANCH   1  10
HETATM   10  O1  UNL     1       6.814   9.844   1.775  1.00  0.00    -0.295 OA
BRANCH  10  11
HETATM   11  C10 UNL     1       8.027  10.312   1.374  1.00  0.00     0.373 C 
HETATM   12  N1  UNL     1       8.402  10.537   0.021  1.00  0.00    -0.032 NA
HETATM   13  O2  UNL     1       8.854  10.552   2.283  1.00  0.00    -0.242 OA
ENDBRANCH  10  11
ENDBRANCH   1  10
TORSDOF 3
ENDMDL
MODEL 4
REMARK VINA RESULT: -5.691722531      1.281      2.251
REMARK  3 active torsions:
REMARK  status: ('A' for Active; 'I' for Inactive)
REMARK    1  A    between atoms: C6_6  and  C7_7 
REMARK    2  A    between atoms: C7_7  and  O1_10 
REMARK    3  A    between atoms: O1_10  and  C10_11 
ROOT
HETATM    1  C7  UNL     1       9.023   9.913   3.285  1.00  0.00     0.069 C 
HETATM    2  C8  UNL     1       9.028   8.628   4.044  1.00  0.00     0.047 C 
HETATM    3  C9  UNL     1      10.218  10.704   3.679  1.00  0.00     0.047 C 
ENDROOT
BRANCH   1   4
HETATM    4  C6  UNL     1       7.783  10.746   3.493  1.00  0.00     0.024 C 
HETATM    5  C2  UNL     1       6.561  10.351   2.795  1.00  0.00    -0.012 C 
HETATM    6  C1  UNL     1       6.289  11.268   1.622  1.00  0.00     0.010 C 
HETATM    7  C3  UNL     1       5.416  10.642   3.775  1.00  0.00     0.005 C 
HETATM    8  C4  UNL     1       6.037  11.508   4.848  1.00  0.00     0.001 C 
HETATM    9  C5  UNL     1       7.408  10.824   4.955  1.00  0.00     0.008 C 
ENDBRANCH   1   4
BRANCH   1  10
HETATM   10  O1  UNL     1       8.983   9.576   1.908  1.00  0.00    -0.295 OA
BRANCH  10  11
HETATM   11  C10 UNL     1      10.025   9.582   1.034  1.00  0.00     0.373 C 
HETATM   12  N1  UNL     1      10.306  10.631   0.115  1.00  0.00    -0.032 NA
HETATM   13  O2  UNL     1      10.775   8.580   1.062  1.00  0.00    -0.242 OA
ENDBRANCH  10  11
ENDBRANCH   1  10
TORSDOF 3
ENDMDL
MODEL 5
REMARK VINA RESULT: -5.642483229      2.084      2.821
REMARK  3 active torsions:
REMARK  status: ('A' for Active; 'I' for Inactive)
REMARK    1  A    between atoms: C6_6  and  C7_7 
REMARK    2  A    between atoms: C7_7  and  O1_10 
REMARK    3  A    between atoms: O1_10  and  C10_11 
ROOT
HETATM    1  C7  UNL     1       9.648   9.916   3.952  1.00  0.00     0.069 C 
HETATM    2  C8  UNL     1       9.518   8.456   3.670  1.00  0.00     0.047 C 
HETATM    3  C9  UNL     1      10.290  10.089   5.281  1.00  0.00     0.047 C 
ENDROOT
BRANCH   1   4
HETATM    4  C6  UNL     1       8.341  10.666   3.927  1.00  0.00     0.024 C 
HETATM    5  C2  UNL     1       7.236  10.106   3.150  1.00  0.00    -0.012 C 
HETATM    6  C1  UNL     1       7.044  10.870   1.858  1.00  0.00     0.010 C 
HETATM    7  C3  UNL     1       5.969  10.407   3.960  1.00  0.00     0.005 C 
HETATM    8  C4  UNL     1       6.401  11.428   4.989  1.00  0.00     0.001 C 
HETATM    9  C5  UNL     1       7.793  10.869   5.321  1.00  0.00     0.008 C 
ENDBRANCH   1   4
BRANCH   1  10
HETATM   10  O1  UNL     1      10.385  10.476   2.878  1.00  0.00    -0.295 OA
BRANCH  10  11
HETATM   11  C10 UNL     1      11.715  10.759   2.859  1.00  0.00     0.373 C 
HETATM   12  N1  UNL     1      12.277  12.035   3.141  1.00  0.00    -0.032 NA
HETATM   13  O2  UNL     1      12.478   9.809   2.569  1.00  0.00    -0.242 OA
ENDBRANCH  10  11
ENDBRANCH   1  10
TORSDOF 3
ENDMDL
