MODEL 1
REMARK VINA RESULT: -6.000379954      0.000      0.000
REMARK  2 active torsions:
REMARK  status: ('A' for Active; 'I' for Inactive)
REMARK    1  A    between atoms: O1_2  and  C2_3 
REMARK    2  A    between atoms: C11_12  and  O2_13 
ROOT
HETATM    1  C2  UNL     1      13.745  13.220  -1.108  1.00  0.00     0.121 C 
HETATM    2  C3  UNL     1      13.100  12.208  -0.211  1.00  0.00     0.032 C 
HETATM    3  C4  UNL     1      13.725  10.825  -0.341  1.00  0.00     0.003 C 
HETATM    4  C5  UNL     1      13.478  10.433  -1.752  1.00  0.00     0.012 C 
HETATM    5  C6  UNL     1      14.320  11.288  -2.659  1.00  0.00    -0.012 C 
HETATM    6  C7  UNL     1      15.761  10.960  -2.406  1.00  0.00     0.012 C 
HETATM    7  C8  UNL     1      16.108   9.524  -2.616  1.00  0.00     0.001 C 
HETATM    8  C9  UNL     1      15.630   8.991  -3.933  1.00  0.00     0.002 C 
HETATM    9  C10 UNL     1      15.086  10.130  -4.754  1.00  0.00     0.032 C 
HETATM   10  C11 UNL     1      13.970  10.872  -4.079  1.00  0.00     0.126 C 
HETATM   11  C12 UNL     1      14.126  12.760  -2.451  1.00  0.00     0.044 C 
ENDROOT
BRANCH  10  12
HETATM   12  O2  UNL     1      12.763  10.179  -4.131  1.00  0.00    -0.395 OA
ATOM     13  H2  UNL     1      12.730   9.585  -4.872  1.00  0.00     0.210 HD
ENDBRANCH  10  12
BRANCH   1  14
HETATM   14  O1  UNL     1      14.781  13.912  -0.528  1.00  0.00    -0.391 OA
HETATM   15  C1  UNL     1      15.813  14.287  -1.312  1.00  0.00     0.202 C 
ENDBRANCH   1  14
TORSDOF 2
ENDMDL
MODEL 2
REMARK VINA RESULT: -5.902681578      1.317      4.582
REMARK  2 active torsions:
REMARK  status: ('A' for Active; 'I' for Inactive)
REMARK    1  A    between atoms: O1_2  and  C2_3 
REMARK    2  A    between atoms: C11_12  and  O2_13 
ROOT
HETATM    1  C2  UNL     1      14.249  11.045  -3.584  1.00  0.00     0.121 C 
HETATM    2  C3  UNL     1      15.538  10.482  -3.068  1.00  0.00     0.032 C 
HETATM    3  C4  UNL     1      15.683  10.632  -1.558  1.00  0.00     0.003 C 
HETATM    4  C5  UNL     1      15.681  12.099  -1.327  1.00  0.00     0.012 C 
HETATM    5  C6  UNL     1      14.308  12.645  -1.607  1.00  0.00    -0.012 C 
HETATM    6  C7  UNL     1      13.364  12.084  -0.584  1.00  0.00     0.012 C 
HETATM    7  C8  UNL     1      13.741  12.388   0.827  1.00  0.00     0.001 C 
HETATM    8  C9  UNL     1      14.026  13.841   1.059  1.00  0.00     0.002 C 
HETATM    9  C10 UNL     1      13.668  14.615  -0.183  1.00  0.00     0.032 C 
HETATM   10  C11 UNL     1      14.400  14.149  -1.407  1.00  0.00     0.126 C 
HETATM   11  C12 UNL     1      13.788  12.299  -2.970  1.00  0.00     0.044 C 
ENDROOT
BRANCH  10  12
HETATM   12  O2  UNL     1      15.719  14.593  -1.438  1.00  0.00    -0.395 OA
ATOM     13  H2  UNL     1      16.287  13.981  -1.893  1.00  0.00     0.210 HD
ENDBRANCH  10  12
BRANCH   1  14
HETATM   14  O1  UNL     1      13.220  10.138  -3.649  1.00  0.00    -0.391 OA
HETATM   15  C1  UNL     1      13.486   8.851  -3.345  1.00  0.00     0.202 C 
ENDBRANCH   1  14
TORSDOF 2
ENDMDL
MODEL 3
REMARK VINA RESULT: -5.878332526      7.744      9.714
REMARK  2 active torsions:
REMARK  status: ('A' for Active; 'I' for Inactive)
REMARK    1  A    between atoms: O1_2  and  C2_3 
REMARK    2  A    between atoms: C11_12  and  O2_13 
ROOT
HETATM    1  C2  UNL     1       5.519  10.033   3.480  1.00  0.00     0.121 C 
HETATM    2  C3  UNL     1       5.641  11.006   4.613  1.00  0.00     0.032 C 
HETATM    3  C4  UNL     1       7.032  11.620   4.712  1.00  0.00     0.003 C 
HETATM    4  C5  UNL     1       7.931  10.468   4.978  1.00  0.00     0.012 C 
HETATM    5  C6  UNL     1       8.012   9.607   3.748  1.00  0.00    -0.012 C 
HETATM    6  C7  UNL     1       8.692  10.396   2.668  1.00  0.00     0.012 C 
HETATM    7  C8  UNL     1      10.058  10.875   3.029  1.00  0.00     0.001 C 
HETATM    8  C9  UNL     1      10.937   9.789   3.573  1.00  0.00     0.002 C 
HETATM    9  C10 UNL     1      10.229   8.468   3.427  1.00  0.00     0.032 C 
HETATM   10  C11 UNL     1       8.896   8.426   4.114  1.00  0.00     0.126 C 
HETATM   11  C12 UNL     1       6.676   9.159   3.237  1.00  0.00     0.044 C 
ENDROOT
BRANCH  10  12
HETATM   12  O2  UNL     1       9.014   8.278   5.494  1.00  0.00    -0.395 OA
ATOM     13  H2  UNL     1       9.908   8.416   5.788  1.00  0.00     0.210 HD
ENDBRANCH  10  12
BRANCH   1  14
HETATM   14  O1  UNL     1       5.082  10.587   2.301  1.00  0.00    -0.391 OA
HETATM   15  C1  UNL     1       3.843  10.272   1.871  1.00  0.00     0.202 C 
ENDBRANCH   1  14
TORSDOF 2
ENDMDL
MODEL 4
REMARK VINA RESULT: -5.747558455      7.726      9.546
REMARK  2 active torsions:
REMARK  status: ('A' for Active; 'I' for Inactive)
REMARK    1  A    between atoms: O1_2  and  C2_3 
REMARK    2  A    between atoms: C11_12  and  O2_13 
ROOT
HETATM    1  C2  UNL     1       6.257  10.813   4.216  1.00  0.00     0.121 C 
HETATM    2  C3  UNL     1       6.358  10.991   2.732  1.00  0.00     0.032 C 
HETATM    3  C4  UNL     1       7.468  10.151   2.113  1.00  0.00     0.003 C 
HETATM    4  C5  UNL     1       8.716  10.662   2.737  1.00  0.00     0.012 C 
HETATM    5  C6  UNL     1       8.742  10.268   4.189  1.00  0.00    -0.012 C 
HETATM    6  C7  UNL     1       8.846   8.774   4.267  1.00  0.00     0.012 C 
HETATM    7  C8  UNL     1      10.041   8.207   3.578  1.00  0.00     0.001 C 
HETATM    8  C9  UNL     1      11.320   8.883   3.970  1.00  0.00     0.002 C 
HETATM    9  C10 UNL     1      11.043   9.837   5.102  1.00  0.00     0.032 C 
HETATM   10  C11 UNL     1      10.010  10.872   4.769  1.00  0.00     0.126 C 
HETATM   11  C12 UNL     1       7.526  10.699   4.952  1.00  0.00     0.044 C 
ENDROOT
BRANCH  10  12
HETATM   12  O2  UNL     1      10.516  11.886   3.960  1.00  0.00    -0.395 OA
ATOM     13  H2  UNL     1      11.373  12.175   4.251  1.00  0.00     0.210 HD
ENDBRANCH  10  12
BRANCH   1  14
HETATM   14  O1  UNL     1       5.386   9.827   4.611  1.00  0.00    -0.391 OA
HETATM   15  C1  UNL     1       4.115  10.179   4.898  1.00  0.00     0.202 C 
ENDBRANCH   1  14
TORSDOF 2
ENDMDL
MODEL 5
REMARK VINA RESULT: -5.681839654      6.585      8.270
REMARK  2 active torsions:
REMARK  status: ('A' for Active; 'I' for Inactive)
REMARK    1  A    between atoms: O1_2  and  C2_3 
REMARK    2  A    between atoms: C11_12  and  O2_13 
ROOT
HETATM    1  C2  UNL     1       8.765   9.261   3.818  1.00  0.00     0.121 C 
HETATM    2  C3  UNL     1       8.441  10.178   4.957  1.00  0.00     0.032 C 
HETATM    3  C4  UNL     1       9.389  11.368   5.042  1.00  0.00     0.003 C 
HETATM    4  C5  UNL     1      10.725  10.765   5.285  1.00  0.00     0.012 C 
HETATM    5  C6  UNL     1      11.176  10.041   4.046  1.00  0.00    -0.012 C 
HETATM    6  C7  UNL     1      11.393  11.057   2.964  1.00  0.00     0.012 C 
HETATM    7  C8  UNL     1      12.386  12.116   3.309  1.00  0.00     0.001 C 
HETATM    8  C9  UNL     1      13.677  11.562   3.830  1.00  0.00     0.002 C 
HETATM    9  C10 UNL     1      13.662  10.063   3.683  1.00  0.00     0.032 C 
HETATM   10  C11 UNL     1      12.513   9.406   4.389  1.00  0.00     0.126 C 
HETATM   11  C12 UNL     1      10.192   9.025   3.550  1.00  0.00     0.044 C 
ENDROOT
BRANCH  10  12
HETATM   12  O2  UNL     1      12.710   9.328   5.765  1.00  0.00    -0.395 OA
ATOM     13  H2  UNL     1      12.115   8.707   6.171  1.00  0.00     0.210 HD
ENDBRANCH  10  12
BRANCH   1  14
HETATM   14  O1  UNL     1       8.102   9.551   2.651  1.00  0.00    -0.391 OA
HETATM   15  C1  UNL     1       6.793   9.873   2.726  1.00  0.00     0.202 C 
ENDBRANCH   1  14
TORSDOF 2
ENDMDL
