MODEL 1
REMARK VINA RESULT: -5.776602405      0.000      0.000
REMARK  2 active torsions:
REMARK  status: ('A' for Active; 'I' for Inactive)
REMARK    1  A    between atoms: C2_2  and  C3_4 
REMARK    2  A    between atoms: C8_9  and  O2_10 
ROOT
HETATM    1  C3  UNL     1      15.353  12.884  -1.998  1.00  0.00     0.059 C 
HETATM    2  C4  UNL     1      13.852  12.973  -2.356  1.00  0.00     0.013 C 
HETATM    3  C5  UNL     1      13.743  12.055  -3.553  1.00  0.00     0.001 C 
HETATM    4  C6  UNL     1      13.785  10.668  -2.966  1.00  0.00     0.007 C 
HETATM    5  C7  UNL     1      14.986  10.375  -2.150  1.00  0.00     0.019 C 
HETATM    6  C8  UNL     1      14.507   9.514  -0.988  1.00  0.00     0.122 C 
HETATM    7  C9  UNL     1      15.645   9.011  -0.145  1.00  0.00     0.032 C 
HETATM    8  C10 UNL     1      16.901   9.832  -0.352  1.00  0.00     0.003 C 
HETATM    9  C11 UNL     1      16.408  11.298  -0.335  1.00  0.00     0.006 C 
HETATM   10  C12 UNL     1      15.842  11.533  -1.727  1.00  0.00     0.003 C 
ENDROOT
BRANCH   1  11
HETATM   11  C2  UNL     1      15.570  13.955  -1.038  1.00  0.00     0.127 C 
HETATM   12  C1  UNL     1      14.516  14.275  -0.037  1.00  0.00     0.091 C 
HETATM   13  O1  UNL     1      16.571  14.609  -1.005  1.00  0.00    -0.298 OA
ENDBRANCH   1  11
BRANCH   6  14
HETATM   14  O2  UNL     1      13.505  10.128  -0.286  1.00  0.00    -0.395 OA
ATOM     15  H2  UNL     1      12.803   9.523  -0.078  1.00  0.00     0.210 HD
ENDBRANCH   6  14
TORSDOF 2
ENDMDL
MODEL 2
REMARK VINA RESULT: -5.713850893      2.175      4.176
REMARK  2 active torsions:
REMARK  status: ('A' for Active; 'I' for Inactive)
REMARK    1  A    between atoms: C2_2  and  C3_4 
REMARK    2  A    between atoms: C8_9  and  O2_10 
ROOT
HETATM    1  C3  UNL     1      14.038  10.992  -0.875  1.00  0.00     0.059 C 
HETATM    2  C4  UNL     1      14.793  11.974  -1.797  1.00  0.00     0.013 C 
HETATM    3  C5  UNL     1      13.681  12.850  -2.329  1.00  0.00     0.001 C 
HETATM    4  C6  UNL     1      13.352  13.774  -1.184  1.00  0.00     0.007 C 
HETATM    5  C7  UNL     1      12.969  13.091   0.073  1.00  0.00     0.019 C 
HETATM    6  C8  UNL     1      13.572  13.917   1.202  1.00  0.00     0.122 C 
HETATM    7  C9  UNL     1      13.143  13.428   2.557  1.00  0.00     0.032 C 
HETATM    8  C10 UNL     1      12.627  12.006   2.502  1.00  0.00     0.003 C 
HETATM    9  C11 UNL     1      13.649  11.262   1.608  1.00  0.00     0.006 C 
HETATM   10  C12 UNL     1      13.253  11.623   0.185  1.00  0.00     0.003 C 
ENDROOT
BRANCH   1  11
HETATM   11  C2  UNL     1      15.010   9.957  -0.559  1.00  0.00     0.127 C 
HETATM   12  C1  UNL     1      16.445  10.315  -0.401  1.00  0.00     0.091 C 
HETATM   13  O1  UNL     1      14.715   8.807  -0.413  1.00  0.00    -0.298 OA
ENDBRANCH   1  11
BRANCH   6  14
HETATM   14  O2  UNL     1      14.924  14.065   1.051  1.00  0.00    -0.395 OA
ATOM     15  H2  UNL     1      15.202  14.953   1.243  1.00  0.00     0.210 HD
ENDBRANCH   6  14
TORSDOF 2
ENDMDL
MODEL 3
REMARK VINA RESULT: -5.652165650      1.865      3.987
REMARK  2 active torsions:
REMARK  status: ('A' for Active; 'I' for Inactive)
REMARK    1  A    between atoms: C2_2  and  C3_4 
REMARK    2  A    between atoms: C8_9  and  O2_10 
ROOT
HETATM    1  C3  UNL     1      13.724   9.984  -3.234  1.00  0.00     0.059 C 
HETATM    2  C4  UNL     1      14.268  11.041  -4.220  1.00  0.00     0.013 C 
HETATM    3  C5  UNL     1      13.425  12.256  -3.901  1.00  0.00     0.001 C 
HETATM    4  C6  UNL     1      14.002  12.784  -2.613  1.00  0.00     0.007 C 
HETATM    5  C7  UNL     1      14.020  11.812  -1.496  1.00  0.00     0.019 C 
HETATM    6  C8  UNL     1      15.318  12.063  -0.739  1.00  0.00     0.122 C 
HETATM    7  C9  UNL     1      15.411  11.245   0.518  1.00  0.00     0.032 C 
HETATM    8  C10 UNL     1      14.463  10.064   0.490  1.00  0.00     0.003 C 
HETATM    9  C11 UNL     1      14.630   9.472  -0.930  1.00  0.00     0.006 C 
HETATM   10  C12 UNL     1      13.786  10.367  -1.824  1.00  0.00     0.003 C 
ENDROOT
BRANCH   1  11
HETATM   11  C2  UNL     1      14.298   8.726  -3.684  1.00  0.00     0.127 C 
HETATM   12  C1  UNL     1      15.692   8.694  -4.203  1.00  0.00     0.091 C 
HETATM   13  O1  UNL     1      13.701   7.690  -3.660  1.00  0.00    -0.298 OA
ENDBRANCH   1  11
BRANCH   6  14
HETATM   14  O2  UNL     1      16.407  11.970  -1.563  1.00  0.00    -0.395 OA
ATOM     15  H2  UNL     1      17.077  11.407  -1.193  1.00  0.00     0.210 HD
ENDBRANCH   6  14
TORSDOF 2
ENDMDL
MODEL 4
REMARK VINA RESULT: -5.632792068      1.932      4.520
REMARK  2 active torsions:
REMARK  status: ('A' for Active; 'I' for Inactive)
REMARK    1  A    between atoms: C2_2  and  C3_4 
REMARK    2  A    between atoms: C8_9  and  O2_10 
ROOT
HETATM    1  C3  UNL     1      15.265   9.279  -2.191  1.00  0.00     0.059 C 
HETATM    2  C4  UNL     1      14.704   8.333  -1.106  1.00  0.00     0.013 C 
HETATM    3  C5  UNL     1      15.495   8.731   0.120  1.00  0.00     0.001 C 
HETATM    4  C6  UNL     1      14.871  10.029   0.563  1.00  0.00     0.007 C 
HETATM    5  C7  UNL     1      14.864  11.096  -0.463  1.00  0.00     0.019 C 
HETATM    6  C8  UNL     1      13.542  11.834  -0.297  1.00  0.00     0.122 C 
HETATM    7  C9  UNL     1      13.451  13.047  -1.179  1.00  0.00     0.032 C 
HETATM    8  C10 UNL     1      14.442  12.984  -2.322  1.00  0.00     0.003 C 
HETATM    9  C11 UNL     1      14.328  11.533  -2.848  1.00  0.00     0.006 C 
HETATM   10  C12 UNL     1      15.158  10.704  -1.881  1.00  0.00     0.003 C 
ENDROOT
BRANCH   1  11
HETATM   11  C2  UNL     1      14.747   8.754  -3.444  1.00  0.00     0.127 C 
HETATM   12  C1  UNL     1      15.652   8.616  -4.617  1.00  0.00     0.091 C 
HETATM   13  O1  UNL     1      13.609   8.417  -3.590  1.00  0.00    -0.298 OA
ENDBRANCH   1  11
BRANCH   6  14
HETATM   14  O2  UNL     1      12.475  10.981  -0.387  1.00  0.00    -0.395 OA
ATOM     15  H2  UNL     1      12.015  10.907   0.442  1.00  0.00     0.210 HD
ENDBRANCH   6  14
TORSDOF 2
ENDMDL
MODEL 5
REMARK VINA RESULT: -5.617156587      2.047      4.186
REMARK  2 active torsions:
REMARK  status: ('A' for Active; 'I' for Inactive)
REMARK    1  A    between atoms: C2_2  and  C3_4 
REMARK    2  A    between atoms: C8_9  and  O2_10 
ROOT
HETATM    1  C3  UNL     1      14.536  10.395  -2.488  1.00  0.00     0.059 C 
HETATM    2  C4  UNL     1      14.132   9.091  -1.764  1.00  0.00     0.013 C 
HETATM    3  C5  UNL     1      15.115   9.032  -0.616  1.00  0.00     0.001 C 
HETATM    4  C6  UNL     1      14.597  10.045   0.372  1.00  0.00     0.007 C 
HETATM    5  C7  UNL     1      14.453  11.417  -0.165  1.00  0.00     0.019 C 
HETATM    6  C8  UNL     1      13.190  11.987   0.469  1.00  0.00     0.122 C 
HETATM    7  C9  UNL     1      12.988  13.437   0.131  1.00  0.00     0.032 C 
HETATM    8  C10 UNL     1      13.784  13.845  -1.090  1.00  0.00     0.003 C 
HETATM    9  C11 UNL     1      13.557  12.693  -2.098  1.00  0.00     0.006 C 
HETATM   10  C12 UNL     1      14.511  11.595  -1.653  1.00  0.00     0.003 C 
ENDROOT
BRANCH   1  11
HETATM   11  C2  UNL     1      13.816  10.357  -3.750  1.00  0.00     0.127 C 
HETATM   12  C1  UNL     1      14.423  10.964  -4.966  1.00  0.00     0.091 C 
HETATM   13  O1  UNL     1      12.737   9.853  -3.872  1.00  0.00    -0.298 OA
ENDBRANCH   1  11
BRANCH   6  14
HETATM   14  O2  UNL     1      12.103  11.189   0.231  1.00  0.00    -0.395 OA
ATOM     15  H2  UNL     1      11.292  11.624   0.467  1.00  0.00     0.210 HD
ENDBRANCH   6  14
TORSDOF 2
ENDMDL
