MODEL 1
REMARK VINA RESULT: -6.618446278      0.000      0.000
REMARK  2 active torsions:
REMARK  status: ('A' for Active; 'I' for Inactive)
REMARK    1  A    between atoms: C2_2  and  C3_3 
REMARK    2  A    between atoms: C6_6  and  O1_7 
ROOT
HETATM    1  C3  UNL     1       6.314   9.748   3.996  1.00  0.00     0.020 C 
HETATM    2  C4  UNL     1       5.836   9.668   2.581  1.00  0.00     0.010 C 
HETATM    3  C5  UNL     1       4.483  10.267   2.355  1.00  0.00     0.032 C 
HETATM    4  C6  UNL     1       3.466   9.924   3.387  1.00  0.00     0.118 C 
HETATM    5  C7  UNL     1       4.032   9.756   4.772  1.00  0.00     0.032 C 
HETATM    6  C8  UNL     1       5.330  10.566   4.806  1.00  0.00     0.010 C 
ENDROOT
BRANCH   1   7
HETATM    7  C2  UNL     1       7.716  10.278   4.124  1.00  0.00     0.061 C 
HETATM    8  C1  UNL     1       8.202  10.609   2.721  1.00  0.00     0.046 C 
HETATM    9  C9  UNL     1       8.672   9.277   4.700  1.00  0.00     0.040 C 
HETATM   10  C10 UNL     1       9.832  10.192   5.118  1.00  0.00     0.029 C 
HETATM   11  C11 UNL     1       9.113  11.483   5.369  1.00  0.00     0.168 C 
HETATM   12  O2  UNL     1       7.804  11.334   4.993  1.00  0.00    -0.380 OA
ENDBRANCH   1   7
BRANCH   4  13
HETATM   13  O1  UNL     1       2.538  10.977   3.455  1.00  0.00    -0.396 OA
ATOM     14  H1  UNL     1       2.238  11.050   4.353  1.00  0.00     0.210 HD
ENDBRANCH   4  13
TORSDOF 2
ENDMDL
MODEL 2
REMARK VINA RESULT: -6.578095563      1.175      2.190
REMARK  2 active torsions:
REMARK  status: ('A' for Active; 'I' for Inactive)
REMARK    1  A    between atoms: C2_2  and  C3_3 
REMARK    2  A    between atoms: C6_6  and  O1_7 
ROOT
HETATM    1  C3  UNL     1       6.248  10.725   3.610  1.00  0.00     0.020 C 
HETATM    2  C4  UNL     1       5.355  10.713   4.810  1.00  0.00     0.010 C 
HETATM    3  C5  UNL     1       4.033  10.047   4.584  1.00  0.00     0.032 C 
HETATM    4  C6  UNL     1       3.364  10.400   3.301  1.00  0.00     0.118 C 
HETATM    5  C7  UNL     1       4.319  10.662   2.166  1.00  0.00     0.032 C 
HETATM    6  C8  UNL     1       5.607   9.910   2.506  1.00  0.00     0.010 C 
ENDROOT
BRANCH   1   7
HETATM    7  C2  UNL     1       7.648  10.262   3.903  1.00  0.00     0.061 C 
HETATM    8  C1  UNL     1       8.149  11.067   5.093  1.00  0.00     0.046 C 
HETATM    9  C9  UNL     1       8.598  10.506   2.769  1.00  0.00     0.040 C 
HETATM   10  C10 UNL     1       9.753   9.571   3.151  1.00  0.00     0.029 C 
HETATM   11  C11 UNL     1       9.032   8.519   3.938  1.00  0.00     0.168 C 
HETATM   12  O2  UNL     1       7.727   8.907   4.093  1.00  0.00    -0.380 OA
ENDBRANCH   1   7
BRANCH   4  13
HETATM   13  O1  UNL     1       2.562   9.315   2.912  1.00  0.00    -0.396 OA
ATOM     14  H1  UNL     1       3.133   8.609   2.631  1.00  0.00     0.210 HD
ENDBRANCH   4  13
TORSDOF 2
ENDMDL
MODEL 3
REMARK VINA RESULT: -6.418187194      1.150      2.027
REMARK  2 active torsions:
REMARK  status: ('A' for Active; 'I' for Inactive)
REMARK    1  A    between atoms: C2_2  and  C3_3 
REMARK    2  A    between atoms: C6_6  and  O1_7 
ROOT
HETATM    1  C3  UNL     1       6.871  10.797   3.686  1.00  0.00     0.020 C 
HETATM    2  C4  UNL     1       6.017  11.126   4.869  1.00  0.00     0.010 C 
HETATM    3  C5  UNL     1       4.686  10.442   4.875  1.00  0.00     0.032 C 
HETATM    4  C6  UNL     1       3.977  10.438   3.565  1.00  0.00     0.118 C 
HETATM    5  C7  UNL     1       4.895  10.366   2.373  1.00  0.00     0.032 C 
HETATM    6  C8  UNL     1       6.191   9.718   2.868  1.00  0.00     0.010 C 
ENDROOT
BRANCH   1   7
HETATM    7  C2  UNL     1       8.278  10.412   4.052  1.00  0.00     0.061 C 
HETATM    8  C1  UNL     1       8.255   8.942   4.441  1.00  0.00     0.046 C 
HETATM    9  C9  UNL     1       8.808  11.175   5.228  1.00  0.00     0.040 C 
HETATM   10  C10 UNL     1      10.315  10.923   5.082  1.00  0.00     0.029 C 
HETATM   11  C11 UNL     1      10.436  10.716   3.603  1.00  0.00     0.168 C 
HETATM   12  O2  UNL     1       9.179  10.698   3.060  1.00  0.00    -0.380 OA
ENDBRANCH   1   7
BRANCH   4  13
HETATM   13  O1  UNL     1       3.158   9.299   3.514  1.00  0.00    -0.396 OA
ATOM     14  H1  UNL     1       3.300   8.868   2.679  1.00  0.00     0.210 HD
ENDBRANCH   4  13
TORSDOF 2
ENDMDL
MODEL 4
REMARK VINA RESULT: -6.018689954      2.123      3.452
REMARK  2 active torsions:
REMARK  status: ('A' for Active; 'I' for Inactive)
REMARK    1  A    between atoms: C2_2  and  C3_3 
REMARK    2  A    between atoms: C6_6  and  O1_7 
ROOT
HETATM    1  C3  UNL     1       8.932  10.868   3.662  1.00  0.00     0.020 C 
HETATM    2  C4  UNL     1       7.749  10.749   4.569  1.00  0.00     0.010 C 
HETATM    3  C5  UNL     1       6.555  10.102   3.939  1.00  0.00     0.032 C 
HETATM    4  C6  UNL     1       6.249  10.564   2.557  1.00  0.00     0.118 C 
HETATM    5  C7  UNL     1       7.467  10.927   1.749  1.00  0.00     0.032 C 
HETATM    6  C8  UNL     1       8.635  10.151   2.362  1.00  0.00     0.010 C 
ENDROOT
BRANCH   1   7
HETATM    7  C2  UNL     1      10.213  10.384   4.284  1.00  0.00     0.061 C 
HETATM    8  C1  UNL     1       9.931  10.133   5.758  1.00  0.00     0.046 C 
HETATM    9  C9  UNL     1      11.321  11.392   4.209  1.00  0.00     0.040 C 
HETATM   10  C10 UNL     1      12.541  10.502   4.481  1.00  0.00     0.029 C 
HETATM   11  C11 UNL     1      12.057   9.176   3.977  1.00  0.00     0.168 C 
HETATM   12  O2  UNL     1      10.735   9.294   3.638  1.00  0.00    -0.380 OA
ENDBRANCH   1   7
BRANCH   4  13
HETATM   13  O1  UNL     1       5.610   9.515   1.876  1.00  0.00    -0.396 OA
ATOM     14  H1  UNL     1       4.900   9.196   2.421  1.00  0.00     0.210 HD
ENDBRANCH   4  13
TORSDOF 2
ENDMDL
MODEL 5
REMARK VINA RESULT: -5.797388165      1.620      4.879
REMARK  2 active torsions:
REMARK  status: ('A' for Active; 'I' for Inactive)
REMARK    1  A    between atoms: C2_2  and  C3_3 
REMARK    2  A    between atoms: C6_6  and  O1_7 
ROOT
HETATM    1  C3  UNL     1       7.649  10.453   4.130  1.00  0.00     0.020 C 
HETATM    2  C4  UNL     1       8.306   9.109   4.124  1.00  0.00     0.010 C 
HETATM    3  C5  UNL     1       9.348   8.930   5.183  1.00  0.00     0.032 C 
HETATM    4  C6  UNL     1      10.272  10.085   5.355  1.00  0.00     0.118 C 
HETATM    5  C7  UNL     1       9.632  11.424   5.097  1.00  0.00     0.032 C 
HETATM    6  C8  UNL     1       8.132  11.236   5.334  1.00  0.00     0.010 C 
ENDROOT
BRANCH   1   7
HETATM    7  C2  UNL     1       6.147  10.384   4.078  1.00  0.00     0.061 C 
HETATM    8  C1  UNL     1       5.740  10.556   2.622  1.00  0.00     0.046 C 
HETATM    9  C9  UNL     1       5.481  11.477   4.858  1.00  0.00     0.040 C 
HETATM   10  C10 UNL     1       4.062  10.912   4.997  1.00  0.00     0.029 C 
HETATM   11  C11 UNL     1       4.325   9.437   4.936  1.00  0.00     0.168 C 
HETATM   12  O2  UNL     1       5.650   9.242   4.649  1.00  0.00    -0.380 OA
ENDBRANCH   1   7
BRANCH   4  13
HETATM   13  O1  UNL     1      10.714  10.099   6.688  1.00  0.00    -0.396 OA
ATOM     14  H1  UNL     1      11.627   9.835   6.701  1.00  0.00     0.210 HD
ENDBRANCH   4  13
TORSDOF 2
ENDMDL
