MODEL 1
REMARK VINA RESULT: -6.419929165      0.000      0.000
REMARK  2 active torsions:
REMARK  status: ('A' for Active; 'I' for Inactive)
REMARK       I    between atoms: C2_2  and  N1_4 
REMARK    1  A    between atoms: N1_4  and  O2_5 
REMARK    2  A    between atoms: N1_4  and  C3_7 
ROOT
HETATM    1  C3  UNL     1       7.368  10.789   3.764  1.00  0.00     0.122 C 
HETATM    2  C4  UNL     1       7.965  11.312   5.052  1.00  0.00     0.033 C 
HETATM    3  C5  UNL     1       9.449  11.092   5.102  1.00  0.00    -0.013 C 
HETATM    4  C6  UNL     1       9.699   9.790   5.811  1.00  0.00     0.005 C 
HETATM    5  C7  UNL     1       8.688   8.729   5.541  1.00  0.00     0.001 C 
HETATM    6  C8  UNL     1       8.353   8.482   4.120  1.00  0.00     0.007 C 
HETATM    7  C9  UNL     1       8.151   9.639   3.234  1.00  0.00     0.011 C 
HETATM    8  C10 UNL     1       9.477  10.219   2.749  1.00  0.00     0.007 C 
HETATM    9  C11 UNL     1      10.101  11.145   3.746  1.00  0.00     0.005 C 
ENDROOT
BRANCH   1  10
HETATM   10  N1  UNL     1       5.953  10.579   3.830  1.00  0.00    -0.224 N 
HETATM   11  C2  UNL     1       5.180  10.176   2.719  1.00  0.00     0.239 C 
HETATM   12  C1  UNL     1       3.698   9.962   2.810  1.00  0.00     0.119 C 
HETATM   13  O1  UNL     1       5.670   9.968   1.574  1.00  0.00    -0.272 OA
BRANCH  10  14
HETATM   14  O2  UNL     1       5.336  10.776   5.006  1.00  0.00    -0.284 OA
ATOM     15  H2  UNL     1       5.771  11.302   5.667  1.00  0.00     0.245 HD
ENDBRANCH  10  14
ENDBRANCH   1  10
TORSDOF 2
ENDMDL
MODEL 2
REMARK VINA RESULT: -6.272875484      8.121      9.861
REMARK  2 active torsions:
REMARK  status: ('A' for Active; 'I' for Inactive)
REMARK       I    between atoms: C2_2  and  N1_4 
REMARK    1  A    between atoms: N1_4  and  O2_5 
REMARK    2  A    between atoms: N1_4  and  C3_7 
ROOT
HETATM    1  C3  UNL     1      14.808  10.893  -2.612  1.00  0.00     0.122 C 
HETATM    2  C4  UNL     1      13.869  12.052  -2.861  1.00  0.00     0.033 C 
HETATM    3  C5  UNL     1      14.174  13.214  -1.961  1.00  0.00    -0.013 C 
HETATM    4  C6  UNL     1      13.299  13.097  -0.744  1.00  0.00     0.005 C 
HETATM    5  C7  UNL     1      13.058  11.700  -0.282  1.00  0.00     0.001 C 
HETATM    6  C8  UNL     1      14.252  10.836  -0.141  1.00  0.00     0.007 C 
HETATM    7  C9  UNL     1      15.274  10.871  -1.197  1.00  0.00     0.011 C 
HETATM    8  C10 UNL     1      16.209  12.067  -1.041  1.00  0.00     0.007 C 
HETATM    9  C11 UNL     1      15.635  13.326  -1.614  1.00  0.00     0.005 C 
ENDROOT
BRANCH   1  10
HETATM   10  N1  UNL     1      14.323   9.641  -3.110  1.00  0.00    -0.224 N 
HETATM   11  C2  UNL     1      15.173   8.582  -3.495  1.00  0.00     0.239 C 
HETATM   12  C1  UNL     1      14.643   7.278  -4.014  1.00  0.00     0.119 C 
HETATM   13  O1  UNL     1      16.433   8.648  -3.435  1.00  0.00    -0.272 OA
BRANCH  10  14
HETATM   14  O2  UNL     1      12.995   9.471  -3.212  1.00  0.00    -0.284 OA
ATOM     15  H2  UNL     1      12.472   9.482  -2.419  1.00  0.00     0.245 HD
ENDBRANCH  10  14
ENDBRANCH   1  10
TORSDOF 2
ENDMDL
MODEL 3
REMARK VINA RESULT: -6.118557114      0.595      1.463
REMARK  2 active torsions:
REMARK  status: ('A' for Active; 'I' for Inactive)
REMARK       I    between atoms: C2_2  and  N1_4 
REMARK    1  A    between atoms: N1_4  and  O2_5 
REMARK    2  A    between atoms: N1_4  and  C3_7 
ROOT
HETATM    1  C3  UNL     1       7.596  10.637   3.329  1.00  0.00     0.122 C 
HETATM    2  C4  UNL     1       7.836  11.154   4.730  1.00  0.00     0.033 C 
HETATM    3  C5  UNL     1       9.289  11.084   5.104  1.00  0.00    -0.013 C 
HETATM    4  C6  UNL     1       9.518   9.781   5.819  1.00  0.00     0.005 C 
HETATM    5  C7  UNL     1       8.713   8.638   5.303  1.00  0.00     0.001 C 
HETATM    6  C8  UNL     1       8.726   8.427   3.838  1.00  0.00     0.007 C 
HETATM    7  C9  UNL     1       8.598   9.599   2.958  1.00  0.00     0.011 C 
HETATM    8  C10 UNL     1       9.926  10.333   2.795  1.00  0.00     0.007 C 
HETATM    9  C11 UNL     1      10.212  11.268   3.929  1.00  0.00     0.005 C 
ENDROOT
BRANCH   1  10
HETATM   10  N1  UNL     1       6.233  10.283   3.072  1.00  0.00    -0.224 N 
HETATM   11  C2  UNL     1       5.213  10.383   4.043  1.00  0.00     0.239 C 
HETATM   12  C1  UNL     1       3.791  10.006   3.752  1.00  0.00     0.119 C 
HETATM   13  O1  UNL     1       5.417  10.792   5.221  1.00  0.00    -0.272 OA
BRANCH  10  14
HETATM   14  O2  UNL     1       5.914   9.835   1.847  1.00  0.00    -0.284 OA
ATOM     15  H2  UNL     1       6.269  10.286   1.090  1.00  0.00     0.245 HD
ENDBRANCH  10  14
ENDBRANCH   1  10
TORSDOF 2
ENDMDL
MODEL 4
REMARK VINA RESULT: -5.999883930      8.042      9.144
REMARK  2 active torsions:
REMARK  status: ('A' for Active; 'I' for Inactive)
REMARK       I    between atoms: C2_2  and  N1_4 
REMARK    1  A    between atoms: N1_4  and  O2_5 
REMARK    2  A    between atoms: N1_4  and  C3_7 
ROOT
HETATM    1  C3  UNL     1      13.796  10.842  -1.568  1.00  0.00     0.122 C 
HETATM    2  C4  UNL     1      13.599  10.954  -0.072  1.00  0.00     0.033 C 
HETATM    3  C5  UNL     1      13.625  12.384   0.383  1.00  0.00    -0.013 C 
HETATM    4  C6  UNL     1      15.032  12.710   0.800  1.00  0.00     0.005 C 
HETATM    5  C7  UNL     1      16.092  12.056  -0.019  1.00  0.00     0.001 C 
HETATM    6  C8  UNL     1      15.954  12.168  -1.489  1.00  0.00     0.007 C 
HETATM    7  C9  UNL     1      14.626  11.964  -2.088  1.00  0.00     0.011 C 
HETATM    8  C10 UNL     1      13.759  13.216  -1.982  1.00  0.00     0.007 C 
HETATM    9  C11 UNL     1      13.091  13.343  -0.648  1.00  0.00     0.005 C 
ENDROOT
BRANCH   1  10
HETATM   10  N1  UNL     1      14.201   9.538  -1.999  1.00  0.00    -0.224 N 
HETATM   11  C2  UNL     1      13.600   8.862  -3.082  1.00  0.00     0.239 C 
HETATM   12  C1  UNL     1      14.040   7.496  -3.518  1.00  0.00     0.119 C 
HETATM   13  O1  UNL     1      12.652   9.348  -3.762  1.00  0.00    -0.272 OA
BRANCH  10  14
HETATM   14  O2  UNL     1      15.203   8.935  -1.340  1.00  0.00    -0.284 OA
ATOM     15  H2  UNL     1      15.996   8.718  -1.815  1.00  0.00     0.245 HD
ENDBRANCH  10  14
ENDBRANCH   1  10
TORSDOF 2
ENDMDL
MODEL 5
REMARK VINA RESULT: -5.984540764      3.214      5.013
REMARK  2 active torsions:
REMARK  status: ('A' for Active; 'I' for Inactive)
REMARK       I    between atoms: C2_2  and  N1_4 
REMARK    1  A    between atoms: N1_4  and  O2_5 
REMARK    2  A    between atoms: N1_4  and  C3_7 
ROOT
HETATM    1  C3  UNL     1      10.390  10.180   3.593  1.00  0.00     0.122 C 
HETATM    2  C4  UNL     1       9.630  11.101   4.522  1.00  0.00     0.033 C 
HETATM    3  C5  UNL     1       8.413  10.431   5.091  1.00  0.00    -0.013 C 
HETATM    4  C6  UNL     1       7.245  10.772   4.209  1.00  0.00     0.005 C 
HETATM    5  C7  UNL     1       7.567  10.866   2.757  1.00  0.00     0.001 C 
HETATM    6  C8  UNL     1       8.336   9.742   2.176  1.00  0.00     0.007 C 
HETATM    7  C9  UNL     1       9.477   9.205   2.934  1.00  0.00     0.011 C 
HETATM    8  C10 UNL     1       9.027   8.241   4.028  1.00  0.00     0.007 C 
HETATM    9  C11 UNL     1       8.586   8.946   5.273  1.00  0.00     0.005 C 
ENDROOT
BRANCH   1  10
HETATM   10  N1  UNL     1      11.286  10.864   2.710  1.00  0.00    -0.224 N 
HETATM   11  C2  UNL     1      12.526  11.396   3.127  1.00  0.00     0.239 C 
HETATM   12  C1  UNL     1      13.449  12.109   2.185  1.00  0.00     0.119 C 
HETATM   13  O1  UNL     1      12.949  11.314   4.315  1.00  0.00    -0.272 OA
BRANCH  10  14
HETATM   14  O2  UNL     1      10.926  11.004   1.424  1.00  0.00    -0.284 OA
ATOM     15  H2  UNL     1      10.857  10.226   0.883  1.00  0.00     0.245 HD
ENDBRANCH  10  14
ENDBRANCH   1  10
TORSDOF 2
ENDMDL
