MODEL 1
REMARK VINA RESULT: -6.585047347      0.000      0.000
REMARK  2 active torsions:
REMARK  status: ('A' for Active; 'I' for Inactive)
REMARK    1  A    between atoms: C1_1  and  C8_11 
REMARK    2  A    between atoms: N1_2  and  N2_4 
ROOT
HETATM    1  C1  UNL     1      10.434  10.413   2.949  1.00  0.00     0.085 C 
HETATM    2  N1  UNL     1      10.824  10.830   1.787  1.00  0.00    -0.314 N 
ATOM      3  H1  UNL     1      10.158  10.905   1.018  1.00  0.00     0.185 HD
ENDROOT
BRANCH   2   4
HETATM    4  N2  UNL     1      12.157  11.173   1.594  1.00  0.00    -0.308 N 
HETATM    5  C2  UNL     1      12.503  11.709   0.338  1.00  0.00     0.083 C 
HETATM    6  C3  UNL     1      13.456  12.841   0.309  1.00  0.00     0.046 C 
HETATM    7  C4  UNL     1      13.438  13.823   1.386  1.00  0.00     0.005 C 
HETATM    8  C5  UNL     1      12.984  13.340   2.738  1.00  0.00     0.002 C 
HETATM    9  C6  UNL     1      13.817  12.113   3.133  1.00  0.00     0.022 C 
HETATM   10  C7  UNL     1      12.976  10.914   2.752  1.00  0.00     0.147 C 
ENDBRANCH   2   4
BRANCH   1  11
HETATM   11  C8  UNL     1       9.021  10.038   3.192  1.00  0.00     0.025 C 
HETATM   12  C9  UNL     1       8.123  10.442   2.041  1.00  0.00     0.010 C 
HETATM   13  C10 UNL     1       6.761  10.649   2.667  1.00  0.00     0.001 C 
HETATM   14  C11 UNL     1       6.938  10.541   4.148  1.00  0.00     0.001 C 
HETATM   15  C12 UNL     1       8.418  10.796   4.342  1.00  0.00     0.010 C 
ENDBRANCH   1  11
TORSDOF 2
ENDMDL
MODEL 2
REMARK VINA RESULT: -6.564707854      1.025      1.510
REMARK  2 active torsions:
REMARK  status: ('A' for Active; 'I' for Inactive)
REMARK    1  A    between atoms: C1_1  and  C8_11 
REMARK    2  A    between atoms: N1_2  and  N2_4 
ROOT
HETATM    1  C1  UNL     1      11.412  10.956   2.853  1.00  0.00     0.085 C 
HETATM    2  N1  UNL     1      11.627  11.005   1.577  1.00  0.00    -0.314 N 
ATOM      3  H1  UNL     1      10.932  10.642   0.925  1.00  0.00     0.185 HD
ENDROOT
BRANCH   2   4
HETATM    4  N2  UNL     1      12.813  11.555   1.102  1.00  0.00    -0.308 N 
HETATM    5  C2  UNL     1      13.174  11.246  -0.223  1.00  0.00     0.083 C 
HETATM    6  C3  UNL     1      13.743  12.331  -1.055  1.00  0.00     0.046 C 
HETATM    7  C4  UNL     1      13.270  13.698  -0.873  1.00  0.00     0.005 C 
HETATM    8  C5  UNL     1      12.777  14.069   0.500  1.00  0.00     0.002 C 
HETATM    9  C6  UNL     1      13.863  13.728   1.528  1.00  0.00     0.022 C 
HETATM   10  C7  UNL     1      13.483  12.372   2.083  1.00  0.00     0.147 C 
ENDBRANCH   2   4
BRANCH   1  11
HETATM   11  C8  UNL     1      10.160  10.377   3.395  1.00  0.00     0.025 C 
HETATM   12  C9  UNL     1       9.030  10.432   2.389  1.00  0.00     0.010 C 
HETATM   13  C10 UNL     1       7.769  10.487   3.224  1.00  0.00     0.001 C 
HETATM   14  C11 UNL     1       8.195  10.642   4.649  1.00  0.00     0.001 C 
HETATM   15  C12 UNL     1       9.604  11.184   4.535  1.00  0.00     0.010 C 
ENDBRANCH   1  11
TORSDOF 2
ENDMDL
MODEL 3
REMARK VINA RESULT: -6.395638569      1.271      5.683
REMARK  2 active torsions:
REMARK  status: ('A' for Active; 'I' for Inactive)
REMARK    1  A    between atoms: C1_1  and  C8_11 
REMARK    2  A    between atoms: N1_2  and  N2_4 
ROOT
HETATM    1  C1  UNL     1      12.191  11.589   3.123  1.00  0.00     0.085 C 
HETATM    2  N1  UNL     1      11.152  10.860   2.869  1.00  0.00    -0.314 N 
ATOM      3  H1  UNL     1      10.902  10.641   1.905  1.00  0.00     0.185 HD
ENDROOT
BRANCH   2   4
HETATM    4  N2  UNL     1      10.381  10.376   3.920  1.00  0.00    -0.308 N 
HETATM    5  C2  UNL     1      10.010  11.299   4.916  1.00  0.00     0.083 C 
HETATM    6  C3  UNL     1       8.633  11.219   5.454  1.00  0.00     0.046 C 
HETATM    7  C4  UNL     1       7.539  10.829   4.572  1.00  0.00     0.005 C 
HETATM    8  C5  UNL     1       7.885   9.918   3.424  1.00  0.00     0.002 C 
HETATM    9  C6  UNL     1       8.611   8.682   3.972  1.00  0.00     0.022 C 
HETATM   10  C7  UNL     1      10.087   8.970   3.799  1.00  0.00     0.147 C 
ENDBRANCH   2   4
BRANCH   1  11
HETATM   11  C8  UNL     1      13.037  12.122   2.028  1.00  0.00     0.025 C 
HETATM   12  C9  UNL     1      13.219  13.622   2.134  1.00  0.00     0.010 C 
HETATM   13  C10 UNL     1      13.451  14.084   0.712  1.00  0.00     0.001 C 
HETATM   14  C11 UNL     1      13.223  12.903  -0.176  1.00  0.00     0.001 C 
HETATM   15  C12 UNL     1      12.385  11.979   0.681  1.00  0.00     0.010 C 
ENDBRANCH   1  11
TORSDOF 2
ENDMDL
MODEL 4
REMARK VINA RESULT: -6.370069789      1.478      2.037
REMARK  2 active torsions:
REMARK  status: ('A' for Active; 'I' for Inactive)
REMARK    1  A    between atoms: C1_1  and  C8_11 
REMARK    2  A    between atoms: N1_2  and  N2_4 
ROOT
HETATM    1  C1  UNL     1      11.268  10.885   2.640  1.00  0.00     0.085 C 
HETATM    2  N1  UNL     1      11.511  11.081   1.383  1.00  0.00    -0.314 N 
ATOM      3  H1  UNL     1      10.803  10.861   0.683  1.00  0.00     0.185 HD
ENDROOT
BRANCH   2   4
HETATM    4  N2  UNL     1      12.743  11.596   0.996  1.00  0.00    -0.308 N 
HETATM    5  C2  UNL     1      13.204  11.249  -0.289  1.00  0.00     0.083 C 
HETATM    6  C3  UNL     1      13.863  12.303  -1.094  1.00  0.00     0.046 C 
HETATM    7  C4  UNL     1      13.407  13.683  -0.982  1.00  0.00     0.005 C 
HETATM    8  C5  UNL     1      12.812  14.096   0.339  1.00  0.00     0.002 C 
HETATM    9  C6  UNL     1      13.803  13.756   1.459  1.00  0.00     0.022 C 
HETATM   10  C7  UNL     1      13.349  12.422   2.010  1.00  0.00     0.147 C 
ENDBRANCH   2   4
BRANCH   1  11
HETATM   11  C8  UNL     1       9.966  10.337   3.090  1.00  0.00     0.025 C 
HETATM   12  C9  UNL     1       9.465  11.028   4.341  1.00  0.00     0.010 C 
HETATM   13  C10 UNL     1       8.604   9.995   5.035  1.00  0.00     0.001 C 
HETATM   14  C11 UNL     1       8.769   8.712   4.286  1.00  0.00     0.001 C 
HETATM   15  C12 UNL     1      10.074   8.907   3.542  1.00  0.00     0.010 C 
ENDBRANCH   1  11
TORSDOF 2
ENDMDL
MODEL 5
REMARK VINA RESULT: -6.354092241      2.815      4.262
REMARK  2 active torsions:
REMARK  status: ('A' for Active; 'I' for Inactive)
REMARK    1  A    between atoms: C1_1  and  C8_11 
REMARK    2  A    between atoms: N1_2  and  N2_4 
ROOT
HETATM    1  C1  UNL     1       6.732  10.516   4.012  1.00  0.00     0.085 C 
HETATM    2  N1  UNL     1       7.555   9.830   3.286  1.00  0.00    -0.314 N 
ATOM      3  H1  UNL     1       7.258   9.459   2.383  1.00  0.00     0.185 HD
ENDROOT
BRANCH   2   4
HETATM    4  N2  UNL     1       8.849   9.604   3.744  1.00  0.00    -0.308 N 
HETATM    5  C2  UNL     1       9.889   9.725   2.803  1.00  0.00     0.083 C 
HETATM    6  C3  UNL     1      11.140  10.388   3.237  1.00  0.00     0.046 C 
HETATM    7  C4  UNL     1      11.075  11.488   4.193  1.00  0.00     0.005 C 
HETATM    8  C5  UNL     1       9.928  11.472   5.169  1.00  0.00     0.002 C 
HETATM    9  C6  UNL     1       9.909  10.119   5.892  1.00  0.00     0.022 C 
HETATM   10  C7  UNL     1       8.897   9.276   5.147  1.00  0.00     0.147 C 
ENDBRANCH   2   4
BRANCH   1  11
HETATM   11  C8  UNL     1       5.345  10.777   3.556  1.00  0.00     0.025 C 
HETATM   12  C9  UNL     1       4.321  10.128   4.463  1.00  0.00     0.010 C 
HETATM   13  C10 UNL     1       3.123   9.873   3.574  1.00  0.00     0.001 C 
HETATM   14  C11 UNL     1       3.537  10.204   2.175  1.00  0.00     0.001 C 
HETATM   15  C12 UNL     1       5.049  10.130   2.232  1.00  0.00     0.010 C 
ENDBRANCH   1  11
TORSDOF 2
ENDMDL
