MODEL 1
REMARK VINA RESULT: -8.662223455      0.000      0.000
REMARK  12 active torsions:
REMARK  status: ('A' for Active; 'I' for Inactive)
REMARK    1  A    between atoms: C2_5  and  N3_6 
REMARK    2  A    between atoms: N3_6  and  N4_8 
REMARK    3  A    between atoms: C3_13  and  N6_14 
REMARK    4  A    between atoms: N6_14  and  N7_15 
REMARK    5  A    between atoms: C4_17  and  C5_18 
REMARK    6  A    between atoms: C6_21  and  N9_22 
REMARK    7  A    between atoms: N9_22  and  C7_24 
REMARK    8  A    between atoms: C7_24  and  C8_25 
REMARK    9  A    between atoms: C11_28  and  C12_29 
REMARK   10  A    between atoms: C12_29  and  O1_30 
REMARK   11  A    between atoms: C17_41  and  N12_42 
REMARK   12  A    between atoms: C19_46  and  N13_47 
ROOT
HETATM    1  C5  UNL     1      -2.534   5.642  52.975  1.00  0.00     0.085 A 
HETATM    2  N8  UNL     1      -2.761   6.995  52.992  1.00  0.00    -0.338 N 
ATOM      3  H8  UNL     1      -2.665   7.501  53.872  1.00  0.00     0.167 HD
HETATM    4  C6  UNL     1      -3.118   7.695  51.851  1.00  0.00     0.135 A 
HETATM    5  C17 UNL     1      -3.246   7.007  50.646  1.00  0.00     0.148 A 
HETATM    6  C18 UNL     1      -2.977   5.630  50.686  1.00  0.00     0.078 A 
HETATM    7  C19 UNL     1      -2.614   4.937  51.813  1.00  0.00     0.133 A 
ENDROOT
BRANCH   4   8
HETATM    8  N9  UNL     1      -3.417   9.079  51.977  1.00  0.00    -0.370 N 
ATOM      9  H9  UNL     1      -4.363   9.364  52.230  1.00  0.00     0.161 HD
BRANCH   8  10
HETATM   10  C7  UNL     1      -2.411  10.089  51.756  1.00  0.00     0.161 C 
BRANCH  10  11
HETATM   11  C8  UNL     1      -2.892  11.165  50.864  1.00  0.00    -0.025 A 
HETATM   12  C9  UNL     1      -3.498  10.933  49.665  1.00  0.00     0.012 A 
HETATM   13  C10 UNL     1      -4.016  12.034  48.943  1.00  0.00     0.029 A 
HETATM   14  C11 UNL     1      -3.919  13.294  49.416  1.00  0.00     0.045 A 
HETATM   15  N11 UNL     1      -3.322  13.490  50.588  1.00  0.00    -0.366 N 
HETATM   16  C16 UNL     1      -2.807  12.478  51.323  1.00  0.00     0.097 A 
ATOM     17  H11 UNL     1      -3.250  14.442  50.947  1.00  0.00     0.165 HD
BRANCH  14  18
HETATM   18  C12 UNL     1      -4.519  14.384  48.616  1.00  0.00     0.125 C 
HETATM   19  C13 UNL     1      -3.692  14.926  47.507  1.00  0.00     0.073 C 
HETATM   20  C14 UNL     1      -4.147  16.457  47.447  1.00  0.00     0.235 C 
HETATM   21  N10 UNL     1      -5.114  16.592  48.515  1.00  0.00    -0.072 N 
HETATM   22  C15 UNL     1      -4.722  15.603  49.468  1.00  0.00     0.276 C 
ATOM     23 2H10 UNL     1      -5.188  17.535  48.897  1.00  0.00     0.277 HD
ATOM     24 1H10 UNL     1      -6.086  16.519  48.212  1.00  0.00     0.277 HD
BRANCH  18  25
HETATM   25  O1  UNL     1      -5.767  14.039  48.140  1.00  0.00    -0.382 OA
ATOM     26  H1  UNL     1      -5.787  14.017  47.190  1.00  0.00     0.211 HD
ENDBRANCH  18  25
ENDBRANCH  14  18
ENDBRANCH  10  11
ENDBRANCH   8  10
ENDBRANCH   4   8
BRANCH   5  27
HETATM   27  N12 UNL     1      -3.707   7.581  49.453  1.00  0.00    -0.112 N 
HETATM   28  O2  UNL     1      -3.113   7.676  48.434  1.00  0.00    -0.532 OA
HETATM   29  O3  UNL     1      -5.022   8.106  49.554  1.00  0.00    -0.532 OA
ENDBRANCH   5  27
BRANCH   1  30
HETATM   30  C4  UNL     1      -2.766   4.969  54.246  1.00  0.00     0.153 C 
HETATM   31  N7  UNL     1      -2.820   5.447  55.412  1.00  0.00    -0.241 N 
ATOM     32  H7  UNL     1      -3.003   4.701  56.083  1.00  0.00     0.201 HD
BRANCH  31  33
HETATM   33  N6  UNL     1      -2.720   6.540  56.010  1.00  0.00    -0.286 NA
BRANCH  33  34
HETATM   34  C3  UNL     1      -2.633   7.594  56.622  1.00  0.00     0.312 A 
HETATM   35  N1  UNL     1      -2.237   7.898  57.909  1.00  0.00    -0.238 N 
HETATM   36  C1  UNL     1      -1.995   6.880  58.952  1.00  0.00     0.183 C 
HETATM   37  N2  UNL     1      -2.128   9.178  58.038  1.00  0.00    -0.125 N 
HETATM   38  C2  UNL     1      -2.401   9.795  56.895  1.00  0.00     0.714 A 
ATOM     39  H2  UNL     1      -1.868   9.652  58.902  1.00  0.00     0.206 HD
HETATM   40  N5  UNL     1      -2.726   8.878  56.020  1.00  0.00    -0.143 N 
ATOM     41  H5  UNL     1      -3.003   9.058  55.055  1.00  0.00     0.188 HD
BRANCH  38  42
HETATM   42  N3  UNL     1      -2.264  11.068  56.664  1.00  0.00    -0.137 N 
ATOM     43  H3  UNL     1      -1.512  11.406  56.064  1.00  0.00     0.205 HD
BRANCH  42  44
HETATM   44  N4  UNL     1      -3.150  11.955  57.240  1.00  0.00    -0.331 N 
ATOM     45  H42 UNL     1      -3.876  11.605  57.864  1.00  0.00     0.177 HD
ATOM     46  H41 UNL     1      -3.063  12.950  57.031  1.00  0.00     0.177 HD
ENDBRANCH  42  44
ENDBRANCH  38  42
ENDBRANCH  33  34
ENDBRANCH  31  33
ENDBRANCH   1  30
BRANCH   7  47
HETATM   47  N13 UNL     1      -2.112   3.624  51.610  1.00  0.00    -0.113 N 
HETATM   48  O4  UNL     1      -1.067   3.423  50.977  1.00  0.00    -0.532 OA
HETATM   49  O5  UNL     1      -2.904   2.537  52.045  1.00  0.00    -0.532 OA
ENDBRANCH   7  47
TORSDOF 12
ENDMDL
MODEL 2
REMARK VINA RESULT: -8.217832031      1.039      1.574
REMARK  12 active torsions:
REMARK  status: ('A' for Active; 'I' for Inactive)
REMARK    1  A    between atoms: C2_5  and  N3_6 
REMARK    2  A    between atoms: N3_6  and  N4_8 
REMARK    3  A    between atoms: C3_13  and  N6_14 
REMARK    4  A    between atoms: N6_14  and  N7_15 
REMARK    5  A    between atoms: C4_17  and  C5_18 
REMARK    6  A    between atoms: C6_21  and  N9_22 
REMARK    7  A    between atoms: N9_22  and  C7_24 
REMARK    8  A    between atoms: C7_24  and  C8_25 
REMARK    9  A    between atoms: C11_28  and  C12_29 
REMARK   10  A    between atoms: C12_29  and  O1_30 
REMARK   11  A    between atoms: C17_41  and  N12_42 
REMARK   12  A    between atoms: C19_46  and  N13_47 
ROOT
HETATM    1  C5  UNL     1      -2.490   6.484  53.047  1.00  0.00     0.085 A 
HETATM    2  N8  UNL     1      -2.738   7.824  52.886  1.00  0.00    -0.338 N 
ATOM      3  H8  UNL     1      -2.544   8.459  53.661  1.00  0.00     0.167 HD
HETATM    4  C6  UNL     1      -3.245   8.342  51.705  1.00  0.00     0.135 A 
HETATM    5  C17 UNL     1      -3.507   7.478  50.644  1.00  0.00     0.148 A 
HETATM    6  C18 UNL     1      -3.210   6.123  50.858  1.00  0.00     0.078 A 
HETATM    7  C19 UNL     1      -2.699   5.610  52.024  1.00  0.00     0.133 A 
ENDROOT
BRANCH   4   8
HETATM    8  N9  UNL     1      -3.551   9.729  51.657  1.00  0.00    -0.370 N 
ATOM      9  H9  UNL     1      -4.518  10.032  51.778  1.00  0.00     0.161 HD
BRANCH   8  10
HETATM   10  C7  UNL     1      -2.524  10.719  51.440  1.00  0.00     0.161 C 
BRANCH  10  11
HETATM   11  C8  UNL     1      -2.973  11.794  50.531  1.00  0.00    -0.025 A 
HETATM   12  C9  UNL     1      -3.566  11.561  49.325  1.00  0.00     0.012 A 
HETATM   13  C10 UNL     1      -4.054  12.664  48.586  1.00  0.00     0.029 A 
HETATM   14  C11 UNL     1      -3.941  13.926  49.047  1.00  0.00     0.045 A 
HETATM   15  N11 UNL     1      -3.357  14.124  50.226  1.00  0.00    -0.366 N 
HETATM   16  C16 UNL     1      -2.871  13.110  50.977  1.00  0.00     0.097 A 
ATOM     17  H11 UNL     1      -3.273  15.078  50.576  1.00  0.00     0.165 HD
BRANCH  14  18
HETATM   18  C12 UNL     1      -4.510  15.019  48.228  1.00  0.00     0.125 C 
HETATM   19  C13 UNL     1      -3.547  15.818  47.425  1.00  0.00     0.073 C 
HETATM   20  C14 UNL     1      -4.228  17.263  47.397  1.00  0.00     0.235 C 
HETATM   21  N10 UNL     1      -5.431  17.115  48.190  1.00  0.00    -0.072 N 
HETATM   22  C15 UNL     1      -5.114  16.072  49.112  1.00  0.00     0.276 C 
ATOM     23 2H10 UNL     1      -5.752  17.978  48.628  1.00  0.00     0.277 HD
ATOM     24 1H10 UNL     1      -6.275  16.947  47.642  1.00  0.00     0.277 HD
BRANCH  18  25
HETATM   25  O1  UNL     1      -5.531  14.570  47.418  1.00  0.00    -0.382 OA
ATOM     26  H1  UNL     1      -6.296  15.132  47.471  1.00  0.00     0.211 HD
ENDBRANCH  18  25
ENDBRANCH  14  18
ENDBRANCH  10  11
ENDBRANCH   8  10
ENDBRANCH   4   8
BRANCH   5  27
HETATM   27  N12 UNL     1      -4.121   7.863  49.444  1.00  0.00    -0.112 N 
HETATM   28  O2  UNL     1      -5.197   8.339  49.317  1.00  0.00    -0.532 OA
HETATM   29  O3  UNL     1      -3.326   7.603  48.297  1.00  0.00    -0.532 OA
ENDBRANCH   5  27
BRANCH   1  30
HETATM   30  C4  UNL     1      -2.552   6.014  54.424  1.00  0.00     0.153 C 
HETATM   31  N7  UNL     1      -2.557   6.671  55.500  1.00  0.00    -0.241 N 
ATOM     32  H7  UNL     1      -2.613   6.034  56.294  1.00  0.00     0.201 HD
BRANCH  31  33
HETATM   33  N6  UNL     1      -2.516   7.853  55.907  1.00  0.00    -0.286 NA
BRANCH  33  34
HETATM   34  C3  UNL     1      -2.461   9.016  56.277  1.00  0.00     0.312 A 
HETATM   35  N1  UNL     1      -1.843  10.135  55.757  1.00  0.00    -0.238 N 
HETATM   36  C1  UNL     1      -0.881  10.090  54.636  1.00  0.00     0.183 C 
HETATM   37  N2  UNL     1      -2.231  11.184  56.401  1.00  0.00    -0.125 N 
HETATM   38  C2  UNL     1      -3.117  10.866  57.335  1.00  0.00     0.714 A 
ATOM     39  H2  UNL     1      -1.901  12.131  56.216  1.00  0.00     0.206 HD
HETATM   40  N5  UNL     1      -3.272   9.567  57.306  1.00  0.00    -0.143 N 
ATOM     41  H5  UNL     1      -3.881   9.033  57.926  1.00  0.00     0.188 HD
BRANCH  38  42
HETATM   42  N3  UNL     1      -3.786  11.706  58.070  1.00  0.00    -0.137 N 
ATOM     43  H3  UNL     1      -3.568  12.701  58.045  1.00  0.00     0.205 HD
BRANCH  42  44
HETATM   44  N4  UNL     1      -4.796  11.233  58.882  1.00  0.00    -0.331 N 
ATOM     45  H42 UNL     1      -5.159  10.291  58.735  1.00  0.00     0.177 HD
ATOM     46  H41 UNL     1      -5.164  11.835  59.619  1.00  0.00     0.177 HD
ENDBRANCH  42  44
ENDBRANCH  38  42
ENDBRANCH  33  34
ENDBRANCH  31  33
ENDBRANCH   1  30
BRANCH   7  47
HETATM   47  N13 UNL     1      -2.202   4.281  51.962  1.00  0.00    -0.113 N 
HETATM   48  O4  UNL     1      -1.176   4.004  51.325  1.00  0.00    -0.532 OA
HETATM   49  O5  UNL     1      -2.980   3.255  52.546  1.00  0.00    -0.532 OA
ENDBRANCH   7  47
TORSDOF 12
ENDMDL
MODEL 3
REMARK VINA RESULT: -7.989880109      3.141      5.501
REMARK  12 active torsions:
REMARK  status: ('A' for Active; 'I' for Inactive)
REMARK    1  A    between atoms: C2_5  and  N3_6 
REMARK    2  A    between atoms: N3_6  and  N4_8 
REMARK    3  A    between atoms: C3_13  and  N6_14 
REMARK    4  A    between atoms: N6_14  and  N7_15 
REMARK    5  A    between atoms: C4_17  and  C5_18 
REMARK    6  A    between atoms: C6_21  and  N9_22 
REMARK    7  A    between atoms: N9_22  and  C7_24 
REMARK    8  A    between atoms: C7_24  and  C8_25 
REMARK    9  A    between atoms: C11_28  and  C12_29 
REMARK   10  A    between atoms: C12_29  and  O1_30 
REMARK   11  A    between atoms: C17_41  and  N12_42 
REMARK   12  A    between atoms: C19_46  and  N13_47 
ROOT
HETATM    1  C5  UNL     1      -2.476   7.017  56.484  1.00  0.00     0.085 A 
HETATM    2  N8  UNL     1      -2.801   7.726  55.356  1.00  0.00    -0.338 N 
ATOM      3  H8  UNL     1      -2.997   7.218  54.493  1.00  0.00     0.167 HD
HETATM    4  C6  UNL     1      -2.870   9.110  55.351  1.00  0.00     0.135 A 
HETATM    5  C17 UNL     1      -2.606   9.805  56.529  1.00  0.00     0.148 A 
HETATM    6  C18 UNL     1      -2.304   9.025  57.656  1.00  0.00     0.078 A 
HETATM    7  C19 UNL     1      -2.244   7.654  57.665  1.00  0.00     0.133 A 
ENDROOT
BRANCH   4   8
HETATM    8  N9  UNL     1      -3.130   9.765  54.117  1.00  0.00    -0.370 N 
ATOM      9  H9  UNL     1      -4.083   9.783  53.751  1.00  0.00     0.161 HD
BRANCH   8  10
HETATM   10  C7  UNL     1      -2.076  10.407  53.370  1.00  0.00     0.161 C 
BRANCH  10  11
HETATM   11  C8  UNL     1      -2.547  10.899  52.058  1.00  0.00    -0.025 A 
HETATM   12  C9  UNL     1      -2.696  10.098  50.964  1.00  0.00     0.012 A 
HETATM   13  C10 UNL     1      -3.257  10.653  49.789  1.00  0.00     0.029 A 
HETATM   14  C11 UNL     1      -3.638  11.946  49.734  1.00  0.00     0.045 A 
HETATM   15  N11 UNL     1      -3.480  12.703  50.816  1.00  0.00    -0.366 N 
HETATM   16  C16 UNL     1      -2.950  12.230  51.967  1.00  0.00     0.097 A 
ATOM     17  H11 UNL     1      -3.770  13.680  50.776  1.00  0.00     0.165 HD
BRANCH  14  18
HETATM   18  C12 UNL     1      -4.249  12.437  48.480  1.00  0.00     0.125 C 
HETATM   19  C13 UNL     1      -3.945  13.841  48.099  1.00  0.00     0.073 C 
HETATM   20  C14 UNL     1      -5.275  14.294  47.337  1.00  0.00     0.235 C 
HETATM   21  N10 UNL     1      -6.148  13.141  47.412  1.00  0.00    -0.072 N 
HETATM   22  C15 UNL     1      -5.744  12.475  48.609  1.00  0.00     0.276 C 
ATOM     23 2H10 UNL     1      -7.142  13.366  47.372  1.00  0.00     0.277 HD
ATOM     24 1H10 UNL     1      -6.134  12.551  46.580  1.00  0.00     0.277 HD
BRANCH  18  25
HETATM   25  O1  UNL     1      -3.979  11.598  47.419  1.00  0.00    -0.382 OA
ATOM     26  H1  UNL     1      -4.115  12.032  46.585  1.00  0.00     0.211 HD
ENDBRANCH  18  25
ENDBRANCH  14  18
ENDBRANCH  10  11
ENDBRANCH   8  10
ENDBRANCH   4   8
BRANCH   5  27
HETATM   27  N12 UNL     1      -2.536  11.202  56.624  1.00  0.00    -0.112 N 
HETATM   28  O2  UNL     1      -1.646  11.840  57.071  1.00  0.00    -0.532 OA
HETATM   29  O3  UNL     1      -3.698  11.857  56.138  1.00  0.00    -0.532 OA
ENDBRANCH   5  27
BRANCH   1  30
HETATM   30  C4  UNL     1      -1.866   5.718  56.233  1.00  0.00     0.153 C 
HETATM   31  N7  UNL     1      -1.813   5.045  55.167  1.00  0.00    -0.241 N 
ATOM     32  H7  UNL     1      -1.307   4.175  55.332  1.00  0.00     0.201 HD
BRANCH  31  33
HETATM   33  N6  UNL     1      -2.183   5.101  53.974  1.00  0.00    -0.286 NA
BRANCH  33  34
HETATM   34  C3  UNL     1      -2.532   5.127  52.803  1.00  0.00     0.312 A 
HETATM   35  N1  UNL     1      -3.047   4.163  51.960  1.00  0.00    -0.238 N 
HETATM   36  C1  UNL     1      -3.108   2.726  52.301  1.00  0.00     0.183 C 
HETATM   37  N2  UNL     1      -3.443   4.714  50.862  1.00  0.00    -0.125 N 
HETATM   38  C2  UNL     1      -3.259   6.028  50.898  1.00  0.00     0.714 A 
ATOM     39  H2  UNL     1      -3.844   4.209  50.073  1.00  0.00     0.206 HD
HETATM   40  N5  UNL     1      -2.697   6.316  52.044  1.00  0.00    -0.143 N 
ATOM     41  H5  UNL     1      -2.420   7.251  52.345  1.00  0.00     0.188 HD
BRANCH  38  42
HETATM   42  N3  UNL     1      -3.664   6.880  50.002  1.00  0.00    -0.137 N 
ATOM     43  H3  UNL     1      -3.126   7.026  49.148  1.00  0.00     0.205 HD
BRANCH  42  44
HETATM   44  N4  UNL     1      -4.830   7.583  50.221  1.00  0.00    -0.331 N 
ATOM     45  H42 UNL     1      -5.363   7.418  51.075  1.00  0.00     0.177 HD
ATOM     46  H41 UNL     1      -5.142   8.258  49.523  1.00  0.00     0.177 HD
ENDBRANCH  42  44
ENDBRANCH  38  42
ENDBRANCH  33  34
ENDBRANCH  31  33
ENDBRANCH   1  30
BRANCH   7  47
HETATM   47  N13 UNL     1      -2.204   7.034  58.942  1.00  0.00    -0.113 N 
HETATM   48  O4  UNL     1      -2.565   7.636  59.963  1.00  0.00    -0.532 OA
HETATM   49  O5  UNL     1      -1.624   5.750  59.036  1.00  0.00    -0.532 OA
ENDBRANCH   7  47
TORSDOF 12
ENDMDL
MODEL 4
REMARK VINA RESULT: -7.904986195      0.792      1.307
REMARK  12 active torsions:
REMARK  status: ('A' for Active; 'I' for Inactive)
REMARK    1  A    between atoms: C2_5  and  N3_6 
REMARK    2  A    between atoms: N3_6  and  N4_8 
REMARK    3  A    between atoms: C3_13  and  N6_14 
REMARK    4  A    between atoms: N6_14  and  N7_15 
REMARK    5  A    between atoms: C4_17  and  C5_18 
REMARK    6  A    between atoms: C6_21  and  N9_22 
REMARK    7  A    between atoms: N9_22  and  C7_24 
REMARK    8  A    between atoms: C7_24  and  C8_25 
REMARK    9  A    between atoms: C11_28  and  C12_29 
REMARK   10  A    between atoms: C12_29  and  O1_30 
REMARK   11  A    between atoms: C17_41  and  N12_42 
REMARK   12  A    between atoms: C19_46  and  N13_47 
ROOT
HETATM    1  C5  UNL     1      -2.332   5.714  52.805  1.00  0.00     0.085 A 
HETATM    2  N8  UNL     1      -2.547   7.068  52.855  1.00  0.00    -0.338 N 
ATOM      3  H8  UNL     1      -2.330   7.572  53.715  1.00  0.00     0.167 HD
HETATM    4  C6  UNL     1      -3.051   7.774  51.773  1.00  0.00     0.135 A 
HETATM    5  C17 UNL     1      -3.344   7.089  50.596  1.00  0.00     0.148 A 
HETATM    6  C18 UNL     1      -3.079   5.710  50.596  1.00  0.00     0.078 A 
HETATM    7  C19 UNL     1      -2.572   5.013  51.663  1.00  0.00     0.133 A 
ENDROOT
BRANCH   4   8
HETATM    8  N9  UNL     1      -3.322   9.158  51.942  1.00  0.00    -0.370 N 
ATOM      9  H9  UNL     1      -4.204   9.447  52.365  1.00  0.00     0.161 HD
BRANCH   8  10
HETATM   10  C7  UNL     1      -2.376  10.166  51.527  1.00  0.00     0.161 C 
BRANCH  10  11
HETATM   11  C8  UNL     1      -3.021  11.244  50.748  1.00  0.00    -0.025 A 
HETATM   12  C9  UNL     1      -2.933  12.565  51.075  1.00  0.00     0.012 A 
HETATM   13  C10 UNL     1      -3.498  13.520  50.198  1.00  0.00     0.029 A 
HETATM   14  C11 UNL     1      -4.118  13.149  49.059  1.00  0.00     0.045 A 
HETATM   15  N11 UNL     1      -4.190  11.854  48.766  1.00  0.00    -0.366 N 
HETATM   16  C16 UNL     1      -3.669  10.895  49.565  1.00  0.00     0.097 A 
ATOM     17  H11 UNL     1      -4.657  11.572  47.904  1.00  0.00     0.165 HD
BRANCH  14  18
HETATM   18  C12 UNL     1      -4.650  14.213  48.180  1.00  0.00     0.125 C 
HETATM   19  C13 UNL     1      -5.108  13.791  46.830  1.00  0.00     0.073 C 
HETATM   20  C14 UNL     1      -4.797  15.079  45.936  1.00  0.00     0.235 C 
HETATM   21  N10 UNL     1      -4.191  16.021  46.853  1.00  0.00    -0.072 N 
HETATM   22  C15 UNL     1      -3.569  15.197  47.840  1.00  0.00     0.276 C 
ATOM     23 2H10 UNL     1      -3.562  16.691  46.410  1.00  0.00     0.277 HD
ATOM     24 1H10 UNL     1      -4.838  16.712  47.233  1.00  0.00     0.277 HD
BRANCH  18  25
HETATM   25  O1  UNL     1      -5.644  14.939  48.802  1.00  0.00    -0.382 OA
ATOM     26  H1  UNL     1      -6.485  14.820  48.376  1.00  0.00     0.211 HD
ENDBRANCH  18  25
ENDBRANCH  14  18
ENDBRANCH  10  11
ENDBRANCH   8  10
ENDBRANCH   4   8
BRANCH   5  27
HETATM   27  N12 UNL     1      -3.959   7.668  49.477  1.00  0.00    -0.112 N 
HETATM   28  O2  UNL     1      -5.048   8.126  49.422  1.00  0.00    -0.532 OA
HETATM   29  O3  UNL     1      -3.144   7.648  48.315  1.00  0.00    -0.532 OA
ENDBRANCH   5  27
BRANCH   1  30
HETATM   30  C4  UNL     1      -2.394   5.040  54.095  1.00  0.00     0.153 C 
HETATM   31  N7  UNL     1      -2.479   5.526  55.255  1.00  0.00    -0.241 N 
ATOM     32  H7  UNL     1      -2.506   4.775  55.944  1.00  0.00     0.201 HD
BRANCH  31  33
HETATM   33  N6  UNL     1      -2.540   6.633  55.833  1.00  0.00    -0.286 NA
BRANCH  33  34
HETATM   34  C3  UNL     1      -2.631   7.711  56.401  1.00  0.00     0.312 A 
HETATM   35  N1  UNL     1      -2.401   8.103  57.705  1.00  0.00    -0.238 N 
HETATM   36  C1  UNL     1      -2.152   7.156  58.811  1.00  0.00     0.183 C 
HETATM   37  N2  UNL     1      -2.448   9.390  57.785  1.00  0.00    -0.125 N 
HETATM   38  C2  UNL     1      -2.673   9.932  56.595  1.00  0.00     0.714 A 
ATOM     39  H2  UNL     1      -2.329   9.921  58.648  1.00  0.00     0.206 HD
HETATM   40  N5  UNL     1      -2.806   8.955  55.736  1.00  0.00    -0.143 N 
ATOM     41  H5  UNL     1      -3.004   9.068  54.741  1.00  0.00     0.188 HD
BRANCH  38  42
HETATM   42  N3  UNL     1      -2.656  11.203  56.320  1.00  0.00    -0.137 N 
ATOM     43  H3  UNL     1      -2.350  11.530  55.404  1.00  0.00     0.205 HD
BRANCH  42  44
HETATM   44  N4  UNL     1      -3.057  12.105  57.285  1.00  0.00    -0.331 N 
ATOM     45  H42 UNL     1      -3.828  11.864  57.907  1.00  0.00     0.177 HD
ATOM     46  H41 UNL     1      -2.574  13.001  57.359  1.00  0.00     0.177 HD
ENDBRANCH  42  44
ENDBRANCH  38  42
ENDBRANCH  33  34
ENDBRANCH  31  33
ENDBRANCH   1  30
BRANCH   7  47
HETATM   47  N13 UNL     1      -2.110   3.698  51.392  1.00  0.00    -0.113 N 
HETATM   48  O4  UNL     1      -2.720   2.701  51.803  1.00  0.00    -0.532 OA
HETATM   49  O5  UNL     1      -0.862   3.554  50.744  1.00  0.00    -0.532 OA
ENDBRANCH   7  47
TORSDOF 12
ENDMDL
MODEL 5
REMARK VINA RESULT: -7.597640309      0.809      1.493
REMARK  12 active torsions:
REMARK  status: ('A' for Active; 'I' for Inactive)
REMARK    1  A    between atoms: C2_5  and  N3_6 
REMARK    2  A    between atoms: N3_6  and  N4_8 
REMARK    3  A    between atoms: C3_13  and  N6_14 
REMARK    4  A    between atoms: N6_14  and  N7_15 
REMARK    5  A    between atoms: C4_17  and  C5_18 
REMARK    6  A    between atoms: C6_21  and  N9_22 
REMARK    7  A    between atoms: N9_22  and  C7_24 
REMARK    8  A    between atoms: C7_24  and  C8_25 
REMARK    9  A    between atoms: C11_28  and  C12_29 
REMARK   10  A    between atoms: C12_29  and  O1_30 
REMARK   11  A    between atoms: C17_41  and  N12_42 
REMARK   12  A    between atoms: C19_46  and  N13_47 
ROOT
HETATM    1  C5  UNL     1      -2.806   5.427  52.857  1.00  0.00     0.085 A 
HETATM    2  N8  UNL     1      -3.032   6.780  52.887  1.00  0.00    -0.338 N 
ATOM      3  H8  UNL     1      -3.024   7.263  53.785  1.00  0.00     0.167 HD
HETATM    4  C6  UNL     1      -3.271   7.512  51.734  1.00  0.00     0.135 A 
HETATM    5  C17 UNL     1      -3.277   6.855  50.505  1.00  0.00     0.148 A 
HETATM    6  C18 UNL     1      -3.016   5.477  50.535  1.00  0.00     0.078 A 
HETATM    7  C19 UNL     1      -2.770   4.753  51.674  1.00  0.00     0.133 A 
ENDROOT
BRANCH   4   8
HETATM    8  N9  UNL     1      -3.579   8.893  51.867  1.00  0.00    -0.370 N 
ATOM      9  H9  UNL     1      -4.541   9.174  52.058  1.00  0.00     0.161 HD
BRANCH   8  10
HETATM   10  C7  UNL     1      -2.560   9.906  51.736  1.00  0.00     0.161 C 
BRANCH  10  11
HETATM   11  C8  UNL     1      -2.997  11.022  50.871  1.00  0.00    -0.025 A 
HETATM   12  C9  UNL     1      -3.513  10.849  49.621  1.00  0.00     0.012 A 
HETATM   13  C10 UNL     1      -3.999  11.980  48.925  1.00  0.00     0.029 A 
HETATM   14  C11 UNL     1      -3.958  13.213  49.470  1.00  0.00     0.045 A 
HETATM   15  N11 UNL     1      -3.448  13.353  50.690  1.00  0.00    -0.366 N 
HETATM   16  C16 UNL     1      -2.967  12.310  51.404  1.00  0.00     0.097 A 
ATOM     17  H11 UNL     1      -3.417  14.285  51.104  1.00  0.00     0.165 HD
BRANCH  14  18
HETATM   18  C12 UNL     1      -4.519  14.337  48.690  1.00  0.00     0.125 C 
HETATM   19  C13 UNL     1      -3.654  14.902  47.621  1.00  0.00     0.073 C 
HETATM   20  C14 UNL     1      -4.085  16.441  47.597  1.00  0.00     0.235 C 
HETATM   21  N10 UNL     1      -5.079  16.557  48.643  1.00  0.00    -0.072 N 
HETATM   22  C15 UNL     1      -4.727  15.532  49.574  1.00  0.00     0.276 C 
ATOM     23 2H10 UNL     1      -5.149  17.489  49.052  1.00  0.00     0.277 HD
ATOM     24 1H10 UNL     1      -6.043  16.508  48.312  1.00  0.00     0.277 HD
BRANCH  18  25
HETATM   25  O1  UNL     1      -5.759  14.027  48.169  1.00  0.00    -0.382 OA
ATOM     26  H1  UNL     1      -6.292  13.549  48.793  1.00  0.00     0.211 HD
ENDBRANCH  18  25
ENDBRANCH  14  18
ENDBRANCH  10  11
ENDBRANCH   8  10
ENDBRANCH   4   8
BRANCH   5  27
HETATM   27  N12 UNL     1      -3.615   7.462  49.287  1.00  0.00    -0.112 N 
HETATM   28  O2  UNL     1      -2.968   7.475  48.296  1.00  0.00    -0.532 OA
HETATM   29  O3  UNL     1      -4.864   8.137  49.322  1.00  0.00    -0.532 OA
ENDBRANCH   5  27
BRANCH   1  30
HETATM   30  C4  UNL     1      -3.167   4.723  54.080  1.00  0.00     0.153 C 
HETATM   31  N7  UNL     1      -3.098   5.104  55.280  1.00  0.00    -0.241 N 
ATOM     32  H7  UNL     1      -3.435   4.366  55.897  1.00  0.00     0.201 HD
BRANCH  31  33
HETATM   33  N6  UNL     1      -2.749   6.096  55.956  1.00  0.00    -0.286 NA
BRANCH  33  34
HETATM   34  C3  UNL     1      -2.417   7.050  56.643  1.00  0.00     0.312 A 
HETATM   35  N1  UNL     1      -2.580   8.413  56.492  1.00  0.00    -0.238 N 
HETATM   36  C1  UNL     1      -3.079   9.044  55.253  1.00  0.00     0.183 C 
HETATM   37  N2  UNL     1      -2.227   9.015  57.579  1.00  0.00    -0.125 N 
HETATM   38  C2  UNL     1      -1.848   8.141  58.502  1.00  0.00     0.714 A 
ATOM     39  H2  UNL     1      -2.239  10.026  57.709  1.00  0.00     0.206 HD
HETATM   40  N5  UNL     1      -1.931   6.947  57.975  1.00  0.00    -0.143 N 
ATOM     41  H5  UNL     1      -1.685   6.077  58.446  1.00  0.00     0.188 HD
BRANCH  38  42
HETATM   42  N3  UNL     1      -1.552   8.419  59.738  1.00  0.00    -0.137 N 
ATOM     43  H3  UNL     1      -2.281   8.445  60.451  1.00  0.00     0.205 HD
BRANCH  42  44
HETATM   44  N4  UNL     1      -0.238   8.677  60.074  1.00  0.00    -0.331 N 
ATOM     45  H42 UNL     1       0.408   9.002  59.355  1.00  0.00     0.177 HD
ATOM     46  H41 UNL     1       0.065   8.538  61.038  1.00  0.00     0.177 HD
ENDBRANCH  42  44
ENDBRANCH  38  42
ENDBRANCH  33  34
ENDBRANCH  31  33
ENDBRANCH   1  30
BRANCH   7  47
HETATM   47  N13 UNL     1      -2.252   3.444  51.488  1.00  0.00    -0.113 N 
HETATM   48  O4  UNL     1      -1.256   3.238  50.783  1.00  0.00    -0.532 OA
HETATM   49  O5  UNL     1      -2.979   2.361  52.032  1.00  0.00    -0.532 OA
ENDBRANCH   7  47
TORSDOF 12
ENDMDL
