MODEL 1
REMARK VINA RESULT: -9.253480835      0.000      0.000
REMARK  11 active torsions:
REMARK  status: ('A' for Active; 'I' for Inactive)
REMARK    1  A    between atoms: C2_2  and  C3_3 
REMARK    2  A    between atoms: C3_3  and  N1_4 
REMARK    3  A    between atoms: N1_4  and  C4_5 
REMARK    4  A    between atoms: N1_4  and  C6_9 
REMARK    5  A    between atoms: C4_5  and  C5_6 
REMARK    6  A    between atoms: C5_6  and  O1_7 
REMARK    7  A    between atoms: C7_12  and  N3_13 
REMARK    8  A    between atoms: C9_15  and  C10_16 
REMARK    9  A    between atoms: C10_16  and  N4_17 
REMARK   10  A    between atoms: C19_36  and  N11_37 
REMARK   11  A    between atoms: C20_42  and  N13_43 
ROOT
HETATM    1  C6  UNL     1      -2.707   8.208  52.543  1.00  0.00     0.148 A 
HETATM    2  N2  UNL     1      -2.864   9.292  51.740  1.00  0.00    -0.173 N 
ATOM      3  H2  UNL     1      -2.910   9.162  50.730  1.00  0.00     0.186 HD
HETATM    4  C7  UNL     1      -2.959  10.529  52.247  1.00  0.00     0.704 A 
HETATM    5  N8  UNL     1      -2.896  10.685  53.588  1.00  0.00    -0.186 N 
ATOM      6  H8  UNL     1      -2.968  11.623  53.982  1.00  0.00     0.184 HD
HETATM    7  C16 UNL     1      -2.742   9.636  54.416  1.00  0.00     0.106 A 
HETATM    8  C17 UNL     1      -2.686   9.821  55.759  1.00  0.00     0.105 A 
HETATM    9  N9  UNL     1      -2.783  11.121  56.341  1.00  0.00    -0.097 NA
HETATM   10  C18 UNL     1      -2.531   8.724  56.588  1.00  0.00     0.106 A 
HETATM   11  N10 UNL     1      -2.476   8.915  57.931  1.00  0.00    -0.188 N 
ATOM     12  H10 UNL     1      -2.549   9.857  58.314  1.00  0.00     0.184 HD
HETATM   13  C19 UNL     1      -2.327   7.871  58.750  1.00  0.00     0.678 A 
HETATM   14  N12 UNL     1      -2.236   6.652  58.202  1.00  0.00    -0.175 N 
ATOM     15  H12 UNL     1      -2.122   5.858  58.832  1.00  0.00     0.186 HD
HETATM   16  C20 UNL     1      -2.282   6.401  56.902  1.00  0.00     0.144 A 
HETATM   17  C21 UNL     1      -2.435   7.455  56.036  1.00  0.00     0.107 A 
HETATM   18  N14 UNL     1      -2.493   7.284  54.693  1.00  0.00    -0.346 N 
ATOM     19  H14 UNL     1      -2.422   6.350  54.291  1.00  0.00     0.166 HD
HETATM   20  C22 UNL     1      -2.641   8.341  53.902  1.00  0.00     0.107 A 
ENDROOT
BRANCH   4  21
HETATM   21  N3  UNL     1      -3.124  11.651  51.387  1.00  0.00    -0.080 N 
HETATM   22  C8  UNL     1      -3.564  11.701  50.117  1.00  0.00     0.160 A 
HETATM   23  C9  UNL     1      -3.555  13.028  49.673  1.00  0.00     0.059 A 
HETATM   24  N6  UNL     1      -3.094  13.719  50.740  1.00  0.00    -0.284 N 
HETATM   25  N7  UNL     1      -2.844  12.891  51.745  1.00  0.00    -0.001 NA
ATOM     26  H6  UNL     1      -2.960  14.730  50.767  1.00  0.00     0.184 HD
BRANCH  23  27
HETATM   27  C10 UNL     1      -3.958  13.542  48.343  1.00  0.00     0.177 C 
BRANCH  27  28
HETATM   28  N4  UNL     1      -5.053  12.794  47.846  1.00  0.00    -0.401 N 
HETATM   29  C11 UNL     1      -4.821  11.457  47.453  1.00  0.00     0.161 C 
HETATM   30  C12 UNL     1      -4.707  11.270  45.976  1.00  0.00     0.075 C 
HETATM   31  N5  UNL     1      -5.078  12.316  45.135  1.00  0.00    -0.395 N 
HETATM   32  C13 UNL     1      -5.935  13.328  45.617  1.00  0.00     0.094 C 
ATOM     33  H5  UNL     1      -4.733  12.349  44.176  1.00  0.00     0.159 HD
HETATM   34  C14 UNL     1      -5.515  14.645  44.974  1.00  0.00     0.034 C 
HETATM   35  C15 UNL     1      -6.011  13.510  47.082  1.00  0.00     0.142 C 
ENDBRANCH  27  28
ENDBRANCH  23  27
ENDBRANCH   4  21
BRANCH   1  36
HETATM   36  N1  UNL     1      -2.606   6.929  51.886  1.00  0.00    -0.363 N 
BRANCH  36  37
HETATM   37  C3  UNL     1      -3.598   6.625  50.902  1.00  0.00     0.124 C 
BRANCH  37  38
HETATM   38  C2  UNL     1      -3.286   6.954  49.491  1.00  0.00     0.015 C 
HETATM   39  C1  UNL     1      -4.240   7.939  48.900  1.00  0.00     0.006 C 
ENDBRANCH  37  38
ENDBRANCH  36  37
BRANCH  36  40
HETATM   40  C4  UNL     1      -1.519   6.077  52.275  1.00  0.00     0.150 C 
BRANCH  40  41
HETATM   41  C5  UNL     1      -2.002   4.622  52.369  1.00  0.00     0.183 C 
BRANCH  41  42
HETATM   42  O1  UNL     1      -2.758   4.498  53.528  1.00  0.00    -0.399 OA
ATOM     43  H1  UNL     1      -3.667   4.391  53.273  1.00  0.00     0.209 HD
ENDBRANCH  41  42
ENDBRANCH  40  41
ENDBRANCH  36  40
ENDBRANCH   1  36
BRANCH  16  44
HETATM   44  N13 UNL     1      -2.190   5.193  56.410  1.00  0.00    -0.383 N 
ATOM     45 2H13 UNL     1      -2.123   4.406  57.055  1.00  0.00     0.157 HD
ATOM     46 1H13 UNL     1      -2.179   5.004  55.408  1.00  0.00     0.157 HD
ENDBRANCH  16  44
BRANCH  13  47
HETATM   47  N11 UNL     1      -2.271   8.013  60.036  1.00  0.00    -0.234 N 
ATOM     48 2H11 UNL     1      -1.395   8.283  60.486  1.00  0.00     0.174 HD
ATOM     49 1H11 UNL     1      -3.085   7.862  60.630  1.00  0.00     0.174 HD
ENDBRANCH  13  47
TORSDOF 11
ENDMDL
MODEL 2
REMARK VINA RESULT: -9.153107992      1.743      2.543
REMARK  11 active torsions:
REMARK  status: ('A' for Active; 'I' for Inactive)
REMARK    1  A    between atoms: C2_2  and  C3_3 
REMARK    2  A    between atoms: C3_3  and  N1_4 
REMARK    3  A    between atoms: N1_4  and  C4_5 
REMARK    4  A    between atoms: N1_4  and  C6_9 
REMARK    5  A    between atoms: C4_5  and  C5_6 
REMARK    6  A    between atoms: C5_6  and  O1_7 
REMARK    7  A    between atoms: C7_12  and  N3_13 
REMARK    8  A    between atoms: C9_15  and  C10_16 
REMARK    9  A    between atoms: C10_16  and  N4_17 
REMARK   10  A    between atoms: C19_36  and  N11_37 
REMARK   11  A    between atoms: C20_42  and  N13_43 
ROOT
HETATM    1  C6  UNL     1      -2.555   8.579  52.126  1.00  0.00     0.148 A 
HETATM    2  N2  UNL     1      -2.759   9.683  51.364  1.00  0.00    -0.173 N 
ATOM      3  H2  UNL     1      -2.714   9.603  50.348  1.00  0.00     0.186 HD
HETATM    4  C7  UNL     1      -3.020  10.876  51.916  1.00  0.00     0.704 A 
HETATM    5  N8  UNL     1      -3.078  10.966  53.263  1.00  0.00    -0.186 N 
ATOM      6  H8  UNL     1      -3.275  11.870  53.692  1.00  0.00     0.184 HD
HETATM    7  C16 UNL     1      -2.881   9.894  54.053  1.00  0.00     0.106 A 
HETATM    8  C17 UNL     1      -2.949  10.013  55.403  1.00  0.00     0.105 A 
HETATM    9  N9  UNL     1      -3.224  11.264  56.033  1.00  0.00    -0.097 NA
HETATM   10  C18 UNL     1      -2.748   8.894  56.191  1.00  0.00     0.106 A 
HETATM   11  N10 UNL     1      -2.817   9.017  57.541  1.00  0.00    -0.188 N 
ATOM     12  H10 UNL     1      -3.016   9.926  57.960  1.00  0.00     0.184 HD
HETATM   13  C19 UNL     1      -2.626   7.951  58.323  1.00  0.00     0.678 A 
HETATM   14  N12 UNL     1      -2.368   6.778  57.729  1.00  0.00    -0.175 N 
ATOM     15  H12 UNL     1      -2.224   5.967  58.330  1.00  0.00     0.186 HD
HETATM   16  C20 UNL     1      -2.288   6.593  56.420  1.00  0.00     0.144 A 
HETATM   17  C21 UNL     1      -2.481   7.671  55.592  1.00  0.00     0.107 A 
HETATM   18  N14 UNL     1      -2.415   7.568  54.243  1.00  0.00    -0.346 N 
ATOM     19  H14 UNL     1      -2.219   6.667  53.806  1.00  0.00     0.166 HD
HETATM   20  C22 UNL     1      -2.609   8.645  53.491  1.00  0.00     0.107 A 
ENDROOT
BRANCH   4  21
HETATM   21  N3  UNL     1      -3.231  12.021  51.096  1.00  0.00    -0.080 N 
HETATM   22  C8  UNL     1      -3.698  12.101  49.838  1.00  0.00     0.160 A 
HETATM   23  C9  UNL     1      -3.732  13.441  49.438  1.00  0.00     0.059 A 
HETATM   24  N6  UNL     1      -3.268  14.109  50.518  1.00  0.00    -0.284 N 
HETATM   25  N7  UNL     1      -2.976  13.256  51.490  1.00  0.00    -0.001 NA
ATOM     26  H6  UNL     1      -3.158  15.122  50.576  1.00  0.00     0.184 HD
BRANCH  23  27
HETATM   27  C10 UNL     1      -4.176  13.987  48.134  1.00  0.00     0.177 C 
BRANCH  27  28
HETATM   28  N4  UNL     1      -3.818  15.354  48.035  1.00  0.00    -0.401 N 
HETATM   29  C11 UNL     1      -4.394  16.262  48.952  1.00  0.00     0.161 C 
HETATM   30  C12 UNL     1      -5.518  17.063  48.385  1.00  0.00     0.075 C 
HETATM   31  N5  UNL     1      -5.728  17.050  47.008  1.00  0.00    -0.395 N 
HETATM   32  C13 UNL     1      -4.677  16.669  46.147  1.00  0.00     0.094 C 
ATOM     33  H5  UNL     1      -6.635  17.314  46.625  1.00  0.00     0.159 HD
HETATM   34  C14 UNL     1      -5.286  15.918  44.967  1.00  0.00     0.034 C 
HETATM   35  C15 UNL     1      -3.589  15.853  46.726  1.00  0.00     0.142 C 
ENDBRANCH  27  28
ENDBRANCH  23  27
ENDBRANCH   4  21
BRANCH   1  36
HETATM   36  N1  UNL     1      -2.273   7.352  51.423  1.00  0.00    -0.363 N 
BRANCH  36  37
HETATM   37  C3  UNL     1      -1.428   6.406  52.084  1.00  0.00     0.124 C 
BRANCH  37  38
HETATM   38  C2  UNL     1      -1.707   4.968  51.864  1.00  0.00     0.015 C 
HETATM   39  C1  UNL     1      -2.947   4.506  52.554  1.00  0.00     0.006 C 
ENDBRANCH  37  38
ENDBRANCH  36  37
BRANCH  36  40
HETATM   40  C4  UNL     1      -2.868   7.188  50.128  1.00  0.00     0.150 C 
BRANCH  40  41
HETATM   41  C5  UNL     1      -4.394   7.327  50.231  1.00  0.00     0.183 C 
BRANCH  41  42
HETATM   42  O1  UNL     1      -4.783   8.378  49.410  1.00  0.00    -0.399 OA
ATOM     43  H1  UNL     1      -4.012   8.899  49.219  1.00  0.00     0.209 HD
ENDBRANCH  41  42
ENDBRANCH  40  41
ENDBRANCH  36  40
ENDBRANCH   1  36
BRANCH  16  44
HETATM   44  N13 UNL     1      -2.035   5.428  55.883  1.00  0.00    -0.383 N 
ATOM     45 2H13 UNL     1      -1.637   4.695  56.471  1.00  0.00     0.157 HD
ATOM     46 1H13 UNL     1      -2.215   5.221  54.901  1.00  0.00     0.157 HD
ENDBRANCH  16  44
BRANCH  13  47
HETATM   47  N11 UNL     1      -2.685   8.029  59.613  1.00  0.00    -0.234 N 
ATOM     48 2H11 UNL     1      -3.395   8.610  60.061  1.00  0.00     0.174 HD
ATOM     49 1H11 UNL     1      -2.034   7.524  60.214  1.00  0.00     0.174 HD
ENDBRANCH  13  47
TORSDOF 11
ENDMDL
MODEL 3
REMARK VINA RESULT: -9.152782999      1.363      1.871
REMARK  11 active torsions:
REMARK  status: ('A' for Active; 'I' for Inactive)
REMARK    1  A    between atoms: C2_2  and  C3_3 
REMARK    2  A    between atoms: C3_3  and  N1_4 
REMARK    3  A    between atoms: N1_4  and  C4_5 
REMARK    4  A    between atoms: N1_4  and  C6_9 
REMARK    5  A    between atoms: C4_5  and  C5_6 
REMARK    6  A    between atoms: C5_6  and  O1_7 
REMARK    7  A    between atoms: C7_12  and  N3_13 
REMARK    8  A    between atoms: C9_15  and  C10_16 
REMARK    9  A    between atoms: C10_16  and  N4_17 
REMARK   10  A    between atoms: C19_36  and  N11_37 
REMARK   11  A    between atoms: C20_42  and  N13_43 
ROOT
HETATM    1  C6  UNL     1      -2.693   8.512  52.270  1.00  0.00     0.148 A 
HETATM    2  N2  UNL     1      -2.874   9.614  51.500  1.00  0.00    -0.173 N 
ATOM      3  H2  UNL     1      -2.897   9.515  50.485  1.00  0.00     0.186 HD
HETATM    4  C7  UNL     1      -3.023  10.830  52.043  1.00  0.00     0.704 A 
HETATM    5  N8  UNL     1      -2.990  10.946  53.389  1.00  0.00    -0.186 N 
ATOM      6  H8  UNL     1      -3.102  11.867  53.811  1.00  0.00     0.184 HD
HETATM    7  C16 UNL     1      -2.814   9.876  54.186  1.00  0.00     0.106 A 
HETATM    8  C17 UNL     1      -2.789  10.020  55.536  1.00  0.00     0.105 A 
HETATM    9  N9  UNL     1      -2.944  11.297  56.157  1.00  0.00    -0.097 NA
HETATM   10  C18 UNL     1      -2.611   8.903  56.332  1.00  0.00     0.106 A 
HETATM   11  N10 UNL     1      -2.587   9.052  57.682  1.00  0.00    -0.188 N 
ATOM     12  H10 UNL     1      -2.701   9.979  58.093  1.00  0.00     0.184 HD
HETATM   13  C19 UNL     1      -2.416   7.989  58.471  1.00  0.00     0.678 A 
HETATM   14  N12 UNL     1      -2.271   6.792  57.886  1.00  0.00    -0.175 N 
ATOM     15  H12 UNL     1      -2.141   5.983  58.493  1.00  0.00     0.186 HD
HETATM   16  C20 UNL     1      -2.284   6.581  56.578  1.00  0.00     0.144 A 
HETATM   17  C21 UNL     1      -2.460   7.657  55.743  1.00  0.00     0.107 A 
HETATM   18  N14 UNL     1      -2.486   7.527  54.394  1.00  0.00    -0.346 N 
ATOM     19  H14 UNL     1      -2.374   6.609  53.964  1.00  0.00     0.166 HD
HETATM   20  C22 UNL     1      -2.657   8.603  53.635  1.00  0.00     0.107 A 
ENDROOT
BRANCH   4  21
HETATM   21  N3  UNL     1      -3.211  11.973  51.216  1.00  0.00    -0.080 N 
HETATM   22  C8  UNL     1      -3.674  12.053  49.956  1.00  0.00     0.160 A 
HETATM   23  C9  UNL     1      -3.683  13.390  49.547  1.00  0.00     0.059 A 
HETATM   24  N6  UNL     1      -3.210  14.058  50.623  1.00  0.00    -0.284 N 
HETATM   25  N7  UNL     1      -2.936  13.206  51.602  1.00  0.00    -0.001 NA
ATOM     26  H6  UNL     1      -3.083  15.069  50.674  1.00  0.00     0.184 HD
BRANCH  23  27
HETATM   27  C10 UNL     1      -4.114  13.936  48.238  1.00  0.00     0.177 C 
BRANCH  27  28
HETATM   28  N4  UNL     1      -3.781  15.310  48.153  1.00  0.00    -0.401 N 
HETATM   29  C11 UNL     1      -4.395  16.201  49.062  1.00  0.00     0.161 C 
HETATM   30  C12 UNL     1      -5.523  16.983  48.476  1.00  0.00     0.075 C 
HETATM   31  N5  UNL     1      -5.704  16.973  47.095  1.00  0.00    -0.395 N 
HETATM   32  C13 UNL     1      -4.628  16.618  46.254  1.00  0.00     0.094 C 
ATOM     33  H5  UNL     1      -6.608  17.221  46.694  1.00  0.00     0.159 HD
HETATM   34  C14 UNL     1      -5.196  15.862  45.057  1.00  0.00     0.034 C 
HETATM   35  C15 UNL     1      -3.535  15.820  46.852  1.00  0.00     0.142 C 
ENDBRANCH  27  28
ENDBRANCH  23  27
ENDBRANCH   4  21
BRANCH   1  36
HETATM   36  N1  UNL     1      -2.534   7.258  51.576  1.00  0.00    -0.363 N 
BRANCH  36  37
HETATM   37  C3  UNL     1      -3.565   6.892  50.655  1.00  0.00     0.124 C 
BRANCH  37  38
HETATM   38  C2  UNL     1      -3.339   7.186  49.220  1.00  0.00     0.015 C 
HETATM   39  C1  UNL     1      -4.368   8.103  48.647  1.00  0.00     0.006 C 
ENDBRANCH  37  38
ENDBRANCH  36  37
BRANCH  36  40
HETATM   40  C4  UNL     1      -1.357   6.493  51.867  1.00  0.00     0.150 C 
BRANCH  40  41
HETATM   41  C5  UNL     1      -1.716   5.005  51.990  1.00  0.00     0.183 C 
BRANCH  41  42
HETATM   42  O1  UNL     1      -2.420   4.832  53.175  1.00  0.00    -0.399 OA
ATOM     43  H1  UNL     1      -1.790   4.776  53.883  1.00  0.00     0.209 HD
ENDBRANCH  41  42
ENDBRANCH  40  41
ENDBRANCH  36  40
ENDBRANCH   1  36
BRANCH  16  44
HETATM   44  N13 UNL     1      -2.140   5.394  56.051  1.00  0.00    -0.383 N 
ATOM     45 2H13 UNL     1      -1.207   4.984  56.015  1.00  0.00     0.157 HD
ATOM     46 1H13 UNL     1      -2.921   4.860  55.670  1.00  0.00     0.157 HD
ENDBRANCH  16  44
BRANCH  13  47
HETATM   47  N11 UNL     1      -2.389   8.091  59.761  1.00  0.00    -0.234 N 
ATOM     48 2H11 UNL     1      -2.354   7.254  60.343  1.00  0.00     0.174 HD
ATOM     49 1H11 UNL     1      -2.402   8.997  60.229  1.00  0.00     0.174 HD
ENDBRANCH  13  47
TORSDOF 11
ENDMDL
MODEL 4
REMARK VINA RESULT: -9.091370738      0.984      1.733
REMARK  11 active torsions:
REMARK  status: ('A' for Active; 'I' for Inactive)
REMARK    1  A    between atoms: C2_2  and  C3_3 
REMARK    2  A    between atoms: C3_3  and  N1_4 
REMARK    3  A    between atoms: N1_4  and  C4_5 
REMARK    4  A    between atoms: N1_4  and  C6_9 
REMARK    5  A    between atoms: C4_5  and  C5_6 
REMARK    6  A    between atoms: C5_6  and  O1_7 
REMARK    7  A    between atoms: C7_12  and  N3_13 
REMARK    8  A    between atoms: C9_15  and  C10_16 
REMARK    9  A    between atoms: C10_16  and  N4_17 
REMARK   10  A    between atoms: C19_36  and  N11_37 
REMARK   11  A    between atoms: C20_42  and  N13_43 
ROOT
HETATM    1  C6  UNL     1      -2.762   8.216  52.490  1.00  0.00     0.148 A 
HETATM    2  N2  UNL     1      -2.920   9.303  51.694  1.00  0.00    -0.173 N 
ATOM      3  H2  UNL     1      -2.989   9.177  50.684  1.00  0.00     0.186 HD
HETATM    4  C7  UNL     1      -2.987  10.540  52.205  1.00  0.00     0.704 A 
HETATM    5  N8  UNL     1      -2.894  10.692  53.544  1.00  0.00    -0.186 N 
ATOM      6  H8  UNL     1      -2.944  11.630  53.942  1.00  0.00     0.184 HD
HETATM    7  C16 UNL     1      -2.738   9.638  54.366  1.00  0.00     0.106 A 
HETATM    8  C17 UNL     1      -2.652   9.820  55.709  1.00  0.00     0.105 A 
HETATM    9  N9  UNL     1      -2.718  11.120  56.296  1.00  0.00    -0.097 NA
HETATM   10  C18 UNL     1      -2.495   8.718  56.532  1.00  0.00     0.106 A 
HETATM   11  N10 UNL     1      -2.410   8.905  57.874  1.00  0.00    -0.188 N 
ATOM     12  H10 UNL     1      -2.461   9.847  58.261  1.00  0.00     0.184 HD
HETATM   13  C19 UNL     1      -2.258   7.857  58.688  1.00  0.00     0.678 A 
HETATM   14  N12 UNL     1      -2.196   6.638  58.134  1.00  0.00    -0.175 N 
ATOM     15  H12 UNL     1      -2.081   5.841  58.760  1.00  0.00     0.186 HD
HETATM   16  C20 UNL     1      -2.273   6.391  56.835  1.00  0.00     0.144 A 
HETATM   17  C21 UNL     1      -2.429   7.449  55.975  1.00  0.00     0.107 A 
HETATM   18  N14 UNL     1      -2.516   7.283  54.633  1.00  0.00    -0.346 N 
ATOM     19  H14 UNL     1      -2.467   6.348  54.227  1.00  0.00     0.166 HD
HETATM   20  C22 UNL     1      -2.666   8.344  53.848  1.00  0.00     0.107 A 
ENDROOT
BRANCH   4  21
HETATM   21  N3  UNL     1      -3.153  11.667  51.351  1.00  0.00    -0.080 N 
HETATM   22  C8  UNL     1      -3.583  11.722  50.078  1.00  0.00     0.160 A 
HETATM   23  C9  UNL     1      -3.581  13.052  49.643  1.00  0.00     0.059 A 
HETATM   24  N6  UNL     1      -3.134  13.740  50.718  1.00  0.00    -0.284 N 
HETATM   25  N7  UNL     1      -2.886  12.907  51.720  1.00  0.00    -0.001 NA
ATOM     26  H6  UNL     1      -3.008  14.751  50.753  1.00  0.00     0.184 HD
BRANCH  23  27
HETATM   27  C10 UNL     1      -3.977  13.572  48.313  1.00  0.00     0.177 C 
BRANCH  27  28
HETATM   28  N4  UNL     1      -5.063  12.819  47.802  1.00  0.00    -0.401 N 
HETATM   29  C11 UNL     1      -4.820  11.483  47.412  1.00  0.00     0.161 C 
HETATM   30  C12 UNL     1      -4.687  11.297  45.937  1.00  0.00     0.075 C 
HETATM   31  N5  UNL     1      -5.052  12.341  45.091  1.00  0.00    -0.395 N 
HETATM   32  C13 UNL     1      -5.920  13.349  45.562  1.00  0.00     0.094 C 
ATOM     33  H5  UNL     1      -4.695  12.377  44.136  1.00  0.00     0.159 HD
HETATM   34  C14 UNL     1      -5.498  14.669  44.925  1.00  0.00     0.034 C 
HETATM   35  C15 UNL     1      -6.014  13.531  47.027  1.00  0.00     0.142 C 
ENDBRANCH  27  28
ENDBRANCH  23  27
ENDBRANCH   4  21
BRANCH   1  36
HETATM   36  N1  UNL     1      -2.693   6.936  51.828  1.00  0.00    -0.363 N 
BRANCH  36  37
HETATM   37  C3  UNL     1      -1.555   6.119  52.116  1.00  0.00     0.124 C 
BRANCH  37  38
HETATM   38  C2  UNL     1      -1.725   4.650  52.021  1.00  0.00     0.015 C 
HETATM   39  C1  UNL     1      -2.831   4.137  52.882  1.00  0.00     0.006 C 
ENDBRANCH  37  38
ENDBRANCH  36  37
BRANCH  36  40
HETATM   40  C4  UNL     1      -3.771   6.596  50.945  1.00  0.00     0.150 C 
BRANCH  40  41
HETATM   41  C5  UNL     1      -3.609   7.340  49.611  1.00  0.00     0.183 C 
BRANCH  41  42
HETATM   42  O1  UNL     1      -4.686   8.207  49.472  1.00  0.00    -0.399 OA
ATOM     43  H1  UNL     1      -5.413   7.849  49.967  1.00  0.00     0.209 HD
ENDBRANCH  41  42
ENDBRANCH  40  41
ENDBRANCH  36  40
ENDBRANCH   1  36
BRANCH  16  44
HETATM   44  N13 UNL     1      -2.208   5.184  56.339  1.00  0.00    -0.383 N 
ATOM     45 2H13 UNL     1      -1.801   5.056  55.413  1.00  0.00     0.157 HD
ATOM     46 1H13 UNL     1      -2.550   4.362  56.838  1.00  0.00     0.157 HD
ENDBRANCH  16  44
BRANCH  13  47
HETATM   47  N11 UNL     1      -2.174   7.995  59.972  1.00  0.00    -0.234 N 
ATOM     48 2H11 UNL     1      -2.242   8.921  60.395  1.00  0.00     0.174 HD
ATOM     49 1H11 UNL     1      -2.038   7.197  60.591  1.00  0.00     0.174 HD
ENDBRANCH  13  47
TORSDOF 11
ENDMDL
MODEL 5
REMARK VINA RESULT: -8.574022846      2.448      5.063
REMARK  11 active torsions:
REMARK  status: ('A' for Active; 'I' for Inactive)
REMARK    1  A    between atoms: C2_2  and  C3_3 
REMARK    2  A    between atoms: C3_3  and  N1_4 
REMARK    3  A    between atoms: N1_4  and  C4_5 
REMARK    4  A    between atoms: N1_4  and  C6_9 
REMARK    5  A    between atoms: C4_5  and  C5_6 
REMARK    6  A    between atoms: C5_6  and  O1_7 
REMARK    7  A    between atoms: C7_12  and  N3_13 
REMARK    8  A    between atoms: C9_15  and  C10_16 
REMARK    9  A    between atoms: C10_16  and  N4_17 
REMARK   10  A    between atoms: C19_36  and  N11_37 
REMARK   11  A    between atoms: C20_42  and  N13_43 
ROOT
HETATM    1  C6  UNL     1      -2.839   9.787  53.694  1.00  0.00     0.148 A 
HETATM    2  N2  UNL     1      -3.010  10.917  52.962  1.00  0.00    -0.173 N 
ATOM      3  H2  UNL     1      -3.045  11.819  53.437  1.00  0.00     0.186 HD
HETATM    4  C7  UNL     1      -3.133  10.875  51.628  1.00  0.00     0.704 A 
HETATM    5  N8  UNL     1      -3.084   9.672  51.012  1.00  0.00    -0.186 N 
ATOM      6  H8  UNL     1      -3.178   9.630  49.998  1.00  0.00     0.184 HD
HETATM    7  C16 UNL     1      -2.915   8.530  51.703  1.00  0.00     0.106 A 
HETATM    8  C17 UNL     1      -2.866   7.337  51.058  1.00  0.00     0.105 A 
HETATM    9  N9  UNL     1      -2.993   7.245  49.639  1.00  0.00    -0.097 NA
HETATM   10  C18 UNL     1      -2.687   6.178  51.793  1.00  0.00     0.106 A 
HETATM   11  N10 UNL     1      -2.637   4.987  51.144  1.00  0.00    -0.188 N 
ATOM     12  H10 UNL     1      -2.731   4.957  50.129  1.00  0.00     0.184 HD
HETATM   13  C19 UNL     1      -2.466   3.855  51.831  1.00  0.00     0.678 A 
HETATM   14  N12 UNL     1      -2.346   3.944  53.163  1.00  0.00    -0.175 N 
ATOM     15  H12 UNL     1      -2.215   3.077  53.684  1.00  0.00     0.186 HD
HETATM   16  C20 UNL     1      -2.386   5.073  53.854  1.00  0.00     0.144 A 
HETATM   17  C21 UNL     1      -2.561   6.252  53.173  1.00  0.00     0.107 A 
HETATM   18  N14 UNL     1      -2.613   7.450  53.803  1.00  0.00    -0.346 N 
ATOM     19  H14 UNL     1      -2.520   7.501  54.818  1.00  0.00     0.166 HD
HETATM   20  C22 UNL     1      -2.785   8.559  53.093  1.00  0.00     0.107 A 
ENDROOT
BRANCH   4  21
HETATM   21  N3  UNL     1      -3.312  12.072  50.880  1.00  0.00    -0.080 N 
HETATM   22  C8  UNL     1      -3.733  12.239  49.614  1.00  0.00     0.160 A 
HETATM   23  C9  UNL     1      -3.750  13.602  49.304  1.00  0.00     0.059 A 
HETATM   24  N6  UNL     1      -3.325  14.195  50.442  1.00  0.00    -0.284 N 
HETATM   25  N7  UNL     1      -3.070  13.277  51.366  1.00  0.00    -0.001 NA
ATOM     26  H6  UNL     1      -3.216  15.201  50.572  1.00  0.00     0.184 HD
BRANCH  23  27
HETATM   27  C10 UNL     1      -4.145  14.237  48.025  1.00  0.00     0.177 C 
BRANCH  27  28
HETATM   28  N4  UNL     1      -3.799  15.611  48.039  1.00  0.00    -0.401 N 
HETATM   29  C11 UNL     1      -4.476  16.458  48.945  1.00  0.00     0.161 C 
HETATM   30  C12 UNL     1      -5.552  17.280  48.318  1.00  0.00     0.075 C 
HETATM   31  N5  UNL     1      -5.628  17.344  46.929  1.00  0.00    -0.395 N 
HETATM   32  C13 UNL     1      -4.493  17.025  46.154  1.00  0.00     0.094 C 
ATOM     33  H5  UNL     1      -6.498  17.622  46.475  1.00  0.00     0.159 HD
HETATM   34  C14 UNL     1      -4.973  16.338  44.879  1.00  0.00     0.034 C 
HETATM   35  C15 UNL     1      -3.453  16.187  46.789  1.00  0.00     0.142 C 
ENDBRANCH  27  28
ENDBRANCH  23  27
ENDBRANCH   4  21
BRANCH   1  36
HETATM   36  N1  UNL     1      -2.728   9.954  55.121  1.00  0.00    -0.363 N 
BRANCH  36  37
HETATM   37  C3  UNL     1      -2.032   8.932  55.841  1.00  0.00     0.124 C 
BRANCH  37  38
HETATM   38  C2  UNL     1      -2.809   8.130  56.816  1.00  0.00     0.015 C 
HETATM   39  C1  UNL     1      -2.120   7.990  58.132  1.00  0.00     0.006 C 
ENDBRANCH  37  38
ENDBRANCH  36  37
BRANCH  36  40
HETATM   40  C4  UNL     1      -3.320  11.129  55.692  1.00  0.00     0.150 C 
BRANCH  40  41
HETATM   41  C5  UNL     1      -2.871  11.285  57.152  1.00  0.00     0.183 C 
BRANCH  41  42
HETATM   42  O1  UNL     1      -4.009  11.437  57.934  1.00  0.00    -0.399 OA
ATOM     43  H1  UNL     1      -4.725  11.685  57.362  1.00  0.00     0.209 HD
ENDBRANCH  41  42
ENDBRANCH  40  41
ENDBRANCH  36  40
ENDBRANCH   1  36
BRANCH  16  44
HETATM   44  N13 UNL     1      -2.265   5.112  55.155  1.00  0.00    -0.383 N 
ATOM     45 2H13 UNL     1      -2.985   5.586  55.699  1.00  0.00     0.157 HD
ATOM     46 1H13 UNL     1      -1.478   4.690  55.649  1.00  0.00     0.157 HD
ENDBRANCH  16  44
BRANCH  13  47
HETATM   47  N11 UNL     1      -2.413   2.701  51.247  1.00  0.00    -0.234 N 
ATOM     48 2H11 UNL     1      -2.834   1.882  51.687  1.00  0.00     0.174 HD
ATOM     49 1H11 UNL     1      -1.955   2.575  50.345  1.00  0.00     0.174 HD
ENDBRANCH  13  47
TORSDOF 11
ENDMDL
