MODEL 1
REMARK VINA RESULT: -5.281975856      0.000      0.000
REMARK  12 active torsions:
REMARK  status: ('A' for Active; 'I' for Inactive)
REMARK    1  A    between atoms: C6_6  and  C7_7 
REMARK    2  A    between atoms: C8_10  and  N2_11 
REMARK    3  A    between atoms: C9_17  and  C10_18 
REMARK    4  A    between atoms: C12_24  and  N8_25 
REMARK    5  A    between atoms: N8_25  and  C13_27 
REMARK    6  A    between atoms: C13_27  and  O1_28 
REMARK    7  A    between atoms: C13_27  and  C14_30 
REMARK    8  A    between atoms: C14_30  and  O2_31 
REMARK    9  A    between atoms: C14_30  and  C15_33 
REMARK   10  A    between atoms: C15_33  and  O3_34 
REMARK   11  A    between atoms: C17_39  and  N10_40 
REMARK   12  A    between atoms: C20_43  and  N11_44 
ROOT
HETATM    1  C10 UNL     1      -4.141  12.628  48.614  1.00  0.00     0.156 C 
HETATM    2  N5  UNL     1      -3.651  13.260  49.786  1.00  0.00    -0.079 NA
HETATM    3  N6  UNL     1      -4.082  11.356  48.550  1.00  0.00    -0.280 N 
ATOM      4  H6  UNL     1      -3.663  10.897  49.359  1.00  0.00     0.179 HD
HETATM    5  C11 UNL     1      -4.500  10.517  47.555  1.00  0.00     0.183 C 
HETATM    6  N7  UNL     1      -4.847   9.790  46.729  1.00  0.00    -0.172 NA
ENDROOT
BRANCH   1   7
HETATM    7  C9  UNL     1      -4.721  13.380  47.516  1.00  0.00     0.121 A 
HETATM    8  N4  UNL     1      -5.557  12.882  46.552  1.00  0.00    -0.272 N 
HETATM    9  N3  UNL     1      -5.917  13.841  45.710  1.00  0.00    -0.067 N 
ATOM     10  H4  UNL     1      -5.860  11.910  46.491  1.00  0.00     0.188 HD
HETATM   11  C8  UNL     1      -6.706  13.851  44.627  1.00  0.00     0.700 A 
HETATM   12  C16 UNL     1      -5.354  14.989  46.065  1.00  0.00     0.176 A 
HETATM   13  N1  UNL     1      -6.899  14.982  43.955  1.00  0.00    -0.174 N 
HETATM   14  C7  UNL     1      -6.354  16.161  44.274  1.00  0.00     0.135 A 
ATOM     15  H1  UNL     1      -7.508  14.948  43.137  1.00  0.00     0.186 HD
HETATM   16  N9  UNL     1      -5.564  16.144  45.359  1.00  0.00    -0.324 N 
ATOM     17  H9  UNL     1      -5.112  17.006  45.664  1.00  0.00     0.169 HD
HETATM   18  C12 UNL     1      -4.594  14.718  47.202  1.00  0.00     0.109 A 
BRANCH  11  19
HETATM   19  N2  UNL     1      -7.268  12.773  44.247  1.00  0.00    -0.233 N 
ATOM     20  H22 UNL     1      -8.274  12.658  44.370  1.00  0.00     0.174 HD
ATOM     21  H21 UNL     1      -6.718  12.027  43.822  1.00  0.00     0.174 HD
ENDBRANCH  11  19
BRANCH  14  22
HETATM   22  C6  UNL     1      -6.566  17.373  43.497  1.00  0.00     0.037 A 
HETATM   23  C5  UNL     1      -7.820  17.993  43.518  1.00  0.00     0.017 A 
HETATM   24  C4  UNL     1      -8.041  19.136  42.808  1.00  0.00     0.002 A 
HETATM   25  C3  UNL     1      -7.043  19.694  42.065  1.00  0.00     0.009 A 
HETATM   26  C2  UNL     1      -5.818  19.106  42.031  1.00  0.00    -0.033 A 
HETATM   27  C1  UNL     1      -4.693  19.685  41.228  1.00  0.00     0.050 C 
HETATM   28  C17 UNL     1      -5.549  17.923  42.751  1.00  0.00     0.070 A 
BRANCH  28  29
HETATM   29  N10 UNL     1      -4.230  17.382  42.645  1.00  0.00    -0.289 N 
HETATM   30  C18 UNL     1      -3.889  16.328  41.709  1.00  0.00     0.157 C 
HETATM   31  C19 UNL     1      -2.393  16.248  41.746  1.00  0.00     0.099 C 
HETATM   32  C20 UNL     1      -2.025  17.137  42.871  1.00  0.00     0.095 C 
HETATM   33  N12 UNL     1      -3.061  17.719  43.312  1.00  0.00    -0.286 N 
ATOM     34  H12 UNL     1      -3.038  18.378  44.089  1.00  0.00     0.188 HD
BRANCH  32  35
HETATM   35  N11 UNL     1      -0.682  17.303  43.378  1.00  0.00    -0.378 N 
HETATM   36  C21 UNL     1      -0.434  18.230  44.459  1.00  0.00     0.150 C 
HETATM   37  C22 UNL     1       0.404  16.543  42.803  1.00  0.00     0.150 C 
ENDBRANCH  32  35
ENDBRANCH  28  29
ENDBRANCH  14  22
BRANCH  18  38
HETATM   38  N8  UNL     1      -3.793  15.691  47.871  1.00  0.00    -0.357 N 
ATOM     39  H8  UNL     1      -2.829  15.813  47.560  1.00  0.00     0.162 HD
BRANCH  38  40
HETATM   40  C13 UNL     1      -4.260  16.507  48.954  1.00  0.00     0.249 C 
BRANCH  40  41
HETATM   41  O1  UNL     1      -5.270  15.943  49.679  1.00  0.00    -0.374 OA
ATOM     42  H1  UNL     1      -4.990  15.228  50.239  1.00  0.00     0.212 HD
ENDBRANCH  40  41
BRANCH  40  43
HETATM   43  C14 UNL     1      -4.683  17.859  48.427  1.00  0.00     0.190 C 
BRANCH  43  44
HETATM   44  O2  UNL     1      -6.049  17.820  48.120  1.00  0.00    -0.389 OA
ATOM     45  H2  UNL     1      -6.216  18.399  47.387  1.00  0.00     0.210 HD
ENDBRANCH  43  44
BRANCH  43  46
HETATM   46  C15 UNL     1      -4.391  18.965  49.422  1.00  0.00     0.200 C 
BRANCH  46  47
HETATM   47  O3  UNL     1      -5.550  19.680  49.705  1.00  0.00    -0.398 OA
ATOM     48  H3  UNL     1      -5.605  19.865  50.634  1.00  0.00     0.209 HD
ENDBRANCH  46  47
ENDBRANCH  43  46
ENDBRANCH  40  43
ENDBRANCH  38  40
ENDBRANCH  18  38
ENDBRANCH   1   7
TORSDOF 12
ENDMDL
MODEL 2
REMARK VINA RESULT: -5.076798674      2.319      3.935
REMARK  12 active torsions:
REMARK  status: ('A' for Active; 'I' for Inactive)
REMARK    1  A    between atoms: C6_6  and  C7_7 
REMARK    2  A    between atoms: C8_10  and  N2_11 
REMARK    3  A    between atoms: C9_17  and  C10_18 
REMARK    4  A    between atoms: C12_24  and  N8_25 
REMARK    5  A    between atoms: N8_25  and  C13_27 
REMARK    6  A    between atoms: C13_27  and  O1_28 
REMARK    7  A    between atoms: C13_27  and  C14_30 
REMARK    8  A    between atoms: C14_30  and  O2_31 
REMARK    9  A    between atoms: C14_30  and  C15_33 
REMARK   10  A    between atoms: C15_33  and  O3_34 
REMARK   11  A    between atoms: C17_39  and  N10_40 
REMARK   12  A    between atoms: C20_43  and  N11_44 
ROOT
HETATM    1  C10 UNL     1      -4.328  11.784  48.482  1.00  0.00     0.156 C 
HETATM    2  N5  UNL     1      -4.707  10.597  47.804  1.00  0.00    -0.079 NA
HETATM    3  N6  UNL     1      -3.752  11.669  49.614  1.00  0.00    -0.280 N 
ATOM      4  H6  UNL     1      -3.628  10.713  49.945  1.00  0.00     0.179 HD
HETATM    5  C11 UNL     1      -3.276  12.643  50.449  1.00  0.00     0.183 C 
HETATM    6  N7  UNL     1      -2.866  13.446  51.167  1.00  0.00    -0.172 NA
ENDROOT
BRANCH   1   7
HETATM    7  C9  UNL     1      -4.553  13.103  47.917  1.00  0.00     0.121 A 
HETATM    8  N4  UNL     1      -4.108  14.288  48.438  1.00  0.00    -0.272 N 
HETATM    9  N3  UNL     1      -4.472  15.301  47.664  1.00  0.00    -0.067 N 
ATOM     10  H4  UNL     1      -3.571  14.379  49.301  1.00  0.00     0.188 HD
HETATM   11  C8  UNL     1      -4.280  16.624  47.747  1.00  0.00     0.700 A 
HETATM   12  C16 UNL     1      -5.157  14.849  46.621  1.00  0.00     0.176 A 
HETATM   13  N1  UNL     1      -4.766  17.428  46.806  1.00  0.00    -0.174 N 
HETATM   14  C7  UNL     1      -5.461  17.018  45.739  1.00  0.00     0.135 A 
ATOM     15  H1  UNL     1      -4.597  18.428  46.905  1.00  0.00     0.186 HD
HETATM   16  N9  UNL     1      -5.651  15.692  45.662  1.00  0.00    -0.324 N 
ATOM     17  H9  UNL     1      -6.173  15.305  44.875  1.00  0.00     0.169 HD
HETATM   18  C12 UNL     1      -5.219  13.463  46.764  1.00  0.00     0.109 A 
BRANCH  11  19
HETATM   19  N2  UNL     1      -3.630  17.106  48.730  1.00  0.00    -0.233 N 
ATOM     20  H22 UNL     1      -3.130  16.478  49.361  1.00  0.00     0.174 HD
ATOM     21  H21 UNL     1      -3.607  18.113  48.890  1.00  0.00     0.174 HD
ENDBRANCH  11  19
BRANCH  14  22
HETATM   22  C6  UNL     1      -6.003  17.931  44.743  1.00  0.00     0.037 A 
HETATM   23  C5  UNL     1      -7.272  18.486  44.937  1.00  0.00     0.017 A 
HETATM   24  C4  UNL     1      -7.798  19.353  44.025  1.00  0.00     0.002 A 
HETATM   25  C3  UNL     1      -7.094  19.693  42.907  1.00  0.00     0.009 A 
HETATM   26  C2  UNL     1      -5.860  19.164  42.700  1.00  0.00    -0.033 A 
HETATM   27  C1  UNL     1      -5.052  19.510  41.487  1.00  0.00     0.050 C 
HETATM   28  C17 UNL     1      -5.281  18.263  43.619  1.00  0.00     0.070 A 
BRANCH  28  29
HETATM   29  N10 UNL     1      -3.981  17.759  43.306  1.00  0.00    -0.289 N 
HETATM   30  C18 UNL     1      -2.771  18.285  43.907  1.00  0.00     0.157 C 
HETATM   31  C19 UNL     1      -1.692  17.324  43.509  1.00  0.00     0.099 C 
HETATM   32  C20 UNL     1      -2.361  16.436  42.530  1.00  0.00     0.095 C 
HETATM   33  N12 UNL     1      -3.594  16.723  42.468  1.00  0.00    -0.286 N 
ATOM     34  H12 UNL     1      -4.246  16.234  41.855  1.00  0.00     0.188 HD
BRANCH  32  35
HETATM   35  N11 UNL     1      -1.692  15.405  41.770  1.00  0.00    -0.378 N 
HETATM   36  C21 UNL     1      -2.347  14.134  41.558  1.00  0.00     0.150 C 
HETATM   37  C22 UNL     1      -0.377  15.650  41.228  1.00  0.00     0.150 C 
ENDBRANCH  32  35
ENDBRANCH  28  29
ENDBRANCH  14  22
BRANCH  18  38
HETATM   38  N8  UNL     1      -5.913  12.603  45.861  1.00  0.00    -0.357 N 
ATOM     39  H8  UNL     1      -6.543  11.904  46.254  1.00  0.00     0.162 HD
BRANCH  38  40
HETATM   40  C13 UNL     1      -5.778  12.663  44.434  1.00  0.00     0.249 C 
BRANCH  40  41
HETATM   41  O1  UNL     1      -4.788  13.498  44.004  1.00  0.00    -0.374 OA
ATOM     42  H1  UNL     1      -4.579  14.196  44.614  1.00  0.00     0.212 HD
ENDBRANCH  40  41
BRANCH  40  43
HETATM   43  C14 UNL     1      -7.100  13.051  43.813  1.00  0.00     0.190 C 
BRANCH  43  44
HETATM   44  O2  UNL     1      -7.850  13.770  44.755  1.00  0.00    -0.389 OA
ATOM     45  H2  UNL     1      -8.503  14.285  44.298  1.00  0.00     0.210 HD
ENDBRANCH  43  44
BRANCH  43  46
HETATM   46  C15 UNL     1      -6.908  13.866  42.549  1.00  0.00     0.200 C 
BRANCH  46  47
HETATM   47  O3  UNL     1      -7.026  15.224  42.826  1.00  0.00    -0.398 OA
ATOM     48  H3  UNL     1      -6.685  15.739  42.106  1.00  0.00     0.209 HD
ENDBRANCH  46  47
ENDBRANCH  43  46
ENDBRANCH  40  43
ENDBRANCH  38  40
ENDBRANCH  18  38
ENDBRANCH   1   7
TORSDOF 12
ENDMDL
MODEL 3
REMARK VINA RESULT: -5.067938669      2.536      4.120
REMARK  12 active torsions:
REMARK  status: ('A' for Active; 'I' for Inactive)
REMARK    1  A    between atoms: C6_6  and  C7_7 
REMARK    2  A    between atoms: C8_10  and  N2_11 
REMARK    3  A    between atoms: C9_17  and  C10_18 
REMARK    4  A    between atoms: C12_24  and  N8_25 
REMARK    5  A    between atoms: N8_25  and  C13_27 
REMARK    6  A    between atoms: C13_27  and  O1_28 
REMARK    7  A    between atoms: C13_27  and  C14_30 
REMARK    8  A    between atoms: C14_30  and  O2_31 
REMARK    9  A    between atoms: C14_30  and  C15_33 
REMARK   10  A    between atoms: C15_33  and  O3_34 
REMARK   11  A    between atoms: C17_39  and  N10_40 
REMARK   12  A    between atoms: C20_43  and  N11_44 
ROOT
HETATM    1  C10 UNL     1      -4.346  11.765  48.630  1.00  0.00     0.156 C 
HETATM    2  N5  UNL     1      -4.780  10.587  47.969  1.00  0.00    -0.079 NA
HETATM    3  N6  UNL     1      -3.752  11.639  49.752  1.00  0.00    -0.280 N 
ATOM      4  H6  UNL     1      -3.656  10.681  50.089  1.00  0.00     0.179 HD
HETATM    5  C11 UNL     1      -3.226  12.601  50.568  1.00  0.00     0.183 C 
HETATM    6  N7  UNL     1      -2.773  13.395  51.271  1.00  0.00    -0.172 NA
ENDROOT
BRANCH   1   7
HETATM    7  C9  UNL     1      -4.534  13.086  48.058  1.00  0.00     0.121 A 
HETATM    8  N4  UNL     1      -4.243  14.276  48.668  1.00  0.00    -0.272 N 
HETATM    9  N3  UNL     1      -4.519  15.292  47.861  1.00  0.00    -0.067 N 
ATOM     10  H4  UNL     1      -3.866  14.369  49.611  1.00  0.00     0.188 HD
HETATM   11  C8  UNL     1      -4.407  16.620  47.998  1.00  0.00     0.700 A 
HETATM   12  C16 UNL     1      -4.993  14.836  46.708  1.00  0.00     0.176 A 
HETATM   13  N1  UNL     1      -4.764  17.424  47.002  1.00  0.00    -0.174 N 
HETATM   14  C7  UNL     1      -5.247  17.012  45.824  1.00  0.00     0.135 A 
ATOM     15  H1  UNL     1      -4.663  18.429  47.146  1.00  0.00     0.186 HD
HETATM   16  N9  UNL     1      -5.357  15.680  45.693  1.00  0.00    -0.324 N 
ATOM     17  H9  UNL     1      -5.718  15.291  44.823  1.00  0.00     0.169 HD
HETATM   18  C12 UNL     1      -5.012  13.446  46.814  1.00  0.00     0.109 A 
BRANCH  11  19
HETATM   19  N2  UNL     1      -3.957  17.105  49.086  1.00  0.00    -0.233 N 
ATOM     20  H22 UNL     1      -4.427  17.902  49.516  1.00  0.00     0.174 HD
ATOM     21  H21 UNL     1      -3.132  16.700  49.529  1.00  0.00     0.174 HD
ENDBRANCH  11  19
BRANCH  14  22
HETATM   22  C6  UNL     1      -5.655  17.924  44.767  1.00  0.00     0.037 A 
HETATM   23  C5  UNL     1      -6.876  18.598  44.873  1.00  0.00     0.017 A 
HETATM   24  C4  UNL     1      -7.276  19.468  43.902  1.00  0.00     0.002 A 
HETATM   25  C3  UNL     1      -6.492  19.694  42.809  1.00  0.00     0.009 A 
HETATM   26  C2  UNL     1      -5.302  19.048  42.687  1.00  0.00    -0.033 A 
HETATM   27  C1  UNL     1      -4.410  19.267  41.504  1.00  0.00     0.050 C 
HETATM   28  C17 UNL     1      -4.853  18.141  43.670  1.00  0.00     0.070 A 
BRANCH  28  29
HETATM   29  N10 UNL     1      -3.591  17.509  43.445  1.00  0.00    -0.289 N 
HETATM   30  C18 UNL     1      -3.453  16.283  42.683  1.00  0.00     0.157 C 
HETATM   31  C19 UNL     1      -1.977  16.120  42.478  1.00  0.00     0.099 C 
HETATM   32  C20 UNL     1      -1.388  17.176  43.333  1.00  0.00     0.095 C 
HETATM   33  N12 UNL     1      -2.312  17.891  43.825  1.00  0.00    -0.286 N 
ATOM     34  H12 UNL     1      -2.131  18.679  44.446  1.00  0.00     0.188 HD
BRANCH  32  35
HETATM   35  N11 UNL     1       0.028  17.349  43.561  1.00  0.00    -0.378 N 
HETATM   36  C21 UNL     1       0.481  18.185  44.650  1.00  0.00     0.150 C 
HETATM   37  C22 UNL     1       0.982  16.688  42.702  1.00  0.00     0.150 C 
ENDBRANCH  32  35
ENDBRANCH  28  29
ENDBRANCH  14  22
BRANCH  18  38
HETATM   38  N8  UNL     1      -5.500  12.579  45.791  1.00  0.00    -0.357 N 
ATOM     39  H8  UNL     1      -5.325  11.579  45.886  1.00  0.00     0.162 HD
BRANCH  38  40
HETATM   40  C13 UNL     1      -6.221  13.030  44.635  1.00  0.00     0.249 C 
BRANCH  40  41
HETATM   41  O1  UNL     1      -7.360  12.321  44.381  1.00  0.00    -0.374 OA
ATOM     42  H1  UNL     1      -7.589  11.700  45.063  1.00  0.00     0.212 HD
ENDBRANCH  40  41
BRANCH  40  43
HETATM   43  C14 UNL     1      -5.311  13.014  43.429  1.00  0.00     0.190 C 
BRANCH  43  44
HETATM   44  O2  UNL     1      -4.557  11.833  43.445  1.00  0.00    -0.389 OA
ATOM     45  H2  UNL     1      -5.012  11.172  42.937  1.00  0.00     0.210 HD
ENDBRANCH  43  44
BRANCH  43  46
HETATM   46  C15 UNL     1      -6.093  13.132  42.136  1.00  0.00     0.200 C 
BRANCH  46  47
HETATM   47  O3  UNL     1      -6.476  11.873  41.686  1.00  0.00    -0.398 OA
ATOM     48  H3  UNL     1      -6.269  11.212  42.336  1.00  0.00     0.209 HD
ENDBRANCH  46  47
ENDBRANCH  43  46
ENDBRANCH  40  43
ENDBRANCH  38  40
ENDBRANCH  18  38
ENDBRANCH   1   7
TORSDOF 12
ENDMDL
MODEL 4
REMARK VINA RESULT: -4.900642432      8.891     14.800
REMARK  12 active torsions:
REMARK  status: ('A' for Active; 'I' for Inactive)
REMARK    1  A    between atoms: C6_6  and  C7_7 
REMARK    2  A    between atoms: C8_10  and  N2_11 
REMARK    3  A    between atoms: C9_17  and  C10_18 
REMARK    4  A    between atoms: C12_24  and  N8_25 
REMARK    5  A    between atoms: N8_25  and  C13_27 
REMARK    6  A    between atoms: C13_27  and  O1_28 
REMARK    7  A    between atoms: C13_27  and  C14_30 
REMARK    8  A    between atoms: C14_30  and  O2_31 
REMARK    9  A    between atoms: C14_30  and  C15_33 
REMARK   10  A    between atoms: C15_33  and  O3_34 
REMARK   11  A    between atoms: C17_39  and  N10_40 
REMARK   12  A    between atoms: C20_43  and  N11_44 
ROOT
HETATM    1  C10 UNL     1      -3.699   8.185  49.462  1.00  0.00     0.156 C 
HETATM    2  N5  UNL     1      -3.912   7.023  48.676  1.00  0.00    -0.079 NA
HETATM    3  N6  UNL     1      -3.877   9.322  48.912  1.00  0.00    -0.280 N 
ATOM      4  H6  UNL     1      -4.147   9.293  47.929  1.00  0.00     0.179 HD
HETATM    5  C11 UNL     1      -3.758  10.574  49.450  1.00  0.00     0.183 C 
HETATM    6  N7  UNL     1      -3.667  11.639  49.882  1.00  0.00    -0.172 NA
ENDROOT
BRANCH   1   7
HETATM    7  C9  UNL     1      -3.313   8.112  50.860  1.00  0.00     0.121 A 
HETATM    8  N4  UNL     1      -2.943   9.167  51.649  1.00  0.00    -0.272 N 
HETATM    9  N3  UNL     1      -2.672   8.755  52.880  1.00  0.00    -0.067 N 
ATOM     10  H4  UNL     1      -2.884  10.136  51.335  1.00  0.00     0.188 HD
HETATM   11  C8  UNL     1      -2.278   9.396  53.989  1.00  0.00     0.700 A 
HETATM   12  C16 UNL     1      -2.845   7.442  52.964  1.00  0.00     0.176 A 
HETATM   13  N1  UNL     1      -2.076   8.717  55.114  1.00  0.00    -0.174 N 
HETATM   14  C7  UNL     1      -2.238   7.395  55.246  1.00  0.00     0.135 A 
ATOM     15  H1  UNL     1      -1.778   9.242  55.935  1.00  0.00     0.186 HD
HETATM   16  N9  UNL     1      -2.632   6.759  54.132  1.00  0.00    -0.324 N 
ATOM     17  H9  UNL     1      -2.776   5.750  54.156  1.00  0.00     0.169 HD
HETATM   18  C12 UNL     1      -3.249   7.018  51.698  1.00  0.00     0.109 A 
BRANCH  11  19
HETATM   19  N2  UNL     1      -2.097  10.656  53.957  1.00  0.00    -0.233 N 
ATOM     20  H22 UNL     1      -2.107  11.189  54.826  1.00  0.00     0.174 HD
ATOM     21  H21 UNL     1      -1.944  11.132  53.068  1.00  0.00     0.174 HD
ENDBRANCH  11  19
BRANCH  14  22
HETATM   22  C6  UNL     1      -1.981   6.682  56.488  1.00  0.00     0.037 A 
HETATM   23  C5  UNL     1      -1.664   5.320  56.446  1.00  0.00     0.017 A 
HETATM   24  C4  UNL     1      -1.407   4.631  57.594  1.00  0.00     0.002 A 
HETATM   25  C3  UNL     1      -1.455   5.259  58.804  1.00  0.00     0.009 A 
HETATM   26  C2  UNL     1      -1.762   6.581  58.866  1.00  0.00    -0.033 A 
HETATM   27  C1  UNL     1      -1.826   7.311  60.173  1.00  0.00     0.050 C 
HETATM   28  C17 UNL     1      -2.035   7.329  57.701  1.00  0.00     0.070 A 
BRANCH  28  29
HETATM   29  N10 UNL     1      -2.352   8.712  57.874  1.00  0.00    -0.289 N 
HETATM   30  C18 UNL     1      -1.480   9.779  57.424  1.00  0.00     0.157 C 
HETATM   31  C19 UNL     1      -2.294  11.029  57.565  1.00  0.00     0.099 C 
HETATM   32  C20 UNL     1      -3.505  10.577  58.288  1.00  0.00     0.095 C 
HETATM   33  N12 UNL     1      -3.475   9.317  58.423  1.00  0.00    -0.286 N 
ATOM     34  H12 UNL     1      -4.211   8.793  58.894  1.00  0.00     0.188 HD
BRANCH  32  35
HETATM   35  N11 UNL     1      -4.550  11.454  58.763  1.00  0.00    -0.378 N 
HETATM   36  C21 UNL     1      -4.440  12.879  58.552  1.00  0.00     0.150 C 
HETATM   37  C22 UNL     1      -5.698  10.902  59.444  1.00  0.00     0.150 C 
ENDBRANCH  32  35
ENDBRANCH  28  29
ENDBRANCH  14  22
BRANCH  18  38
HETATM   38  N8  UNL     1      -3.498   5.654  51.361  1.00  0.00    -0.357 N 
ATOM     39  H8  UNL     1      -4.445   5.393  51.087  1.00  0.00     0.162 HD
BRANCH  38  40
HETATM   40  C13 UNL     1      -2.496   4.627  51.385  1.00  0.00     0.249 C 
BRANCH  40  41
HETATM   41  O1  UNL     1      -2.383   3.935  50.214  1.00  0.00    -0.374 OA
ATOM     42  H1  UNL     1      -2.690   3.038  50.263  1.00  0.00     0.212 HD
ENDBRANCH  40  41
BRANCH  40  43
HETATM   43  C14 UNL     1      -2.765   3.680  52.531  1.00  0.00     0.190 C 
BRANCH  43  44
HETATM   44  O2  UNL     1      -3.971   4.042  53.146  1.00  0.00    -0.389 OA
ATOM     45  H2  UNL     1      -4.560   3.297  53.131  1.00  0.00     0.210 HD
ENDBRANCH  43  44
BRANCH  43  46
HETATM   46  C15 UNL     1      -2.814   2.238  52.068  1.00  0.00     0.200 C 
BRANCH  46  47
HETATM   47  O3  UNL     1      -3.268   1.415  53.094  1.00  0.00    -0.398 OA
ATOM     48  H3  UNL     1      -2.582   0.816  53.364  1.00  0.00     0.209 HD
ENDBRANCH  46  47
ENDBRANCH  43  46
ENDBRANCH  40  43
ENDBRANCH  38  40
ENDBRANCH  18  38
ENDBRANCH   1   7
TORSDOF 12
ENDMDL
MODEL 5
REMARK VINA RESULT: -4.722122106      4.394      7.785
REMARK  12 active torsions:
REMARK  status: ('A' for Active; 'I' for Inactive)
REMARK    1  A    between atoms: C6_6  and  C7_7 
REMARK    2  A    between atoms: C8_10  and  N2_11 
REMARK    3  A    between atoms: C9_17  and  C10_18 
REMARK    4  A    between atoms: C12_24  and  N8_25 
REMARK    5  A    between atoms: N8_25  and  C13_27 
REMARK    6  A    between atoms: C13_27  and  O1_28 
REMARK    7  A    between atoms: C13_27  and  C14_30 
REMARK    8  A    between atoms: C14_30  and  O2_31 
REMARK    9  A    between atoms: C14_30  and  C15_33 
REMARK   10  A    between atoms: C15_33  and  O3_34 
REMARK   11  A    between atoms: C17_39  and  N10_40 
REMARK   12  A    between atoms: C20_43  and  N11_44 
ROOT
HETATM    1  C10 UNL     1      -1.727   9.549  53.022  1.00  0.00     0.156 C 
HETATM    2  N5  UNL     1      -0.748   8.569  52.717  1.00  0.00    -0.079 NA
HETATM    3  N6  UNL     1      -2.037   9.726  54.247  1.00  0.00    -0.280 N 
ATOM      4  H6  UNL     1      -1.554   9.120  54.910  1.00  0.00     0.179 HD
HETATM    5  C11 UNL     1      -2.923  10.609  54.799  1.00  0.00     0.183 C 
HETATM    6  N7  UNL     1      -3.663  11.347  55.287  1.00  0.00    -0.172 NA
ENDROOT
BRANCH   1   7
HETATM    7  C9  UNL     1      -2.355  10.360  51.994  1.00  0.00     0.121 A 
HETATM    8  N4  UNL     1      -2.613  11.703  52.075  1.00  0.00    -0.272 N 
HETATM    9  N3  UNL     1      -3.177  12.134  50.955  1.00  0.00    -0.067 N 
ATOM     10  H4  UNL     1      -2.400  12.289  52.882  1.00  0.00     0.188 HD
HETATM   11  C8  UNL     1      -3.606  13.340  50.558  1.00  0.00     0.700 A 
HETATM   12  C16 UNL     1      -3.317  11.127  50.103  1.00  0.00     0.176 A 
HETATM   13  N1  UNL     1      -4.144  13.492  49.352  1.00  0.00    -0.174 N 
HETATM   14  C7  UNL     1      -4.305  12.507  48.460  1.00  0.00     0.135 A 
ATOM     15  H1  UNL     1      -4.456  14.426  49.087  1.00  0.00     0.186 HD
HETATM   16  N9  UNL     1      -3.874  11.302  48.864  1.00  0.00    -0.324 N 
ATOM     17  H9  UNL     1      -3.964  10.502  48.237  1.00  0.00     0.169 HD
HETATM   18  C12 UNL     1      -2.804   9.999  50.741  1.00  0.00     0.109 A 
BRANCH  11  19
HETATM   19  N2  UNL     1      -3.494  14.337  51.342  1.00  0.00    -0.233 N 
ATOM     20  H22 UNL     1      -2.578  14.584  51.718  1.00  0.00     0.174 HD
ATOM     21  H21 UNL     1      -4.314  14.889  51.595  1.00  0.00     0.174 HD
ENDBRANCH  11  19
BRANCH  14  22
HETATM   22  C6  UNL     1      -4.924  12.706  47.158  1.00  0.00     0.037 A 
HETATM   23  C5  UNL     1      -5.400  11.599  46.447  1.00  0.00     0.017 A 
HETATM   24  C4  UNL     1      -5.995  11.758  45.231  1.00  0.00     0.002 A 
HETATM   25  C3  UNL     1      -6.137  13.001  44.687  1.00  0.00     0.009 A 
HETATM   26  C2  UNL     1      -5.680  14.089  45.362  1.00  0.00    -0.033 A 
HETATM   27  C1  UNL     1      -5.815  15.472  44.801  1.00  0.00     0.050 C 
HETATM   28  C17 UNL     1      -5.059  13.966  46.622  1.00  0.00     0.070 A 
BRANCH  28  29
HETATM   29  N10 UNL     1      -4.609  15.170  47.247  1.00  0.00    -0.289 N 
HETATM   30  C18 UNL     1      -3.248  15.656  47.123  1.00  0.00     0.157 C 
HETATM   31  C19 UNL     1      -3.278  17.040  47.698  1.00  0.00     0.099 C 
HETATM   32  C20 UNL     1      -4.630  17.139  48.295  1.00  0.00     0.095 C 
HETATM   33  N12 UNL     1      -5.298  16.099  48.014  1.00  0.00    -0.286 N 
ATOM     34  H12 UNL     1      -6.258  15.956  48.326  1.00  0.00     0.188 HD
BRANCH  32  35
HETATM   35  N11 UNL     1      -5.100  18.260  49.076  1.00  0.00    -0.378 N 
HETATM   36  C21 UNL     1      -4.179  18.968  49.937  1.00  0.00     0.150 C 
HETATM   37  C22 UNL     1      -6.483  18.666  48.994  1.00  0.00     0.150 C 
ENDBRANCH  32  35
ENDBRANCH  28  29
ENDBRANCH  14  22
BRANCH  18  38
HETATM   38  N8  UNL     1      -2.809   8.692  50.168  1.00  0.00    -0.357 N 
ATOM     39  H8  UNL     1      -2.136   8.490  49.429  1.00  0.00     0.162 HD
BRANCH  38  40
HETATM   40  C13 UNL     1      -3.704   7.645  50.568  1.00  0.00     0.249 C 
BRANCH  40  41
HETATM   41  O1  UNL     1      -4.671   8.045  51.444  1.00  0.00    -0.374 OA
ATOM     42  H1  UNL     1      -5.507   7.611  51.322  1.00  0.00     0.212 HD
ENDBRANCH  40  41
BRANCH  40  43
HETATM   43  C14 UNL     1      -2.915   6.493  51.146  1.00  0.00     0.190 C 
BRANCH  43  44
HETATM   44  O2  UNL     1      -3.113   6.458  52.533  1.00  0.00    -0.389 OA
ATOM     45  H2  UNL     1      -2.311   6.726  52.965  1.00  0.00     0.210 HD
ENDBRANCH  43  44
BRANCH  43  46
HETATM   46  C15 UNL     1      -3.308   5.172  50.517  1.00  0.00     0.200 C 
BRANCH  46  47
HETATM   47  O3  UNL     1      -4.071   4.421  51.405  1.00  0.00    -0.398 OA
ATOM     48  H3  UNL     1      -4.995   4.505  51.200  1.00  0.00     0.209 HD
ENDBRANCH  46  47
ENDBRANCH  43  46
ENDBRANCH  40  43
ENDBRANCH  38  40
ENDBRANCH  18  38
ENDBRANCH   1   7
TORSDOF 12
ENDMDL
