MODEL 1
REMARK VINA RESULT: -7.757560550      0.000      0.000
REMARK  12 active torsions:
REMARK  status: ('A' for Active; 'I' for Inactive)
REMARK    1  A    between atoms: C2_2  and  O1_3 
REMARK    2  A    between atoms: O1_3  and  C3_4 
REMARK    3  A    between atoms: C3_4  and  C4_6 
REMARK    4  A    between atoms: C4_6  and  C5_7 
REMARK    5  A    between atoms: C5_7  and  O3_8 
REMARK    6  A    between atoms: C5_7  and  C6_10 
REMARK    7  A    between atoms: C6_10  and  N1_11 
REMARK    8  A    between atoms: N2_14  and  C8_15 
REMARK    9  A    between atoms: C12_19  and  N3_20 
REMARK       I    between atoms: N3_20  and  C13_22 
REMARK       I    between atoms: C13_22  and  N4_24 
REMARK   10  A    between atoms: N4_24  and  N5_26 
REMARK   11  A    between atoms: C14_29  and  N6_30 
REMARK   12  A    between atoms: C17_36  and  N7_37 
ROOT
HETATM    1  N1  UNL     1      -2.921   5.417  54.684  1.00  0.00    -0.288 N 
HETATM    2  C7  UNL     1      -2.647   6.743  54.567  1.00  0.00     0.337 A 
HETATM    3  O4  UNL     1      -2.779   7.458  55.594  1.00  0.00    -0.246 OA
HETATM    4  N2  UNL     1      -2.256   7.207  53.374  1.00  0.00    -0.227 N 
HETATM    5  C15 UNL     1      -2.124   6.423  52.298  1.00  0.00     0.273 A 
HETATM    6  O8  UNL     1      -1.748   6.905  51.174  1.00  0.00    -0.266 OA
HETATM    7  C16 UNL     1      -2.392   5.049  52.356  1.00  0.00     0.112 A 
HETATM    8  C17 UNL     1      -2.318   4.114  51.397  1.00  0.00     0.123 A 
HETATM    9  N8  UNL     1      -2.632   2.857  51.719  1.00  0.00    -0.310 N 
ATOM     10  H8  UNL     1      -2.630   2.034  51.117  1.00  0.00     0.176 HD
HETATM   11  S1  UNL     1      -3.033   2.950  53.352  1.00  0.00     0.007 SA
HETATM   12  C18 UNL     1      -2.789   4.622  53.600  1.00  0.00     0.116 A 
ENDROOT
BRANCH   4  13
HETATM   13  C8  UNL     1      -1.974   8.587  53.260  1.00  0.00     0.082 A 
HETATM   14  C9  UNL     1      -0.926   9.112  53.980  1.00  0.00     0.033 A 
HETATM   15  C10 UNL     1      -0.707  10.457  53.827  1.00  0.00     0.005 A 
HETATM   16  C11 UNL     1      -1.512  11.241  52.980  1.00  0.00     0.032 A 
HETATM   17  C12 UNL     1      -2.557  10.691  52.269  1.00  0.00     0.071 A 
HETATM   18  C14 UNL     1      -2.785   9.308  52.425  1.00  0.00     0.157 A 
BRANCH  17  19
HETATM   19  N3  UNL     1      -3.390  11.432  51.405  1.00  0.00    -0.305 N 
HETATM   20  C13 UNL     1      -3.018  12.297  50.376  1.00  0.00     0.339 C 
HETATM   21  O5  UNL     1      -1.858  12.585  50.018  1.00  0.00    -0.245 OA
HETATM   22  N4  UNL     1      -4.049  12.956  49.611  1.00  0.00    -0.258 N 
ATOM     23  H4  UNL     1      -5.022  12.766  49.849  1.00  0.00     0.191 HD
ATOM     24  H3  UNL     1      -4.393  11.321  51.551  1.00  0.00     0.171 HD
BRANCH  22  25
HETATM   25  N5  UNL     1      -3.791  13.833  48.571  1.00  0.00    -0.341 N 
ATOM     26  H52 UNL     1      -2.954  13.660  48.014  1.00  0.00     0.177 HD
ATOM     27  H51 UNL     1      -4.386  14.629  48.342  1.00  0.00     0.177 HD
ENDBRANCH  22  25
ENDBRANCH  17  19
BRANCH  18  28
HETATM   28  N6  UNL     1      -3.868   8.739  51.690  1.00  0.00    -0.111 N 
HETATM   29  O6  UNL     1      -4.868   8.354  52.322  1.00  0.00    -0.532 OA
HETATM   30  O7  UNL     1      -3.872   8.593  50.331  1.00  0.00    -0.532 OA
ENDBRANCH  18  28
ENDBRANCH   4  13
BRANCH   1  31
HETATM   31  C6  UNL     1      -3.348   4.876  55.960  1.00  0.00     0.166 C 
BRANCH  31  32
HETATM   32  C5  UNL     1      -2.209   4.688  56.924  1.00  0.00     0.145 C 
BRANCH  32  33
HETATM   33  C4  UNL     1      -2.148   5.937  57.790  1.00  0.00     0.144 C 
BRANCH  33  34
HETATM   34  C3  UNL     1      -1.659   5.648  59.147  1.00  0.00     0.261 C 
HETATM   35  O2  UNL     1      -1.122   4.533  59.351  1.00  0.00    -0.265 OA
BRANCH  34  36
HETATM   36  O1  UNL     1      -1.789   6.572  60.154  1.00  0.00    -0.322 OA
BRANCH  36  37
HETATM   37  C2  UNL     1      -1.943   7.936  59.842  1.00  0.00     0.174 C 
HETATM   38  C1  UNL     1      -0.571   8.553  59.663  1.00  0.00     0.034 C 
ENDBRANCH  36  37
ENDBRANCH  34  36
ENDBRANCH  33  34
ENDBRANCH  32  33
BRANCH  32  39
HETATM   39  O3  UNL     1      -0.989   4.545  56.304  1.00  0.00    -0.393 OA
ATOM     40  H3  UNL     1      -0.494   3.891  56.785  1.00  0.00     0.210 HD
ENDBRANCH  32  39
ENDBRANCH  31  32
ENDBRANCH   1  31
BRANCH   8  41
HETATM   41  N7  UNL     1      -1.954   4.361  50.155  1.00  0.00    -0.384 N 
ATOM     42  H72 UNL     1      -1.851   5.335  49.872  1.00  0.00     0.157 HD
ATOM     43  H71 UNL     1      -1.770   3.638  49.461  1.00  0.00     0.157 HD
ENDBRANCH   8  41
TORSDOF 12
ENDMDL
MODEL 2
REMARK VINA RESULT: -6.212683743      2.634      5.071
REMARK  12 active torsions:
REMARK  status: ('A' for Active; 'I' for Inactive)
REMARK    1  A    between atoms: C2_2  and  O1_3 
REMARK    2  A    between atoms: O1_3  and  C3_4 
REMARK    3  A    between atoms: C3_4  and  C4_6 
REMARK    4  A    between atoms: C4_6  and  C5_7 
REMARK    5  A    between atoms: C5_7  and  O3_8 
REMARK    6  A    between atoms: C5_7  and  C6_10 
REMARK    7  A    between atoms: C6_10  and  N1_11 
REMARK    8  A    between atoms: N2_14  and  C8_15 
REMARK    9  A    between atoms: C12_19  and  N3_20 
REMARK       I    between atoms: N3_20  and  C13_22 
REMARK       I    between atoms: C13_22  and  N4_24 
REMARK   10  A    between atoms: N4_24  and  N5_26 
REMARK   11  A    between atoms: C14_29  and  N6_30 
REMARK   12  A    between atoms: C17_36  and  N7_37 
ROOT
HETATM    1  N1  UNL     1      -1.991   6.596  53.783  1.00  0.00    -0.288 N 
HETATM    2  C7  UNL     1      -1.977   7.747  53.061  1.00  0.00     0.337 A 
HETATM    3  O4  UNL     1      -1.741   7.660  51.828  1.00  0.00    -0.246 OA
HETATM    4  N2  UNL     1      -2.213   8.899  53.701  1.00  0.00    -0.227 N 
HETATM    5  C15 UNL     1      -2.461   8.963  55.014  1.00  0.00     0.273 A 
HETATM    6  O8  UNL     1      -2.683  10.084  55.589  1.00  0.00    -0.266 OA
HETATM    7  C16 UNL     1      -2.489   7.811  55.811  1.00  0.00     0.112 A 
HETATM    8  C17 UNL     1      -2.717   7.676  57.125  1.00  0.00     0.123 A 
HETATM    9  N8  UNL     1      -2.685   6.446  57.646  1.00  0.00    -0.310 N 
ATOM     10  H8  UNL     1      -2.835   6.170  58.616  1.00  0.00     0.176 HD
HETATM   11  S1  UNL     1      -2.341   5.461  56.326  1.00  0.00     0.007 SA
HETATM   12  C18 UNL     1      -2.241   6.656  55.109  1.00  0.00     0.116 A 
ENDROOT
BRANCH   4  13
HETATM   13  C8  UNL     1      -2.196  10.093  52.944  1.00  0.00     0.082 A 
HETATM   14  C9  UNL     1      -1.338  11.102  53.314  1.00  0.00     0.033 A 
HETATM   15  C10 UNL     1      -1.372  12.232  52.540  1.00  0.00     0.005 A 
HETATM   16  C11 UNL     1      -2.237  12.342  51.435  1.00  0.00     0.032 A 
HETATM   17  C12 UNL     1      -3.089  11.316  51.085  1.00  0.00     0.071 A 
HETATM   18  C14 UNL     1      -3.056  10.152  51.879  1.00  0.00     0.157 A 
BRANCH  17  19
HETATM   19  N3  UNL     1      -3.971  11.374  49.986  1.00  0.00    -0.305 N 
HETATM   20  C13 UNL     1      -4.005  12.310  48.953  1.00  0.00     0.339 C 
HETATM   21  O5  UNL     1      -3.249  13.291  48.801  1.00  0.00    -0.245 OA
HETATM   22  N4  UNL     1      -5.005  12.175  47.920  1.00  0.00    -0.258 N 
ATOM     23  H4  UNL     1      -5.658  11.394  47.981  1.00  0.00     0.191 HD
ATOM     24  H3  UNL     1      -4.675  10.637  49.942  1.00  0.00     0.171 HD
BRANCH  22  25
HETATM   25  N5  UNL     1      -5.127  13.048  46.852  1.00  0.00    -0.341 N 
ATOM     26  H52 UNL     1      -5.460  13.990  47.058  1.00  0.00     0.177 HD
ATOM     27  H51 UNL     1      -4.906  12.796  45.889  1.00  0.00     0.177 HD
ENDBRANCH  22  25
ENDBRANCH  17  19
BRANCH  18  28
HETATM   28  N6  UNL     1      -3.939   9.091  51.517  1.00  0.00    -0.111 N 
HETATM   29  O6  UNL     1      -4.810   8.747  52.336  1.00  0.00    -0.532 OA
HETATM   30  O7  UNL     1      -3.885   8.430  50.322  1.00  0.00    -0.532 OA
ENDBRANCH  18  28
ENDBRANCH   4  13
BRANCH   1  31
HETATM   31  C6  UNL     1      -1.738   5.327  53.127  1.00  0.00     0.166 C 
BRANCH  31  32
HETATM   32  C5  UNL     1      -2.988   4.695  52.581  1.00  0.00     0.145 C 
BRANCH  32  33
HETATM   33  C4  UNL     1      -2.563   3.769  51.452  1.00  0.00     0.144 C 
BRANCH  33  34
HETATM   34  C3  UNL     1      -2.466   2.367  51.890  1.00  0.00     0.261 C 
HETATM   35  O2  UNL     1      -3.327   1.946  52.699  1.00  0.00    -0.265 OA
BRANCH  34  36
HETATM   36  O1  UNL     1      -1.463   1.553  51.426  1.00  0.00    -0.322 OA
BRANCH  36  37
HETATM   37  C2  UNL     1      -0.773   1.889  50.247  1.00  0.00     0.174 C 
HETATM   38  C1  UNL     1       0.621   2.358  50.615  1.00  0.00     0.034 C 
ENDBRANCH  36  37
ENDBRANCH  34  36
ENDBRANCH  33  34
ENDBRANCH  32  33
BRANCH  32  39
HETATM   39  O3  UNL     1      -3.879   5.608  52.064  1.00  0.00    -0.393 OA
ATOM     40  H3  UNL     1      -4.470   5.865  52.762  1.00  0.00     0.210 HD
ENDBRANCH  32  39
ENDBRANCH  31  32
ENDBRANCH   1  31
BRANCH   8  41
HETATM   41  N7  UNL     1      -2.970   8.683  57.935  1.00  0.00    -0.384 N 
ATOM     42  H72 UNL     1      -3.417   9.511  57.543  1.00  0.00     0.157 HD
ATOM     43  H71 UNL     1      -2.746   8.685  58.930  1.00  0.00     0.157 HD
ENDBRANCH   8  41
TORSDOF 12
ENDMDL
MODEL 3
REMARK VINA RESULT: -6.092010276      9.166     13.361
REMARK  12 active torsions:
REMARK  status: ('A' for Active; 'I' for Inactive)
REMARK    1  A    between atoms: C2_2  and  O1_3 
REMARK    2  A    between atoms: O1_3  and  C3_4 
REMARK    3  A    between atoms: C3_4  and  C4_6 
REMARK    4  A    between atoms: C4_6  and  C5_7 
REMARK    5  A    between atoms: C5_7  and  O3_8 
REMARK    6  A    between atoms: C5_7  and  C6_10 
REMARK    7  A    between atoms: C6_10  and  N1_11 
REMARK    8  A    between atoms: N2_14  and  C8_15 
REMARK    9  A    between atoms: C12_19  and  N3_20 
REMARK       I    between atoms: N3_20  and  C13_22 
REMARK       I    between atoms: C13_22  and  N4_24 
REMARK   10  A    between atoms: N4_24  and  N5_26 
REMARK   11  A    between atoms: C14_29  and  N6_30 
REMARK   12  A    between atoms: C17_36  and  N7_37 
ROOT
HETATM    1  N1  UNL     1      -6.012  14.747  44.153  1.00  0.00    -0.288 N 
HETATM    2  C7  UNL     1      -5.152  15.659  44.677  1.00  0.00     0.337 A 
HETATM    3  O4  UNL     1      -4.221  15.230  45.407  1.00  0.00    -0.246 OA
HETATM    4  N2  UNL     1      -5.345  16.952  44.387  1.00  0.00    -0.227 N 
HETATM    5  C15 UNL     1      -6.344  17.379  43.608  1.00  0.00     0.273 A 
HETATM    6  O8  UNL     1      -6.496  18.624  43.354  1.00  0.00    -0.266 OA
HETATM    7  C16 UNL     1      -7.263  16.488  43.039  1.00  0.00     0.112 A 
HETATM    8  C17 UNL     1      -8.315  16.723  42.242  1.00  0.00     0.123 A 
HETATM    9  N8  UNL     1      -9.040  15.679  41.831  1.00  0.00    -0.310 N 
ATOM     10  H8  UNL     1      -9.863  15.683  41.230  1.00  0.00     0.176 HD
HETATM   11  S1  UNL     1      -8.276  14.358  42.541  1.00  0.00     0.007 SA
HETATM   12  C18 UNL     1      -7.022  15.175  43.364  1.00  0.00     0.116 A 
ENDROOT
BRANCH   4  13
HETATM   13  C8  UNL     1      -4.447  17.895  44.937  1.00  0.00     0.082 A 
HETATM   14  C9  UNL     1      -4.740  18.457  46.158  1.00  0.00     0.033 A 
HETATM   15  C10 UNL     1      -3.831  19.365  46.634  1.00  0.00     0.005 A 
HETATM   16  C11 UNL     1      -2.670  19.693  45.909  1.00  0.00     0.032 A 
HETATM   17  C12 UNL     1      -2.399  19.115  44.686  1.00  0.00     0.071 A 
HETATM   18  C14 UNL     1      -3.333  18.181  44.194  1.00  0.00     0.157 A 
BRANCH  17  19
HETATM   19  N3  UNL     1      -1.250  19.407  43.922  1.00  0.00    -0.305 N 
HETATM   20  C13 UNL     1       0.022  18.843  44.024  1.00  0.00     0.339 C 
HETATM   21  O5  UNL     1       0.392  17.959  44.823  1.00  0.00    -0.245 OA
HETATM   22  N4  UNL     1       1.061  19.296  43.129  1.00  0.00    -0.258 N 
ATOM     23  H4  UNL     1       0.828  20.018  42.447  1.00  0.00     0.191 HD
ATOM     24  H3  UNL     1      -1.363  20.121  43.203  1.00  0.00     0.171 HD
BRANCH  22  25
HETATM   25  N5  UNL     1       2.355  18.805  43.145  1.00  0.00    -0.341 N 
ATOM     26  H52 UNL     1       2.607  18.186  43.916  1.00  0.00     0.177 HD
ATOM     27  H51 UNL     1       3.053  19.030  42.437  1.00  0.00     0.177 HD
ENDBRANCH  22  25
ENDBRANCH  17  19
BRANCH  18  28
HETATM   28  N6  UNL     1      -3.053  17.585  42.928  1.00  0.00    -0.111 N 
HETATM   29  O6  UNL     1      -2.368  16.546  42.906  1.00  0.00    -0.532 OA
HETATM   30  O7  UNL     1      -3.493  18.089  41.736  1.00  0.00    -0.532 OA
ENDBRANCH  18  28
ENDBRANCH   4  13
BRANCH   1  31
HETATM   31  C6  UNL     1      -5.836  13.336  44.443  1.00  0.00     0.166 C 
BRANCH  31  32
HETATM   32  C5  UNL     1      -6.100  13.002  45.885  1.00  0.00     0.145 C 
BRANCH  32  33
HETATM   33  C4  UNL     1      -5.436  11.662  46.161  1.00  0.00     0.144 C 
BRANCH  33  34
HETATM   34  C3  UNL     1      -4.822  11.611  47.498  1.00  0.00     0.261 C 
HETATM   35  O2  UNL     1      -5.164  10.680  48.264  1.00  0.00    -0.265 OA
BRANCH  34  36
HETATM   36  O1  UNL     1      -3.905  12.555  47.887  1.00  0.00    -0.322 OA
BRANCH  36  37
HETATM   37  C2  UNL     1      -4.019  13.170  49.147  1.00  0.00     0.174 C 
HETATM   38  C1  UNL     1      -3.028  12.525  50.096  1.00  0.00     0.034 C 
ENDBRANCH  36  37
ENDBRANCH  34  36
ENDBRANCH  33  34
ENDBRANCH  32  33
BRANCH  32  39
HETATM   39  O3  UNL     1      -7.438  12.878  46.181  1.00  0.00    -0.393 OA
ATOM     40  H3  UNL     1      -7.511  12.588  47.082  1.00  0.00     0.210 HD
ENDBRANCH  32  39
ENDBRANCH  31  32
ENDBRANCH   1  31
BRANCH   8  41
HETATM   41  N7  UNL     1      -8.678  17.924  41.839  1.00  0.00    -0.384 N 
ATOM     42  H72 UNL     1      -9.443  18.383  42.332  1.00  0.00     0.157 HD
ATOM     43  H71 UNL     1      -8.240  18.421  41.064  1.00  0.00     0.157 HD
ENDBRANCH   8  41
TORSDOF 12
ENDMDL
MODEL 4
REMARK VINA RESULT: -6.042944027      2.778      5.180
REMARK  12 active torsions:
REMARK  status: ('A' for Active; 'I' for Inactive)
REMARK    1  A    between atoms: C2_2  and  O1_3 
REMARK    2  A    between atoms: O1_3  and  C3_4 
REMARK    3  A    between atoms: C3_4  and  C4_6 
REMARK    4  A    between atoms: C4_6  and  C5_7 
REMARK    5  A    between atoms: C5_7  and  O3_8 
REMARK    6  A    between atoms: C5_7  and  C6_10 
REMARK    7  A    between atoms: C6_10  and  N1_11 
REMARK    8  A    between atoms: N2_14  and  C8_15 
REMARK    9  A    between atoms: C12_19  and  N3_20 
REMARK       I    between atoms: N3_20  and  C13_22 
REMARK       I    between atoms: C13_22  and  N4_24 
REMARK   10  A    between atoms: N4_24  and  N5_26 
REMARK   11  A    between atoms: C14_29  and  N6_30 
REMARK   12  A    between atoms: C17_36  and  N7_37 
ROOT
HETATM    1  N1  UNL     1      -1.676   7.775  54.928  1.00  0.00    -0.288 N 
HETATM    2  C7  UNL     1      -1.668   8.674  53.908  1.00  0.00     0.337 A 
HETATM    3  O4  UNL     1      -1.154   8.314  52.818  1.00  0.00    -0.246 OA
HETATM    4  N2  UNL     1      -2.205   9.882  54.123  1.00  0.00    -0.227 N 
HETATM    5  C15 UNL     1      -2.745  10.237  55.294  1.00  0.00     0.273 A 
HETATM    6  O8  UNL     1      -3.249  11.402  55.460  1.00  0.00    -0.266 OA
HETATM    7  C16 UNL     1      -2.783   9.355  56.382  1.00  0.00     0.112 A 
HETATM    8  C17 UNL     1      -3.276   9.528  57.617  1.00  0.00     0.123 A 
HETATM    9  N8  UNL     1      -3.184   8.512  58.479  1.00  0.00    -0.310 N 
ATOM     10  H8  UNL     1      -3.504   8.477  59.446  1.00  0.00     0.176 HD
HETATM   11  S1  UNL     1      -2.416   7.304  57.593  1.00  0.00     0.007 SA
HETATM   12  C18 UNL     1      -2.221   8.131  56.111  1.00  0.00     0.116 A 
ENDROOT
BRANCH   4  13
HETATM   13  C8  UNL     1      -2.192  10.811  53.059  1.00  0.00     0.082 A 
HETATM   14  C9  UNL     1      -1.370  11.911  53.148  1.00  0.00     0.033 A 
HETATM   15  C10 UNL     1      -1.407  12.774  52.083  1.00  0.00     0.005 A 
HETATM   16  C11 UNL     1      -2.238  12.538  50.972  1.00  0.00     0.032 A 
HETATM   17  C12 UNL     1      -3.053  11.427  50.907  1.00  0.00     0.071 A 
HETATM   18  C14 UNL     1      -3.018  10.538  52.001  1.00  0.00     0.157 A 
BRANCH  17  19
HETATM   19  N3  UNL     1      -3.901  11.143  49.817  1.00  0.00    -0.305 N 
HETATM   20  C13 UNL     1      -4.122  11.908  48.672  1.00  0.00     0.339 C 
HETATM   21  O5  UNL     1      -3.605  13.008  48.389  1.00  0.00    -0.245 OA
HETATM   22  N4  UNL     1      -5.042  11.419  47.672  1.00  0.00    -0.258 N 
ATOM     23  H4  UNL     1      -5.502  10.524  47.837  1.00  0.00     0.191 HD
ATOM     24  H3  UNL     1      -4.418  10.266  49.872  1.00  0.00     0.171 HD
BRANCH  22  25
HETATM   25  N5  UNL     1      -5.335  12.097  46.502  1.00  0.00    -0.341 N 
ATOM     26  H52 UNL     1      -4.911  13.017  46.380  1.00  0.00     0.177 HD
ATOM     27  H51 UNL     1      -5.943  11.728  45.771  1.00  0.00     0.177 HD
ENDBRANCH  22  25
ENDBRANCH  17  19
BRANCH  18  28
HETATM   28  N6  UNL     1      -3.863   9.390  51.934  1.00  0.00    -0.111 N 
HETATM   29  O6  UNL     1      -4.788   9.293  52.761  1.00  0.00    -0.532 OA
HETATM   30  O7  UNL     1      -3.716   8.389  51.015  1.00  0.00    -0.532 OA
ENDBRANCH  18  28
ENDBRANCH   4  13
BRANCH   1  31
HETATM   31  C6  UNL     1      -1.103   6.457  54.734  1.00  0.00     0.166 C 
BRANCH  31  32
HETATM   32  C5  UNL     1      -2.147   5.381  54.618  1.00  0.00     0.145 C 
BRANCH  32  33
HETATM   33  C4  UNL     1      -2.569   5.326  53.158  1.00  0.00     0.144 C 
BRANCH  33  34
HETATM   34  C3  UNL     1      -3.075   3.998  52.775  1.00  0.00     0.261 C 
HETATM   35  O2  UNL     1      -3.760   3.368  53.616  1.00  0.00    -0.265 OA
BRANCH  34  36
HETATM   36  O1  UNL     1      -2.803   3.471  51.538  1.00  0.00    -0.322 OA
BRANCH  36  37
HETATM   37  C2  UNL     1      -1.489   3.495  51.036  1.00  0.00     0.174 C 
HETATM   38  C1  UNL     1      -1.061   2.075  50.722  1.00  0.00     0.034 C 
ENDBRANCH  36  37
ENDBRANCH  34  36
ENDBRANCH  33  34
ENDBRANCH  32  33
BRANCH  32  39
HETATM   39  O3  UNL     1      -3.270   5.626  55.373  1.00  0.00    -0.393 OA
ATOM     40  H3  UNL     1      -3.274   5.011  56.097  1.00  0.00     0.210 HD
ENDBRANCH  32  39
ENDBRANCH  31  32
ENDBRANCH   1  31
BRANCH   8  41
HETATM   41  N7  UNL     1      -3.846  10.641  58.032  1.00  0.00    -0.384 N 
ATOM     42  H72 UNL     1      -4.282  10.639  58.954  1.00  0.00     0.157 HD
ATOM     43  H71 UNL     1      -3.877  11.503  57.488  1.00  0.00     0.157 HD
ENDBRANCH   8  41
TORSDOF 12
ENDMDL
MODEL 5
REMARK VINA RESULT: -5.502402822      2.952      8.097
REMARK  12 active torsions:
REMARK  status: ('A' for Active; 'I' for Inactive)
REMARK    1  A    between atoms: C2_2  and  O1_3 
REMARK    2  A    between atoms: O1_3  and  C3_4 
REMARK    3  A    between atoms: C3_4  and  C4_6 
REMARK    4  A    between atoms: C4_6  and  C5_7 
REMARK    5  A    between atoms: C5_7  and  O3_8 
REMARK    6  A    between atoms: C5_7  and  C6_10 
REMARK    7  A    between atoms: C6_10  and  N1_11 
REMARK    8  A    between atoms: N2_14  and  C8_15 
REMARK    9  A    between atoms: C12_19  and  N3_20 
REMARK       I    between atoms: N3_20  and  C13_22 
REMARK       I    between atoms: C13_22  and  N4_24 
REMARK   10  A    between atoms: N4_24  and  N5_26 
REMARK   11  A    between atoms: C14_29  and  N6_30 
REMARK   12  A    between atoms: C17_36  and  N7_37 
ROOT
HETATM    1  N1  UNL     1      -2.888   9.776  54.288  1.00  0.00    -0.288 N 
HETATM    2  C7  UNL     1      -3.034   8.465  53.960  1.00  0.00     0.337 A 
HETATM    3  O4  UNL     1      -3.492   8.196  52.820  1.00  0.00    -0.246 OA
HETATM    4  N2  UNL     1      -2.683   7.543  54.865  1.00  0.00    -0.227 N 
HETATM    5  C15 UNL     1      -2.198   7.857  56.072  1.00  0.00     0.273 A 
HETATM    6  O8  UNL     1      -1.874   6.946  56.909  1.00  0.00    -0.266 OA
HETATM    7  C16 UNL     1      -2.024   9.190  56.467  1.00  0.00     0.112 A 
HETATM    8  C17 UNL     1      -1.559   9.696  57.618  1.00  0.00     0.123 A 
HETATM    9  N8  UNL     1      -1.494  11.024  57.741  1.00  0.00    -0.310 N 
ATOM     10  H8  UNL     1      -1.169  11.567  58.541  1.00  0.00     0.176 HD
HETATM   11  S1  UNL     1      -2.076  11.592  56.267  1.00  0.00     0.007 SA
HETATM   12  C18 UNL     1      -2.398  10.097  55.505  1.00  0.00     0.116 A 
ENDROOT
BRANCH   4  13
HETATM   13  C8  UNL     1      -2.839   6.181  54.518  1.00  0.00     0.082 A 
HETATM   14  C9  UNL     1      -3.567   5.363  55.350  1.00  0.00     0.033 A 
HETATM   15  C10 UNL     1      -3.679   4.055  54.957  1.00  0.00     0.005 A 
HETATM   16  C11 UNL     1      -3.080   3.589  53.772  1.00  0.00     0.032 A 
HETATM   17  C12 UNL     1      -2.354   4.430  52.955  1.00  0.00     0.071 A 
HETATM   18  C14 UNL     1      -2.238   5.776  53.356  1.00  0.00     0.157 A 
BRANCH  17  19
HETATM   19  N3  UNL     1      -1.737   4.014  51.756  1.00  0.00    -0.305 N 
HETATM   20  C13 UNL     1      -1.727   2.741  51.186  1.00  0.00     0.339 C 
HETATM   21  O5  UNL     1      -2.269   1.711  51.634  1.00  0.00    -0.245 OA
HETATM   22  N4  UNL     1      -1.026   2.540  49.940  1.00  0.00    -0.258 N 
ATOM     23  H4  UNL     1      -0.559   3.341  49.515  1.00  0.00     0.191 HD
ATOM     24  H3  UNL     1      -1.235   4.736  51.241  1.00  0.00     0.171 HD
BRANCH  22  25
HETATM   25  N5  UNL     1      -0.952   1.320  49.290  1.00  0.00    -0.341 N 
ATOM     26  H52 UNL     1      -0.126   1.149  48.716  1.00  0.00     0.177 HD
ATOM     27  H51 UNL     1      -1.671   0.600  49.355  1.00  0.00     0.177 HD
ENDBRANCH  22  25
ENDBRANCH  17  19
BRANCH  18  28
HETATM   28  N6  UNL     1      -1.484   6.645  52.511  1.00  0.00    -0.111 N 
HETATM   29  O6  UNL     1      -1.915   6.869  51.366  1.00  0.00    -0.532 OA
HETATM   30  O7  UNL     1      -0.316   7.246  52.887  1.00  0.00    -0.532 OA
ENDBRANCH  18  28
ENDBRANCH   4  13
BRANCH   1  31
HETATM   31  C6  UNL     1      -3.257  10.805  53.335  1.00  0.00     0.166 C 
BRANCH  31  32
HETATM   32  C5  UNL     1      -2.212  11.021  52.276  1.00  0.00     0.145 C 
BRANCH  32  33
HETATM   33  C4  UNL     1      -2.940  11.127  50.945  1.00  0.00     0.144 C 
BRANCH  33  34
HETATM   34  C3  UNL     1      -3.052  12.520  50.483  1.00  0.00     0.261 C 
HETATM   35  O2  UNL     1      -3.215  13.412  51.348  1.00  0.00    -0.265 OA
BRANCH  34  36
HETATM   36  O1  UNL     1      -2.979  12.825  49.147  1.00  0.00    -0.322 OA
BRANCH  36  37
HETATM   37  C2  UNL     1      -4.022  13.541  48.530  1.00  0.00     0.174 C 
HETATM   38  C1  UNL     1      -5.001  12.553  47.927  1.00  0.00     0.034 C 
ENDBRANCH  36  37
ENDBRANCH  34  36
ENDBRANCH  33  34
ENDBRANCH  32  33
BRANCH  32  39
HETATM   39  O3  UNL     1      -1.311   9.985  52.181  1.00  0.00    -0.393 OA
ATOM     40  H3  UNL     1      -0.576  10.187  52.749  1.00  0.00     0.210 HD
ENDBRANCH  32  39
ENDBRANCH  31  32
ENDBRANCH   1  31
BRANCH   8  41
HETATM   41  N7  UNL     1      -1.160   8.961  58.636  1.00  0.00    -0.384 N 
ATOM     42  H72 UNL     1      -1.029   7.961  58.482  1.00  0.00     0.157 HD
ATOM     43  H71 UNL     1      -0.975   9.331  59.568  1.00  0.00     0.157 HD
ENDBRANCH   8  41
TORSDOF 12
ENDMDL
