MODEL 1
REMARK VINA RESULT: -9.276357877      0.000      0.000
REMARK  15 active torsions:
REMARK  status: ('A' for Active; 'I' for Inactive)
REMARK    1  A    between atoms: C2_2  and  C4_4 
REMARK    2  A    between atoms: C2_2  and  N4_17 
REMARK    3  A    between atoms: C4_4  and  O1_5 
REMARK    4  A    between atoms: O1_5  and  C5_6 
REMARK    5  A    between atoms: C5_6  and  C6_8 
REMARK    6  A    between atoms: N4_17  and  C8_19 
REMARK    7  A    between atoms: C8_19  and  C9_20 
REMARK    8  A    between atoms: C9_20  and  N5_21 
REMARK    9  A    between atoms: N5_21  and  O4_22 
REMARK       I    between atoms: N5_21  and  C10_24 
REMARK   10  A    between atoms: C10_24  and  O6_26 
REMARK   11  A    between atoms: O6_26  and  C11_27 
REMARK   12  A    between atoms: C11_27  and  O7_28 
REMARK   13  A    between atoms: C11_27  and  C12_30 
REMARK   14  A    between atoms: C14_34  and  N7_35 
REMARK   15  A    between atoms: C15_40  and  N9_41 
ROOT
HETATM    1  N5  UNL     1      -3.240   9.037  52.360  1.00  0.00    -0.203 N 
HETATM    2  C10 UNL     1      -2.943  10.349  51.985  1.00  0.00     0.389 C 
HETATM    3  O5  UNL     1      -2.388  11.125  52.820  1.00  0.00    -0.236 OA
ENDROOT
BRANCH   2   4
HETATM    4  O6  UNL     1      -3.202  10.912  50.737  1.00  0.00    -0.263 OA
BRANCH   4   5
HETATM    5  C11 UNL     1      -3.140  12.298  50.533  1.00  0.00     0.345 C 
BRANCH   5   6
HETATM    6  O7  UNL     1      -1.711  12.571  50.320  1.00  0.00    -0.364 OA
ATOM      7  H7  UNL     1      -1.649  13.519  50.332  1.00  0.00     0.213 HD
ENDBRANCH   5   6
BRANCH   5   8
HETATM    8  C12 UNL     1      -3.846  12.732  49.312  1.00  0.00     0.182 A 
HETATM    9  N6  UNL     1      -3.819  13.894  48.649  1.00  0.00    -0.329 N 
HETATM   10  C13 UNL     1      -4.643  13.833  47.566  1.00  0.00     0.131 A 
ATOM     11  H6  UNL     1      -3.262  14.706  48.915  1.00  0.00     0.168 HD
HETATM   12  C14 UNL     1      -4.995  14.729  46.550  1.00  0.00     0.146 A 
HETATM   13  C16 UNL     1      -5.176  12.569  47.598  1.00  0.00     0.195 A 
HETATM   14  N8  UNL     1      -5.874  14.324  45.598  1.00  0.00    -0.175 N 
HETATM   15  C15 UNL     1      -6.403  13.085  45.624  1.00  0.00     0.679 A 
ATOM     16  H8  UNL     1      -6.139  14.968  44.852  1.00  0.00     0.186 HD
HETATM   17  N10 UNL     1      -6.051  12.244  46.604  1.00  0.00    -0.168 N 
ATOM     18  H10 UNL     1      -6.459  11.310  46.607  1.00  0.00     0.186 HD
HETATM   19  O8  UNL     1      -4.699  11.941  48.628  1.00  0.00    -0.273 OA
BRANCH  12  20
HETATM   20  N7  UNL     1      -4.468  15.882  46.573  1.00  0.00    -0.383 N 
ATOM     21  H72 UNL     1      -3.461  16.042  46.575  1.00  0.00     0.157 HD
ATOM     22  H71 UNL     1      -5.093  16.688  46.589  1.00  0.00     0.157 HD
ENDBRANCH  12  20
BRANCH  15  23
HETATM   23  N9  UNL     1      -7.249  12.722  44.690  1.00  0.00    -0.234 N 
ATOM     24  H92 UNL     1      -6.925  12.465  43.758  1.00  0.00     0.174 HD
ATOM     25  H91 UNL     1      -8.247  12.697  44.897  1.00  0.00     0.174 HD
ENDBRANCH  15  23
ENDBRANCH   5   8
ENDBRANCH   4   5
ENDBRANCH   2   4
BRANCH   1  26
HETATM   26  C9  UNL     1      -3.953   8.078  51.524  1.00  0.00     0.180 C 
BRANCH  26  27
HETATM   27  C8  UNL     1      -2.821   7.287  50.764  1.00  0.00     0.137 C 
BRANCH  27  28
HETATM   28  N4  UNL     1      -3.042   5.962  51.131  1.00  0.00    -0.410 N 
ATOM     29  H4  UNL     1      -3.889   5.515  50.779  1.00  0.00     0.154 HD
BRANCH  28  30
HETATM   30  C2  UNL     1      -2.203   5.190  51.943  1.00  0.00     0.040 C 
HETATM   31  C1  UNL     1      -1.660   3.986  51.236  1.00  0.00     0.040 C 
HETATM   32  C3  UNL     1      -0.909   6.033  52.269  1.00  0.00     0.040 C 
BRANCH  30  33
HETATM   33  C4  UNL     1      -2.901   4.947  53.257  1.00  0.00     0.208 C 
BRANCH  33  34
HETATM   34  O1  UNL     1      -2.602   5.792  54.301  1.00  0.00    -0.314 OA
BRANCH  34  35
HETATM   35  C5  UNL     1      -2.966   5.666  55.632  1.00  0.00     0.315 C 
HETATM   36  O2  UNL     1      -3.607   4.633  56.008  1.00  0.00    -0.257 OA
BRANCH  35  37
HETATM   37  C6  UNL     1      -2.646   6.672  56.639  1.00  0.00     0.171 A 
HETATM   38  N1  UNL     1      -2.861   8.020  56.545  1.00  0.00    -0.231 N 
HETATM   39  O3  UNL     1      -2.465   8.609  57.640  1.00  0.00    -0.132 OA
ATOM     40  H1  UNL     1      -3.269   8.494  55.739  1.00  0.00     0.197 HD
HETATM   41  N2  UNL     1      -1.987   7.749  58.491  1.00  0.00    -0.119 N 
HETATM   42  N3  UNL     1      -1.457   7.297  59.588  1.00  0.00    -0.238 N 
HETATM   43  C7  UNL     1      -2.085   6.486  57.879  1.00  0.00     0.177 A 
HETATM   44  S1  UNL     1      -1.407   5.674  59.217  1.00  0.00     0.029 SA
ATOM     45  H3  UNL     1      -1.159   7.791  60.430  1.00  0.00     0.198 HD
ENDBRANCH  35  37
ENDBRANCH  34  35
ENDBRANCH  33  34
ENDBRANCH  30  33
ENDBRANCH  28  30
ENDBRANCH  27  28
ENDBRANCH  26  27
ENDBRANCH   1  26
BRANCH   1  46
HETATM   46  O4  UNL     1      -2.832   8.650  53.610  1.00  0.00    -0.283 OA
ATOM     47  H4  UNL     1      -2.149   9.149  54.045  1.00  0.00     0.245 HD
ENDBRANCH   1  46
TORSDOF 15
ENDMDL
MODEL 2
REMARK VINA RESULT: -9.265447953      1.152      1.287
REMARK  15 active torsions:
REMARK  status: ('A' for Active; 'I' for Inactive)
REMARK    1  A    between atoms: C2_2  and  C4_4 
REMARK    2  A    between atoms: C2_2  and  N4_17 
REMARK    3  A    between atoms: C4_4  and  O1_5 
REMARK    4  A    between atoms: O1_5  and  C5_6 
REMARK    5  A    between atoms: C5_6  and  C6_8 
REMARK    6  A    between atoms: N4_17  and  C8_19 
REMARK    7  A    between atoms: C8_19  and  C9_20 
REMARK    8  A    between atoms: C9_20  and  N5_21 
REMARK    9  A    between atoms: N5_21  and  O4_22 
REMARK       I    between atoms: N5_21  and  C10_24 
REMARK   10  A    between atoms: C10_24  and  O6_26 
REMARK   11  A    between atoms: O6_26  and  C11_27 
REMARK   12  A    between atoms: C11_27  and  O7_28 
REMARK   13  A    between atoms: C11_27  and  C12_30 
REMARK   14  A    between atoms: C14_34  and  N7_35 
REMARK   15  A    between atoms: C15_40  and  N9_41 
ROOT
HETATM    1  N5  UNL     1      -3.270   9.183  52.448  1.00  0.00    -0.203 N 
HETATM    2  C10 UNL     1      -3.006  10.496  52.052  1.00  0.00     0.389 C 
HETATM    3  O5  UNL     1      -2.484  11.302  52.879  1.00  0.00    -0.236 OA
ENDROOT
BRANCH   2   4
HETATM    4  O6  UNL     1      -3.262  11.028  50.790  1.00  0.00    -0.263 OA
BRANCH   4   5
HETATM    5  C11 UNL     1      -3.144  12.402  50.538  1.00  0.00     0.345 C 
BRANCH   5   6
HETATM    6  O7  UNL     1      -1.707  12.606  50.305  1.00  0.00    -0.364 OA
ATOM      7  H7  UNL     1      -1.663  13.409  49.798  1.00  0.00     0.213 HD
ENDBRANCH   5   6
BRANCH   5   8
HETATM    8  C12 UNL     1      -3.842  12.823  49.308  1.00  0.00     0.182 A 
HETATM    9  N6  UNL     1      -3.788  13.968  48.618  1.00  0.00    -0.329 N 
HETATM   10  C13 UNL     1      -4.616  13.901  47.538  1.00  0.00     0.131 A 
ATOM     11  H6  UNL     1      -3.212  14.773  48.863  1.00  0.00     0.168 HD
HETATM   12  C14 UNL     1      -4.949  14.782  46.501  1.00  0.00     0.146 A 
HETATM   13  C16 UNL     1      -5.180  12.652  47.601  1.00  0.00     0.195 A 
HETATM   14  N8  UNL     1      -5.840  14.376  45.561  1.00  0.00    -0.175 N 
HETATM   15  C15 UNL     1      -6.398  13.151  45.618  1.00  0.00     0.679 A 
ATOM     16  H8  UNL     1      -6.091  15.007  44.800  1.00  0.00     0.186 HD
HETATM   17  N10 UNL     1      -6.065  12.325  46.616  1.00  0.00    -0.168 N 
ATOM     18  H10 UNL     1      -6.496  11.401  46.642  1.00  0.00     0.186 HD
HETATM   19  O8  UNL     1      -4.715  12.037  48.644  1.00  0.00    -0.273 OA
BRANCH  12  20
HETATM   20  N7  UNL     1      -4.395  15.921  46.496  1.00  0.00    -0.383 N 
ATOM     21  H72 UNL     1      -4.656  16.678  47.127  1.00  0.00     0.157 HD
ATOM     22  H71 UNL     1      -3.646  16.081  45.822  1.00  0.00     0.157 HD
ENDBRANCH  12  20
BRANCH  15  23
HETATM   23  N9  UNL     1      -7.255  12.786  44.694  1.00  0.00    -0.234 N 
ATOM     24  H92 UNL     1      -8.120  13.306  44.543  1.00  0.00     0.174 HD
ATOM     25  H91 UNL     1      -7.057  11.968  44.118  1.00  0.00     0.174 HD
ENDBRANCH  15  23
ENDBRANCH   5   8
ENDBRANCH   4   5
ENDBRANCH   2   4
BRANCH   1  26
HETATM   26  C9  UNL     1      -3.946   8.189  51.621  1.00  0.00     0.180 C 
BRANCH  26  27
HETATM   27  C8  UNL     1      -2.871   7.058  51.394  1.00  0.00     0.137 C 
BRANCH  27  28
HETATM   28  N4  UNL     1      -3.299   6.026  52.226  1.00  0.00    -0.410 N 
ATOM     29  H4  UNL     1      -4.284   6.019  52.492  1.00  0.00     0.154 HD
BRANCH  28  30
HETATM   30  C2  UNL     1      -2.494   4.998  52.730  1.00  0.00     0.040 C 
HETATM   31  C1  UNL     1      -3.252   3.726  52.954  1.00  0.00     0.040 C 
HETATM   32  C3  UNL     1      -1.439   4.601  51.625  1.00  0.00     0.040 C 
BRANCH  30  33
HETATM   33  C4  UNL     1      -1.710   5.535  53.900  1.00  0.00     0.208 C 
BRANCH  33  34
HETATM   34  O1  UNL     1      -2.423   6.077  54.946  1.00  0.00    -0.314 OA
BRANCH  34  35
HETATM   35  C5  UNL     1      -2.839   5.450  56.110  1.00  0.00     0.315 C 
HETATM   36  O2  UNL     1      -3.822   4.644  56.068  1.00  0.00    -0.257 OA
BRANCH  35  37
HETATM   37  C6  UNL     1      -2.195   5.670  57.401  1.00  0.00     0.171 A 
HETATM   38  N1  UNL     1      -1.340   4.817  58.045  1.00  0.00    -0.231 N 
HETATM   39  O3  UNL     1      -0.948   5.349  59.170  1.00  0.00    -0.132 OA
ATOM     40  H1  UNL     1      -1.054   3.902  57.697  1.00  0.00     0.197 HD
HETATM   41  N2  UNL     1      -1.479   6.523  59.346  1.00  0.00    -0.119 N 
HETATM   42  N3  UNL     1      -1.746   7.657  59.921  1.00  0.00    -0.238 N 
HETATM   43  C7  UNL     1      -2.293   6.765  58.225  1.00  0.00     0.177 A 
HETATM   44  S1  UNL     1      -2.783   8.299  58.786  1.00  0.00     0.029 SA
ATOM     45  H3  UNL     1      -1.417   8.042  60.807  1.00  0.00     0.198 HD
ENDBRANCH  35  37
ENDBRANCH  34  35
ENDBRANCH  33  34
ENDBRANCH  30  33
ENDBRANCH  28  30
ENDBRANCH  27  28
ENDBRANCH  26  27
ENDBRANCH   1  26
BRANCH   1  46
HETATM   46  O4  UNL     1      -2.869   8.831  53.711  1.00  0.00    -0.283 OA
ATOM     47  H4  UNL     1      -3.528   8.583  54.349  1.00  0.00     0.245 HD
ENDBRANCH   1  46
TORSDOF 15
ENDMDL
MODEL 3
REMARK VINA RESULT: -9.130092239      4.154      7.732
REMARK  15 active torsions:
REMARK  status: ('A' for Active; 'I' for Inactive)
REMARK    1  A    between atoms: C2_2  and  C4_4 
REMARK    2  A    between atoms: C2_2  and  N4_17 
REMARK    3  A    between atoms: C4_4  and  O1_5 
REMARK    4  A    between atoms: O1_5  and  C5_6 
REMARK    5  A    between atoms: C5_6  and  C6_8 
REMARK    6  A    between atoms: N4_17  and  C8_19 
REMARK    7  A    between atoms: C8_19  and  C9_20 
REMARK    8  A    between atoms: C9_20  and  N5_21 
REMARK    9  A    between atoms: N5_21  and  O4_22 
REMARK       I    between atoms: N5_21  and  C10_24 
REMARK   10  A    between atoms: C10_24  and  O6_26 
REMARK   11  A    between atoms: O6_26  and  C11_27 
REMARK   12  A    between atoms: C11_27  and  O7_28 
REMARK   13  A    between atoms: C11_27  and  C12_30 
REMARK   14  A    between atoms: C14_34  and  N7_35 
REMARK   15  A    between atoms: C15_40  and  N9_41 
ROOT
HETATM    1  N5  UNL     1      -2.628  10.574  52.579  1.00  0.00    -0.203 N 
HETATM    2  C10 UNL     1      -2.849   9.803  51.436  1.00  0.00     0.389 C 
HETATM    3  O5  UNL     1      -3.262  10.365  50.377  1.00  0.00    -0.236 OA
ENDROOT
BRANCH   2   4
HETATM    4  O6  UNL     1      -2.649   8.428  51.336  1.00  0.00    -0.263 OA
BRANCH   4   5
HETATM    5  C11 UNL     1      -3.676   7.517  51.620  1.00  0.00     0.345 C 
BRANCH   5   6
HETATM    6  O7  UNL     1      -4.644   7.708  50.529  1.00  0.00    -0.364 OA
ATOM      7  H7  UNL     1      -4.773   6.836  50.174  1.00  0.00     0.213 HD
ENDBRANCH   5   6
BRANCH   5   8
HETATM    8  C12 UNL     1      -3.232   6.112  51.558  1.00  0.00     0.182 A 
HETATM    9  N6  UNL     1      -3.619   5.038  52.257  1.00  0.00    -0.329 N 
HETATM   10  C13 UNL     1      -2.923   3.940  51.850  1.00  0.00     0.131 A 
ATOM     11  H6  UNL     1      -4.331   5.041  52.987  1.00  0.00     0.168 HD
HETATM   12  C14 UNL     1      -2.915   2.590  52.222  1.00  0.00     0.146 A 
HETATM   13  C16 UNL     1      -2.089   4.397  50.861  1.00  0.00     0.195 A 
HETATM   14  N8  UNL     1      -2.065   1.743  51.586  1.00  0.00    -0.175 N 
HETATM   15  C15 UNL     1      -1.243   2.186  50.615  1.00  0.00     0.679 A 
ATOM     16  H8  UNL     1      -2.049   0.757  51.848  1.00  0.00     0.186 HD
HETATM   17  N10 UNL     1      -1.268   3.479  50.274  1.00  0.00    -0.168 N 
ATOM     18  H10 UNL     1      -0.640   3.796  49.536  1.00  0.00     0.186 HD
HETATM   19  O8  UNL     1      -2.284   5.670  50.706  1.00  0.00    -0.273 OA
BRANCH  12  20
HETATM   20  N7  UNL     1      -3.708   2.228  53.141  1.00  0.00    -0.383 N 
ATOM     21  H72 UNL     1      -4.296   2.876  53.666  1.00  0.00     0.157 HD
ATOM     22  H71 UNL     1      -3.757   1.234  53.361  1.00  0.00     0.157 HD
ENDBRANCH  12  20
BRANCH  15  23
HETATM   23  N9  UNL     1      -0.434   1.343  50.018  1.00  0.00    -0.234 N 
ATOM     24  H92 UNL     1       0.041   0.608  50.542  1.00  0.00     0.174 HD
ATOM     25  H91 UNL     1      -0.274   1.425  49.014  1.00  0.00     0.174 HD
ENDBRANCH  15  23
ENDBRANCH   5   8
ENDBRANCH   4   5
ENDBRANCH   2   4
BRANCH   1  26
HETATM   26  C9  UNL     1      -2.239  10.035  53.878  1.00  0.00     0.180 C 
BRANCH  26  27
HETATM   27  C8  UNL     1      -3.250  10.682  54.901  1.00  0.00     0.137 C 
BRANCH  27  28
HETATM   28  N4  UNL     1      -3.161   9.854  56.018  1.00  0.00    -0.410 N 
ATOM     29  H4  UNL     1      -3.386   8.868  55.887  1.00  0.00     0.154 HD
BRANCH  28  30
HETATM   30  C2  UNL     1      -2.790  10.260  57.305  1.00  0.00     0.040 C 
HETATM   31  C1  UNL     1      -1.411  10.843  57.353  1.00  0.00     0.040 C 
HETATM   32  C3  UNL     1      -3.709  11.470  57.733  1.00  0.00     0.040 C 
BRANCH  30  33
HETATM   33  C4  UNL     1      -3.085   9.135  58.264  1.00  0.00     0.208 C 
BRANCH  33  34
HETATM   34  O1  UNL     1      -2.010   8.478  58.820  1.00  0.00    -0.314 OA
BRANCH  34  35
HETATM   35  C5  UNL     1      -1.935   7.153  59.219  1.00  0.00     0.315 C 
HETATM   36  O2  UNL     1      -2.045   6.866  60.453  1.00  0.00    -0.257 OA
BRANCH  35  37
HETATM   37  C6  UNL     1      -1.734   6.054  58.281  1.00  0.00     0.171 A 
HETATM   38  N1  UNL     1      -1.281   4.797  58.578  1.00  0.00    -0.231 N 
HETATM   39  O3  UNL     1      -1.241   4.073  57.494  1.00  0.00    -0.132 OA
ATOM     40  H1  UNL     1      -1.015   4.474  59.509  1.00  0.00     0.197 HD
HETATM   41  N2  UNL     1      -1.639   4.752  56.458  1.00  0.00    -0.119 N 
HETATM   42  N3  UNL     1      -1.939   5.008  55.220  1.00  0.00    -0.238 N 
HETATM   43  C7  UNL     1      -1.964   6.038  56.926  1.00  0.00     0.177 A 
HETATM   44  S1  UNL     1      -2.416   6.596  55.380  1.00  0.00     0.029 SA
ATOM     45  H3  UNL     1      -1.894   4.412  54.393  1.00  0.00     0.198 HD
ENDBRANCH  35  37
ENDBRANCH  34  35
ENDBRANCH  33  34
ENDBRANCH  30  33
ENDBRANCH  28  30
ENDBRANCH  27  28
ENDBRANCH  26  27
ENDBRANCH   1  26
BRANCH   1  46
HETATM   46  O4  UNL     1      -2.807  11.927  52.450  1.00  0.00    -0.283 OA
ATOM     47  H4  UNL     1      -3.664  12.255  52.204  1.00  0.00     0.245 HD
ENDBRANCH   1  46
TORSDOF 15
ENDMDL
MODEL 4
REMARK VINA RESULT: -9.086954406      0.764      1.457
REMARK  15 active torsions:
REMARK  status: ('A' for Active; 'I' for Inactive)
REMARK    1  A    between atoms: C2_2  and  C4_4 
REMARK    2  A    between atoms: C2_2  and  N4_17 
REMARK    3  A    between atoms: C4_4  and  O1_5 
REMARK    4  A    between atoms: O1_5  and  C5_6 
REMARK    5  A    between atoms: C5_6  and  C6_8 
REMARK    6  A    between atoms: N4_17  and  C8_19 
REMARK    7  A    between atoms: C8_19  and  C9_20 
REMARK    8  A    between atoms: C9_20  and  N5_21 
REMARK    9  A    between atoms: N5_21  and  O4_22 
REMARK       I    between atoms: N5_21  and  C10_24 
REMARK   10  A    between atoms: C10_24  and  O6_26 
REMARK   11  A    between atoms: O6_26  and  C11_27 
REMARK   12  A    between atoms: C11_27  and  O7_28 
REMARK   13  A    between atoms: C11_27  and  C12_30 
REMARK   14  A    between atoms: C14_34  and  N7_35 
REMARK   15  A    between atoms: C15_40  and  N9_41 
ROOT
HETATM    1  N5  UNL     1      -3.269   8.993  52.224  1.00  0.00    -0.203 N 
HETATM    2  C10 UNL     1      -2.988  10.331  51.941  1.00  0.00     0.389 C 
HETATM    3  O5  UNL     1      -2.393  11.039  52.809  1.00  0.00    -0.236 OA
ENDROOT
BRANCH   2   4
HETATM    4  O6  UNL     1      -3.303  10.992  50.756  1.00  0.00    -0.263 OA
BRANCH   4   5
HETATM    5  C11 UNL     1      -3.149  12.380  50.629  1.00  0.00     0.345 C 
BRANCH   5   6
HETATM    6  O7  UNL     1      -1.699  12.574  50.485  1.00  0.00    -0.364 OA
ATOM      7  H7  UNL     1      -1.612  13.136  49.724  1.00  0.00     0.213 HD
ENDBRANCH   5   6
BRANCH   5   8
HETATM    8  C12 UNL     1      -3.778  12.918  49.408  1.00  0.00     0.182 A 
HETATM    9  N6  UNL     1      -4.368  12.300  48.378  1.00  0.00    -0.329 N 
HETATM   10  C13 UNL     1      -4.805  13.216  47.470  1.00  0.00     0.131 A 
ATOM     11  H6  UNL     1      -4.475  11.289  48.286  1.00  0.00     0.168 HD
HETATM   12  C14 UNL     1      -5.471  13.139  46.241  1.00  0.00     0.146 A 
HETATM   13  C16 UNL     1      -4.454  14.433  47.999  1.00  0.00     0.195 A 
HETATM   14  N8  UNL     1      -5.762  14.290  45.582  1.00  0.00    -0.175 N 
HETATM   15  C15 UNL     1      -5.418  15.488  46.096  1.00  0.00     0.679 A 
ATOM     16  H8  UNL     1      -6.246  14.248  44.686  1.00  0.00     0.186 HD
HETATM   17  N10 UNL     1      -4.784  15.539  47.273  1.00  0.00    -0.168 N 
ATOM     18  H10 UNL     1      -4.535  16.454  47.647  1.00  0.00     0.186 HD
HETATM   19  O8  UNL     1      -3.853  14.237  49.132  1.00  0.00    -0.273 OA
BRANCH  12  20
HETATM   20  N7  UNL     1      -5.769  11.987  45.805  1.00  0.00    -0.383 N 
ATOM     21  H72 UNL     1      -5.114  11.386  45.307  1.00  0.00     0.157 HD
ATOM     22  H71 UNL     1      -6.719  11.651  45.966  1.00  0.00     0.157 HD
ENDBRANCH  12  20
BRANCH  15  23
HETATM   23  N9  UNL     1      -5.714  16.583  45.437  1.00  0.00    -0.234 N 
ATOM     24  H92 UNL     1      -5.128  17.415  45.510  1.00  0.00     0.174 HD
ATOM     25  H91 UNL     1      -6.543  16.606  44.844  1.00  0.00     0.174 HD
ENDBRANCH  15  23
ENDBRANCH   5   8
ENDBRANCH   4   5
ENDBRANCH   2   4
BRANCH   1  26
HETATM   26  C9  UNL     1      -4.022   8.103  51.347  1.00  0.00     0.180 C 
BRANCH  26  27
HETATM   27  C8  UNL     1      -2.936   7.155  50.708  1.00  0.00     0.137 C 
BRANCH  27  28
HETATM   28  N4  UNL     1      -3.225   5.907  51.256  1.00  0.00    -0.410 N 
ATOM     29  H4  UNL     1      -4.156   5.526  51.083  1.00  0.00     0.154 HD
BRANCH  28  30
HETATM   30  C2  UNL     1      -2.349   5.132  52.024  1.00  0.00     0.040 C 
HETATM   31  C1  UNL     1      -1.912   3.884  51.320  1.00  0.00     0.040 C 
HETATM   32  C3  UNL     1      -1.002   5.933  52.210  1.00  0.00     0.040 C 
BRANCH  30  33
HETATM   33  C4  UNL     1      -2.943   4.961  53.399  1.00  0.00     0.208 C 
BRANCH  33  34
HETATM   34  O1  UNL     1      -2.530   5.833  54.382  1.00  0.00    -0.314 OA
BRANCH  34  35
HETATM   35  C5  UNL     1      -2.875   5.831  55.723  1.00  0.00     0.315 C 
HETATM   36  O2  UNL     1      -3.444   4.807  56.220  1.00  0.00    -0.257 OA
BRANCH  35  37
HETATM   37  C6  UNL     1      -2.615   6.961  56.610  1.00  0.00     0.171 A 
HETATM   38  N1  UNL     1      -2.786   8.287  56.316  1.00  0.00    -0.231 N 
HETATM   39  O3  UNL     1      -2.468   9.014  57.352  1.00  0.00    -0.132 OA
ATOM     40  H1  UNL     1      -3.113   8.652  55.422  1.00  0.00     0.197 HD
HETATM   41  N2  UNL     1      -2.085   8.272  58.349  1.00  0.00    -0.119 N 
HETATM   42  N3  UNL     1      -1.661   7.967  59.539  1.00  0.00    -0.238 N 
HETATM   43  C7  UNL     1      -2.165   6.938  57.907  1.00  0.00     0.177 A 
HETATM   44  S1  UNL     1      -1.622   6.308  59.395  1.00  0.00     0.029 SA
ATOM     45  H3  UNL     1      -1.421   8.567  60.328  1.00  0.00     0.198 HD
ENDBRANCH  35  37
ENDBRANCH  34  35
ENDBRANCH  33  34
ENDBRANCH  30  33
ENDBRANCH  28  30
ENDBRANCH  27  28
ENDBRANCH  26  27
ENDBRANCH   1  26
BRANCH   1  46
HETATM   46  O4  UNL     1      -2.803   8.508  53.419  1.00  0.00    -0.283 OA
ATOM     47  H4  UNL     1      -3.313   7.849  53.876  1.00  0.00     0.245 HD
ENDBRANCH   1  46
TORSDOF 15
ENDMDL
MODEL 5
REMARK VINA RESULT: -9.012682475      2.949      4.616
REMARK  15 active torsions:
REMARK  status: ('A' for Active; 'I' for Inactive)
REMARK    1  A    between atoms: C2_2  and  C4_4 
REMARK    2  A    between atoms: C2_2  and  N4_17 
REMARK    3  A    between atoms: C4_4  and  O1_5 
REMARK    4  A    between atoms: O1_5  and  C5_6 
REMARK    5  A    between atoms: C5_6  and  C6_8 
REMARK    6  A    between atoms: N4_17  and  C8_19 
REMARK    7  A    between atoms: C8_19  and  C9_20 
REMARK    8  A    between atoms: C9_20  and  N5_21 
REMARK    9  A    between atoms: N5_21  and  O4_22 
REMARK       I    between atoms: N5_21  and  C10_24 
REMARK   10  A    between atoms: C10_24  and  O6_26 
REMARK   11  A    between atoms: O6_26  and  C11_27 
REMARK   12  A    between atoms: C11_27  and  O7_28 
REMARK   13  A    between atoms: C11_27  and  C12_30 
REMARK   14  A    between atoms: C14_34  and  N7_35 
REMARK   15  A    between atoms: C15_40  and  N9_41 
ROOT
HETATM    1  N5  UNL     1      -3.294  12.392  50.637  1.00  0.00    -0.203 N 
HETATM    2  C10 UNL     1      -3.773  12.719  49.366  1.00  0.00     0.389 C 
HETATM    3  O5  UNL     1      -4.222  13.885  49.152  1.00  0.00    -0.236 OA
ENDROOT
BRANCH   2   4
HETATM    4  O6  UNL     1      -3.806  11.862  48.268  1.00  0.00    -0.263 OA
BRANCH   4   5
HETATM    5  C11 UNL     1      -5.013  11.335  47.788  1.00  0.00     0.345 C 
BRANCH   5   6
HETATM    6  O7  UNL     1      -5.998  11.677  48.825  1.00  0.00    -0.364 OA
ATOM      7  H7  UNL     1      -6.576  12.302  48.403  1.00  0.00     0.213 HD
ENDBRANCH   5   6
BRANCH   5   8
HETATM    8  C12 UNL     1      -5.465  11.977  46.539  1.00  0.00     0.182 A 
HETATM    9  N6  UNL     1      -4.897  12.040  45.329  1.00  0.00    -0.329 N 
HETATM   10  C13 UNL     1      -5.689  12.748  44.477  1.00  0.00     0.131 A 
ATOM     11  H6  UNL     1      -4.001  11.619  45.081  1.00  0.00     0.168 HD
HETATM   12  C14 UNL     1      -5.595  13.119  43.130  1.00  0.00     0.146 A 
HETATM   13  C16 UNL     1      -6.777  13.114  45.228  1.00  0.00     0.195 A 
HETATM   14  N8  UNL     1      -6.601  13.849  42.582  1.00  0.00    -0.175 N 
HETATM   15  C15 UNL     1      -7.671  14.213  43.315  1.00  0.00     0.679 A 
ATOM     16  H8  UNL     1      -6.545  14.126  41.602  1.00  0.00     0.186 HD
HETATM   17  N10 UNL     1      -7.742  13.846  44.600  1.00  0.00    -0.168 N 
ATOM     18  H10 UNL     1      -8.560  14.129  45.138  1.00  0.00     0.186 HD
HETATM   19  O8  UNL     1      -6.627  12.655  46.432  1.00  0.00    -0.273 OA
BRANCH  12  20
HETATM   20  N7  UNL     1      -4.567  12.750  42.488  1.00  0.00    -0.383 N 
ATOM     21  H72 UNL     1      -3.923  12.032  42.820  1.00  0.00     0.157 HD
ATOM     22  H71 UNL     1      -4.381  13.199  41.592  1.00  0.00     0.157 HD
ENDBRANCH  12  20
BRANCH  15  23
HETATM   23  N9  UNL     1      -8.628  14.917  42.758  1.00  0.00    -0.234 N 
ATOM     24  H92 UNL     1      -8.443  15.844  42.373  1.00  0.00     0.174 HD
ATOM     25  H91 UNL     1      -9.572  14.535  42.711  1.00  0.00     0.174 HD
ENDBRANCH  15  23
ENDBRANCH   5   8
ENDBRANCH   4   5
ENDBRANCH   2   4
BRANCH   1  26
HETATM   26  C9  UNL     1      -2.835  11.064  51.031  1.00  0.00     0.180 C 
BRANCH  26  27
HETATM   27  C8  UNL     1      -2.878  11.076  52.607  1.00  0.00     0.137 C 
BRANCH  27  28
HETATM   28  N4  UNL     1      -2.655   9.745  52.952  1.00  0.00    -0.410 N 
ATOM     29  H4  UNL     1      -3.108   9.032  52.380  1.00  0.00     0.154 HD
BRANCH  28  30
HETATM   30  C2  UNL     1      -1.863   9.301  54.017  1.00  0.00     0.040 C 
HETATM   31  C1  UNL     1      -0.433   9.084  53.624  1.00  0.00     0.040 C 
HETATM   32  C3  UNL     1      -1.771  10.456  55.089  1.00  0.00     0.040 C 
BRANCH  30  33
HETATM   33  C4  UNL     1      -2.564   8.147  54.686  1.00  0.00     0.208 C 
BRANCH  33  34
HETATM   34  O1  UNL     1      -1.865   6.968  54.815  1.00  0.00    -0.314 OA
BRANCH  34  35
HETATM   35  C5  UNL     1      -2.370   5.680  54.877  1.00  0.00     0.315 C 
HETATM   36  O2  UNL     1      -2.353   5.054  55.984  1.00  0.00    -0.257 OA
BRANCH  35  37
HETATM   37  C6  UNL     1      -2.931   4.993  53.717  1.00  0.00     0.171 A 
HETATM   38  N1  UNL     1      -3.550   3.773  53.709  1.00  0.00    -0.231 N 
HETATM   39  O3  UNL     1      -3.938   3.481  52.498  1.00  0.00    -0.132 OA
ATOM     40  H1  UNL     1      -3.688   3.180  54.528  1.00  0.00     0.197 HD
HETATM   41  N2  UNL     1      -3.625   4.427  51.662  1.00  0.00    -0.119 N 
HETATM   42  N3  UNL     1      -3.528   5.062  50.532  1.00  0.00    -0.238 N 
HETATM   43  C7  UNL     1      -2.970   5.421  52.412  1.00  0.00     0.177 A 
HETATM   44  S1  UNL     1      -2.732   6.428  51.057  1.00  0.00     0.029 SA
ATOM     45  H3  UNL     1      -3.846   4.801  49.598  1.00  0.00     0.198 HD
ENDBRANCH  35  37
ENDBRANCH  34  35
ENDBRANCH  33  34
ENDBRANCH  30  33
ENDBRANCH  28  30
ENDBRANCH  27  28
ENDBRANCH  26  27
ENDBRANCH   1  26
BRANCH   1  46
HETATM   46  O4  UNL     1      -3.273  13.402  51.562  1.00  0.00    -0.283 OA
ATOM     47  H4  UNL     1      -4.004  14.008  51.598  1.00  0.00     0.245 HD
ENDBRANCH   1  46
TORSDOF 15
ENDMDL
