MODEL 1
REMARK VINA RESULT: -5.045959928      0.000      0.000
REMARK  5 active torsions:
REMARK  status: ('A' for Active; 'I' for Inactive)
REMARK    1  A    between atoms: N2_4  and  C1_6 
REMARK    2  A    between atoms: C1_6  and  O1_7 
REMARK    3  A    between atoms: C1_6  and  C2_9 
REMARK    4  A    between atoms: N3_14  and  C7_15 
REMARK    5  A    between atoms: C7_15  and  O2_16 
ROOT
HETATM    1  C2  UNL     1      23.213  19.750  15.256  1.00  0.00     0.246 C 
HETATM    2  C3  UNL     1      22.817  21.075  15.855  1.00  0.00     0.023 C 
HETATM    3  C4  UNL     1      23.929  22.056  15.513  1.00  0.00     0.008 C 
HETATM    4  C5  UNL     1      25.109  21.402  14.882  1.00  0.00     0.028 C 
HETATM    5  C6  UNL     1      25.496  20.089  15.473  1.00  0.00     0.240 C 
HETATM    6  N3  UNL     1      24.337  19.379  16.043  1.00  0.00    -0.038 N 
HETATM    7  C8  UNL     1      24.098  19.846  17.396  1.00  0.00     0.241 C 
HETATM    8  C9  UNL     1      22.958  20.806  17.359  1.00  0.00     0.035 C 
ENDROOT
BRANCH   1   9
HETATM    9  C1  UNL     1      22.105  18.773  15.145  1.00  0.00     0.264 C 
BRANCH   9  10
HETATM   10  N2  UNL     1      20.833  19.311  14.866  1.00  0.00    -0.312 N 
HETATM   11  N1  UNL     1      20.511  19.629  13.686  1.00  0.00    -0.347 N 
ATOM     12  H12 UNL     1      21.191  19.489  12.938  1.00  0.00     0.176 HD
ATOM     13  H11 UNL     1      19.590  20.018  13.484  1.00  0.00     0.176 HD
ATOM     14  H2  UNL     1      20.166  19.444  15.625  1.00  0.00     0.182 HD
ENDBRANCH   9  10
BRANCH   9  15
HETATM   15  O1  UNL     1      22.456  17.885  14.098  1.00  0.00    -0.373 OA
ATOM     16  H1  UNL     1      23.274  18.179  13.715  1.00  0.00     0.212 HD
ENDBRANCH   9  15
ENDBRANCH   1   9
BRANCH   6  17
HETATM   17  C7  UNL     1      24.672  17.991  16.039  1.00  0.00     0.402 C 
BRANCH  17  18
HETATM   18  O2  UNL     1      25.424  17.747  14.866  1.00  0.00    -0.374 OA
ATOM     19  H2  UNL     1      25.852  16.906  14.978  1.00  0.00     0.211 HD
ENDBRANCH  17  18
ENDBRANCH   6  17
TORSDOF 5
ENDMDL
MODEL 2
REMARK VINA RESULT: -4.762456448      2.281      3.556
REMARK  5 active torsions:
REMARK  status: ('A' for Active; 'I' for Inactive)
REMARK    1  A    between atoms: N2_4  and  C1_6 
REMARK    2  A    between atoms: C1_6  and  O1_7 
REMARK    3  A    between atoms: C1_6  and  C2_9 
REMARK    4  A    between atoms: N3_14  and  C7_15 
REMARK    5  A    between atoms: C7_15  and  O2_16 
ROOT
HETATM    1  C2  UNL     1      22.420  19.560  16.096  1.00  0.00     0.246 C 
HETATM    2  C3  UNL     1      20.979  19.588  15.654  1.00  0.00     0.023 C 
HETATM    3  C4  UNL     1      20.330  18.328  16.207  1.00  0.00     0.008 C 
HETATM    4  C5  UNL     1      21.309  17.394  16.829  1.00  0.00     0.028 C 
HETATM    5  C6  UNL     1      22.599  17.248  16.097  1.00  0.00     0.240 C 
HETATM    6  N3  UNL     1      22.950  18.472  15.351  1.00  0.00    -0.038 N 
HETATM    7  C8  UNL     1      22.287  18.460  14.061  1.00  0.00     0.241 C 
HETATM    8  C9  UNL     1      21.098  19.356  14.142  1.00  0.00     0.035 C 
ENDROOT
BRANCH   1   9
HETATM    9  C1  UNL     1      23.117  20.862  15.991  1.00  0.00     0.264 C 
BRANCH   9  10
HETATM   10  N2  UNL     1      22.355  21.932  15.484  1.00  0.00    -0.312 N 
HETATM   11  N1  UNL     1      22.806  22.666  14.558  1.00  0.00    -0.347 N 
ATOM     12  H12 UNL     1      23.735  22.467  14.185  1.00  0.00     0.176 HD
ATOM     13  H11 UNL     1      22.254  23.441  14.191  1.00  0.00     0.176 HD
ATOM     14  H2  UNL     1      21.428  22.117  15.868  1.00  0.00     0.182 HD
ENDBRANCH   9  10
BRANCH   9  15
HETATM   15  O1  UNL     1      23.544  21.196  17.301  1.00  0.00    -0.373 OA
ATOM     16  H1  UNL     1      24.486  21.086  17.347  1.00  0.00     0.212 HD
ENDBRANCH   9  15
ENDBRANCH   1   9
BRANCH   6  17
HETATM   17  C7  UNL     1      24.368  18.455  15.192  1.00  0.00     0.402 C 
BRANCH  17  18
HETATM   18  O2  UNL     1      24.865  17.397  15.990  1.00  0.00    -0.374 OA
ATOM     19  H2  UNL     1      25.792  17.314  15.799  1.00  0.00     0.211 HD
ENDBRANCH  17  18
ENDBRANCH   6  17
TORSDOF 5
ENDMDL
MODEL 3
REMARK VINA RESULT: -4.280914339      1.274      1.461
REMARK  5 active torsions:
REMARK  status: ('A' for Active; 'I' for Inactive)
REMARK    1  A    between atoms: N2_4  and  C1_6 
REMARK    2  A    between atoms: C1_6  and  O1_7 
REMARK    3  A    between atoms: C1_6  and  C2_9 
REMARK    4  A    between atoms: N3_14  and  C7_15 
REMARK    5  A    between atoms: C7_15  and  O2_16 
ROOT
HETATM    1  C2  UNL     1      23.213  19.657  15.084  1.00  0.00     0.246 C 
HETATM    2  C3  UNL     1      22.653  20.646  16.074  1.00  0.00     0.023 C 
HETATM    3  C4  UNL     1      23.466  21.922  15.920  1.00  0.00     0.008 C 
HETATM    4  C5  UNL     1      24.639  21.760  15.016  1.00  0.00     0.028 C 
HETATM    5  C6  UNL     1      25.380  20.476  15.165  1.00  0.00     0.240 C 
HETATM    6  N3  UNL     1      24.501  19.382  15.618  1.00  0.00    -0.038 N 
HETATM    7  C8  UNL     1      24.392  19.415  17.064  1.00  0.00     0.241 C 
HETATM    8  C9  UNL     1      23.087  20.044  17.417  1.00  0.00     0.035 C 
ENDROOT
BRANCH   1   9
HETATM    9  C1  UNL     1      22.328  18.502  14.807  1.00  0.00     0.264 C 
BRANCH   9  10
HETATM   10  N2  UNL     1      21.750  17.882  15.932  1.00  0.00    -0.312 N 
HETATM   11  N1  UNL     1      21.987  16.668  16.195  1.00  0.00    -0.347 N 
ATOM     12  H12 UNL     1      22.607  16.146  15.576  1.00  0.00     0.176 HD
ATOM     13  H11 UNL     1      21.568  16.220  17.010  1.00  0.00     0.176 HD
ATOM     14  H2  UNL     1      21.132  18.419  16.541  1.00  0.00     0.182 HD
ENDBRANCH   9  10
BRANCH   9  15
HETATM   15  O1  UNL     1      21.287  18.983  13.974  1.00  0.00    -0.373 OA
ATOM     16  H1  UNL     1      20.510  18.461  14.132  1.00  0.00     0.212 HD
ENDBRANCH   9  15
ENDBRANCH   1   9
BRANCH   6  17
HETATM   17  C7  UNL     1      25.111  18.167  15.184  1.00  0.00     0.402 C 
BRANCH  17  18
HETATM   18  O2  UNL     1      24.957  17.226  16.229  1.00  0.00    -0.374 OA
ATOM     19  H2  UNL     1      24.564  16.449  15.850  1.00  0.00     0.211 HD
ENDBRANCH  17  18
ENDBRANCH   6  17
TORSDOF 5
ENDMDL
MODEL 4
REMARK VINA RESULT: -4.085496613      2.431      3.376
REMARK  5 active torsions:
REMARK  status: ('A' for Active; 'I' for Inactive)
REMARK    1  A    between atoms: N2_4  and  C1_6 
REMARK    2  A    between atoms: C1_6  and  O1_7 
REMARK    3  A    between atoms: C1_6  and  C2_9 
REMARK    4  A    between atoms: N3_14  and  C7_15 
REMARK    5  A    between atoms: C7_15  and  O2_16 
ROOT
HETATM    1  C2  UNL     1      23.285  20.985  15.321  1.00  0.00     0.246 C 
HETATM    2  C3  UNL     1      24.413  20.950  16.319  1.00  0.00     0.023 C 
HETATM    3  C4  UNL     1      25.246  19.720  15.991  1.00  0.00     0.008 C 
HETATM    4  C5  UNL     1      24.621  18.854  14.952  1.00  0.00     0.028 C 
HETATM    5  C6  UNL     1      23.145  18.684  15.074  1.00  0.00     0.240 C 
HETATM    6  N3  UNL     1      22.505  19.857  15.697  1.00  0.00    -0.038 N 
HETATM    7  C8  UNL     1      22.575  19.738  17.141  1.00  0.00     0.241 C 
HETATM    8  C9  UNL     1      23.682  20.613  17.625  1.00  0.00     0.035 C 
ENDROOT
BRANCH   1   9
HETATM    9  C1  UNL     1      22.593  22.291  15.225  1.00  0.00     0.264 C 
BRANCH   9  10
HETATM   10  N2  UNL     1      23.396  23.431  15.422  1.00  0.00    -0.312 N 
HETATM   11  N1  UNL     1      23.848  24.081  14.436  1.00  0.00    -0.347 N 
ATOM     12  H12 UNL     1      23.619  23.764  13.494  1.00  0.00     0.176 HD
ATOM     13  H11 UNL     1      24.429  24.907  14.578  1.00  0.00     0.176 HD
ATOM     14  H2  UNL     1      23.615  23.736  16.370  1.00  0.00     0.182 HD
ENDBRANCH   9  10
BRANCH   9  15
HETATM   15  O1  UNL     1      22.034  22.355  13.924  1.00  0.00    -0.373 OA
ATOM     16  H1  UNL     1      22.653  22.793  13.352  1.00  0.00     0.212 HD
ENDBRANCH   9  15
ENDBRANCH   1   9
BRANCH   6  17
HETATM   17  C7  UNL     1      21.148  19.860  15.255  1.00  0.00     0.402 C 
BRANCH  17  18
HETATM   18  O2  UNL     1      21.148  19.427  13.907  1.00  0.00    -0.374 OA
ATOM     19  H2  UNL     1      22.052  19.416  13.617  1.00  0.00     0.211 HD
ENDBRANCH  17  18
ENDBRANCH   6  17
TORSDOF 5
ENDMDL
MODEL 5
REMARK VINA RESULT: -4.011787737      1.570      3.013
REMARK  5 active torsions:
REMARK  status: ('A' for Active; 'I' for Inactive)
REMARK    1  A    between atoms: N2_4  and  C1_6 
REMARK    2  A    between atoms: C1_6  and  O1_7 
REMARK    3  A    between atoms: C1_6  and  C2_9 
REMARK    4  A    between atoms: N3_14  and  C7_15 
REMARK    5  A    between atoms: C7_15  and  O2_16 
ROOT
HETATM    1  C2  UNL     1      23.425  18.348  16.355  1.00  0.00     0.246 C 
HETATM    2  C3  UNL     1      24.614  17.593  15.820  1.00  0.00     0.023 C 
HETATM    3  C4  UNL     1      25.718  17.730  16.857  1.00  0.00     0.008 C 
HETATM    4  C5  UNL     1      25.375  18.680  17.951  1.00  0.00     0.028 C 
HETATM    5  C6  UNL     1      24.672  19.920  17.516  1.00  0.00     0.240 C 
HETATM    6  N3  UNL     1      23.866  19.697  16.301  1.00  0.00    -0.038 N 
HETATM    7  C8  UNL     1      24.707  19.837  15.128  1.00  0.00     0.241 C 
HETATM    8  C9  UNL     1      25.051  18.471  14.639  1.00  0.00     0.035 C 
ENDROOT
BRANCH   1   9
HETATM    9  C1  UNL     1      22.143  18.021  15.689  1.00  0.00     0.264 C 
BRANCH   9  10
HETATM   10  N2  UNL     1      22.087  18.267  14.303  1.00  0.00    -0.312 N 
HETATM   11  N1  UNL     1      21.187  19.009  13.814  1.00  0.00    -0.347 N 
ATOM     12  H12 UNL     1      20.502  19.427  14.443  1.00  0.00     0.176 HD
ATOM     13  H11 UNL     1      21.147  19.187  12.810  1.00  0.00     0.176 HD
ATOM     14  H2  UNL     1      22.780  17.842  13.687  1.00  0.00     0.182 HD
ENDBRANCH   9  10
BRANCH   9  15
HETATM   15  O1  UNL     1      21.915  16.640  15.909  1.00  0.00    -0.373 OA
ATOM     16  H1  UNL     1      22.748  16.226  16.105  1.00  0.00     0.212 HD
ENDBRANCH   9  15
ENDBRANCH   1   9
BRANCH   6  17
HETATM   17  C7  UNL     1      22.841  20.691  16.310  1.00  0.00     0.402 C 
BRANCH  17  18
HETATM   18  O2  UNL     1      22.833  21.293  15.029  1.00  0.00    -0.374 OA
ATOM     19  H2  UNL     1      23.739  21.435  14.781  1.00  0.00     0.211 HD
ENDBRANCH  17  18
ENDBRANCH   6  17
TORSDOF 5
ENDMDL
