MODEL 1
REMARK VINA RESULT: -4.975178957      0.000      0.000
REMARK  3 active torsions:
REMARK  status: ('A' for Active; 'I' for Inactive)
REMARK    1  A    between atoms: N1_2  and  C3_4 
REMARK    2  A    between atoms: C3_4  and  C4_5 
REMARK    3  A    between atoms: N3_10  and  N4_11 
REMARK       I    between atoms: N4_11  and  C8_13 
ROOT
HETATM    1  C4  UNL     1      22.957  18.812  15.064  1.00  0.00     0.344 C 
HETATM    2  N2  UNL     1      22.115  18.160  16.022  1.00  0.00     0.106 N 
HETATM    3  C5  UNL     1      21.900  16.760  15.774  1.00  0.00     0.312 C 
HETATM    4  C6  UNL     1      20.791  18.801  15.932  1.00  0.00     0.290 C 
HETATM    5  C7  UNL     1      21.003  20.046  15.135  1.00  0.00     0.146 C 
HETATM    6  N3  UNL     1      22.450  20.160  14.999  1.00  0.00    -0.193 NA
ENDROOT
BRANCH   6   7
HETATM    7  N4  UNL     1      22.866  20.993  16.019  1.00  0.00    -0.291 N 
HETATM    8  C8  UNL     1      23.552  22.184  15.684  1.00  0.00     0.196 C 
HETATM    9  N5  UNL     1      23.707  23.169  16.525  1.00  0.00    -0.373 N 
HETATM   10  N6  UNL     1      24.119  22.384  14.392  1.00  0.00    -0.063 NA
ATOM     11  H52 UNL     1      23.300  23.026  17.450  1.00  0.00     0.158 HD
ATOM     12  H51 UNL     1      24.202  24.027  16.284  1.00  0.00     0.158 HD
ATOM     13  H4  UNL     1      22.682  20.755  16.992  1.00  0.00     0.183 HD
ENDBRANCH   6   7
BRANCH   1  14
HETATM   14  C3  UNL     1      24.405  18.837  15.417  1.00  0.00     0.324 C 
BRANCH  14  15
HETATM   15  N1  UNL     1      24.752  18.175  16.640  1.00  0.00     0.083 N 
HETATM   16  C1  UNL     1      25.509  16.963  16.467  1.00  0.00     0.309 C 
HETATM   17  C2  UNL     1      25.566  19.084  17.427  1.00  0.00     0.309 C 
ENDBRANCH  14  15
ENDBRANCH   1  14
TORSDOF 3
ENDMDL
MODEL 2
REMARK VINA RESULT: -4.896499328      1.542      4.933
REMARK  3 active torsions:
REMARK  status: ('A' for Active; 'I' for Inactive)
REMARK    1  A    between atoms: N1_2  and  C3_4 
REMARK    2  A    between atoms: C3_4  and  C4_5 
REMARK    3  A    between atoms: N3_10  and  N4_11 
REMARK       I    between atoms: N4_11  and  C8_13 
ROOT
HETATM    1  C4  UNL     1      22.907  20.134  15.380  1.00  0.00     0.344 C 
HETATM    2  N2  UNL     1      23.664  20.851  16.361  1.00  0.00     0.106 N 
HETATM    3  C5  UNL     1      23.781  22.263  16.111  1.00  0.00     0.312 C 
HETATM    4  C6  UNL     1      25.035  20.311  16.320  1.00  0.00     0.290 C 
HETATM    5  C7  UNL     1      24.945  19.051  15.523  1.00  0.00     0.146 C 
HETATM    6  N3  UNL     1      23.516  18.828  15.340  1.00  0.00    -0.193 NA
ENDROOT
BRANCH   6   7
HETATM    7  N4  UNL     1      23.130  17.970  16.350  1.00  0.00    -0.291 N 
HETATM    8  C8  UNL     1      22.363  16.829  16.015  1.00  0.00     0.196 C 
HETATM    9  N5  UNL     1      22.217  15.815  16.823  1.00  0.00    -0.373 N 
HETATM   10  N6  UNL     1      21.698  16.716  14.760  1.00  0.00    -0.063 NA
ATOM     11  H52 UNL     1      22.693  15.896  17.722  1.00  0.00     0.158 HD
ATOM     12  H51 UNL     1      21.664  14.993  16.582  1.00  0.00     0.158 HD
ATOM     13  H4  UNL     1      23.392  18.154  17.318  1.00  0.00     0.183 HD
ENDBRANCH   6   7
BRANCH   1  14
HETATM   14  C3  UNL     1      21.454  20.001  15.684  1.00  0.00     0.324 C 
BRANCH  14  15
HETATM   15  N1  UNL     1      20.625  19.631  14.575  1.00  0.00     0.083 N 
HETATM   16  C1  UNL     1      19.414  18.942  14.940  1.00  0.00     0.309 C 
HETATM   17  C2  UNL     1      20.237  20.846  13.881  1.00  0.00     0.309 C 
ENDBRANCH  14  15
ENDBRANCH   1  14
TORSDOF 3
ENDMDL
MODEL 3
REMARK VINA RESULT: -4.718235887      1.202      3.430
REMARK  3 active torsions:
REMARK  status: ('A' for Active; 'I' for Inactive)
REMARK    1  A    between atoms: N1_2  and  C3_4 
REMARK    2  A    between atoms: C3_4  and  C4_5 
REMARK    3  A    between atoms: N3_10  and  N4_11 
REMARK       I    between atoms: N4_11  and  C8_13 
ROOT
HETATM    1  C4  UNL     1      22.664  19.323  16.338  1.00  0.00     0.344 C 
HETATM    2  N2  UNL     1      23.094  18.169  15.607  1.00  0.00     0.106 N 
HETATM    3  C5  UNL     1      22.567  16.922  16.093  1.00  0.00     0.312 C 
HETATM    4  C6  UNL     1      24.557  18.086  15.766  1.00  0.00     0.290 C 
HETATM    5  C7  UNL     1      24.974  19.404  16.329  1.00  0.00     0.146 C 
HETATM    6  N3  UNL     1      23.777  20.234  16.260  1.00  0.00    -0.193 NA
ENDROOT
BRANCH   6   7
HETATM    7  N4  UNL     1      23.871  20.945  15.080  1.00  0.00    -0.291 N 
HETATM    8  C8  UNL     1      23.914  22.358  15.141  1.00  0.00     0.196 C 
HETATM    9  N5  UNL     1      24.309  23.094  14.139  1.00  0.00    -0.373 N 
HETATM   10  N6  UNL     1      23.527  23.069  16.313  1.00  0.00    -0.063 NA
ATOM     11  H52 UNL     1      24.587  22.585  13.300  1.00  0.00     0.158 HD
ATOM     12  H51 UNL     1      24.340  24.113  14.183  1.00  0.00     0.158 HD
ATOM     13  H4  UNL     1      23.910  20.461  14.183  1.00  0.00     0.183 HD
ENDBRANCH   6   7
BRANCH   1  14
HETATM   14  C3  UNL     1      21.437  19.981  15.803  1.00  0.00     0.324 C 
BRANCH  14  15
HETATM   15  N1  UNL     1      20.739  19.249  14.789  1.00  0.00     0.083 N 
HETATM   16  C1  UNL     1      19.581  18.534  15.259  1.00  0.00     0.309 C 
HETATM   17  C2  UNL     1      20.284  20.196  13.786  1.00  0.00     0.309 C 
ENDBRANCH  14  15
ENDBRANCH   1  14
TORSDOF 3
ENDMDL
MODEL 4
REMARK VINA RESULT: -4.566095289      1.310      3.530
REMARK  3 active torsions:
REMARK  status: ('A' for Active; 'I' for Inactive)
REMARK    1  A    between atoms: N1_2  and  C3_4 
REMARK    2  A    between atoms: C3_4  and  C4_5 
REMARK    3  A    between atoms: N3_10  and  N4_11 
REMARK       I    between atoms: N4_11  and  C8_13 
ROOT
HETATM    1  C4  UNL     1      23.277  19.364  16.010  1.00  0.00     0.344 C 
HETATM    2  N2  UNL     1      24.603  18.967  15.642  1.00  0.00     0.106 N 
HETATM    3  C5  UNL     1      24.982  17.655  16.092  1.00  0.00     0.312 C 
HETATM    4  C6  UNL     1      25.527  19.910  16.298  1.00  0.00     0.290 C 
HETATM    5  C7  UNL     1      24.674  21.039  16.775  1.00  0.00     0.146 C 
HETATM    6  N3  UNL     1      23.364  20.792  16.185  1.00  0.00    -0.193 NA
ENDROOT
BRANCH   6   7
HETATM    7  N4  UNL     1      23.323  21.529  15.019  1.00  0.00    -0.291 N 
HETATM    8  C8  UNL     1      23.519  22.929  15.094  1.00  0.00     0.196 C 
HETATM    9  N5  UNL     1      23.806  23.657  14.051  1.00  0.00    -0.373 N 
HETATM   10  N6  UNL     1      23.417  23.634  16.328  1.00  0.00    -0.063 NA
ATOM     11  H52 UNL     1      23.880  23.152  13.167  1.00  0.00     0.158 HD
ATOM     12  H51 UNL     1      23.947  24.666  14.106  1.00  0.00     0.158 HD
ATOM     13  H4  UNL     1      23.155  21.075  14.122  1.00  0.00     0.183 HD
ENDBRANCH   6   7
BRANCH   1  14
HETATM   14  C3  UNL     1      22.225  19.045  15.003  1.00  0.00     0.324 C 
BRANCH  14  15
HETATM   15  N1  UNL     1      20.896  19.451  15.352  1.00  0.00     0.083 N 
HETATM   16  C1  UNL     1      20.104  19.918  14.244  1.00  0.00     0.309 C 
HETATM   17  C2  UNL     1      20.211  18.303  15.919  1.00  0.00     0.309 C 
ENDBRANCH  14  15
ENDBRANCH   1  14
TORSDOF 3
ENDMDL
MODEL 5
REMARK VINA RESULT: -4.484387302      1.335      3.835
REMARK  3 active torsions:
REMARK  status: ('A' for Active; 'I' for Inactive)
REMARK    1  A    between atoms: N1_2  and  C3_4 
REMARK    2  A    between atoms: C3_4  and  C4_5 
REMARK    3  A    between atoms: N3_10  and  N4_11 
REMARK       I    between atoms: N4_11  and  C8_13 
ROOT
HETATM    1  C4  UNL     1      21.890  19.924  15.535  1.00  0.00     0.344 C 
HETATM    2  N2  UNL     1      21.025  19.463  14.491  1.00  0.00     0.106 N 
HETATM    3  C5  UNL     1      19.867  20.285  14.265  1.00  0.00     0.312 C 
HETATM    4  C6  UNL     1      20.517  18.144  14.910  1.00  0.00     0.290 C 
HETATM    5  C7  UNL     1      21.375  17.733  16.061  1.00  0.00     0.146 C 
HETATM    6  N3  UNL     1      22.447  18.720  16.099  1.00  0.00    -0.193 NA
ENDROOT
BRANCH   6   7
HETATM    7  N4  UNL     1      23.498  18.172  15.392  1.00  0.00    -0.291 N 
HETATM    8  C8  UNL     1      24.739  17.996  16.048  1.00  0.00     0.196 C 
HETATM    9  N5  UNL     1      25.678  17.220  15.583  1.00  0.00    -0.373 N 
HETATM   10  N6  UNL     1      25.039  18.660  17.273  1.00  0.00    -0.063 NA
ATOM     11  H52 UNL     1      25.463  16.744  14.706  1.00  0.00     0.158 HD
ATOM     12  H51 UNL     1      26.573  17.093  16.056  1.00  0.00     0.158 HD
ATOM     13  H4  UNL     1      23.382  17.900  14.416  1.00  0.00     0.183 HD
ENDBRANCH   6   7
BRANCH   1  14
HETATM   14  C3  UNL     1      22.991  20.823  15.085  1.00  0.00     0.324 C 
BRANCH  14  15
HETATM   15  N1  UNL     1      23.214  21.979  15.902  1.00  0.00     0.083 N 
HETATM   16  C1  UNL     1      24.448  21.956  16.642  1.00  0.00     0.309 C 
HETATM   17  C2  UNL     1      23.253  23.141  15.033  1.00  0.00     0.309 C 
ENDBRANCH  14  15
ENDBRANCH   1  14
TORSDOF 3
ENDMDL
