MODEL 1
REMARK VINA RESULT: -6.281935253      0.000      0.000
REMARK  4 active torsions:
REMARK  status: ('A' for Active; 'I' for Inactive)
REMARK    1  A    between atoms: N1_1  and  C1_5 
REMARK    2  A    between atoms: C5_9  and  N2_10 
REMARK    3  A    between atoms: N2_10  and  S1_12 
REMARK    4  A    between atoms: S1_12  and  N3_13 
ROOT
HETATM    1  C1  UNL     1      24.209  19.256  16.302  1.00  0.00     0.206 C 
HETATM    2  C2  UNL     1      25.322  20.137  15.774  1.00  0.00     0.035 C 
HETATM    3  C3  UNL     1      24.691  21.482  15.464  1.00  0.00     0.004 C 
HETATM    4  C4  UNL     1      23.320  21.369  16.155  1.00  0.00     0.028 C 
HETATM    5  C5  UNL     1      22.999  19.967  15.716  1.00  0.00     0.124 C 
ENDROOT
BRANCH   5   6
HETATM    6  N2  UNL     1      21.763  19.455  16.055  1.00  0.00    -0.296 N 
ATOM      7  H2  UNL     1      21.412  19.592  17.003  1.00  0.00     0.174 HD
BRANCH   6   8
HETATM    8  S1  UNL     1      20.828  18.620  14.957  1.00  0.00     0.313 S 
HETATM    9  O1  UNL     1      21.532  17.359  14.531  1.00  0.00    -0.183 OA
HETATM   10  O2  UNL     1      19.511  18.216  15.527  1.00  0.00    -0.183 OA
BRANCH   8  11
HETATM   11  N3  UNL     1      20.616  19.573  13.527  1.00  0.00    -0.312 N 
ATOM     12  H32 UNL     1      20.845  19.257  12.585  1.00  0.00     0.170 HD
ATOM     13  H31 UNL     1      20.232  20.485  13.776  1.00  0.00     0.170 HD
ENDBRANCH   8  11
ENDBRANCH   6   8
ENDBRANCH   5   6
BRANCH   1  14
HETATM   14  N1  UNL     1      24.269  17.913  15.792  1.00  0.00    -0.073 N 
ATOM     15  H13 UNL     1      24.729  17.889  14.881  1.00  0.00     0.274 HD
ATOM     16  H12 UNL     1      24.931  17.349  16.325  1.00  0.00     0.274 HD
ATOM     17  H11 UNL     1      23.355  17.463  15.752  1.00  0.00     0.274 HD
ENDBRANCH   1  14
TORSDOF 4
ENDMDL
MODEL 2
REMARK VINA RESULT: -6.200671448      1.496      2.199
REMARK  4 active torsions:
REMARK  status: ('A' for Active; 'I' for Inactive)
REMARK    1  A    between atoms: N1_1  and  C1_5 
REMARK    2  A    between atoms: C5_9  and  N2_10 
REMARK    3  A    between atoms: N2_10  and  S1_12 
REMARK    4  A    between atoms: S1_12  and  N3_13 
ROOT
HETATM    1  C1  UNL     1      24.707  20.122  16.650  1.00  0.00     0.206 C 
HETATM    2  C2  UNL     1      25.589  19.266  17.534  1.00  0.00     0.035 C 
HETATM    3  C3  UNL     1      25.542  17.864  16.955  1.00  0.00     0.004 C 
HETATM    4  C4  UNL     1      24.893  18.099  15.578  1.00  0.00     0.028 C 
HETATM    5  C5  UNL     1      23.821  19.052  16.031  1.00  0.00     0.124 C 
ENDROOT
BRANCH   5   6
HETATM    6  N2  UNL     1      22.904  19.480  15.093  1.00  0.00    -0.296 N 
ATOM      7  H2  UNL     1      23.125  20.295  14.521  1.00  0.00     0.174 HD
BRANCH   6   8
HETATM    8  S1  UNL     1      21.448  18.702  14.869  1.00  0.00     0.313 S 
HETATM    9  O1  UNL     1      21.684  17.277  14.444  1.00  0.00    -0.183 OA
HETATM   10  O2  UNL     1      20.632  18.659  16.115  1.00  0.00    -0.183 OA
BRANCH   8  11
HETATM   11  N3  UNL     1      20.572  19.461  13.583  1.00  0.00    -0.312 N 
ATOM     12  H32 UNL     1      20.923  20.245  13.033  1.00  0.00     0.170 HD
ATOM     13  H31 UNL     1      19.667  19.006  13.469  1.00  0.00     0.170 HD
ENDBRANCH   8  11
ENDBRANCH   6   8
ENDBRANCH   5   6
BRANCH   1  14
HETATM   14  N1  UNL     1      23.893  21.044  17.397  1.00  0.00    -0.073 N 
ATOM     15  H13 UNL     1      22.913  20.763  17.378  1.00  0.00     0.274 HD
ATOM     16  H12 UNL     1      24.070  20.960  18.397  1.00  0.00     0.274 HD
ATOM     17  H11 UNL     1      24.003  22.009  17.087  1.00  0.00     0.274 HD
ENDBRANCH   1  14
TORSDOF 4
ENDMDL
MODEL 3
REMARK VINA RESULT: -6.001379421      3.387      4.168
REMARK  4 active torsions:
REMARK  status: ('A' for Active; 'I' for Inactive)
REMARK    1  A    between atoms: N1_1  and  C1_5 
REMARK    2  A    between atoms: C5_9  and  N2_10 
REMARK    3  A    between atoms: N2_10  and  S1_12 
REMARK    4  A    between atoms: S1_12  and  N3_13 
ROOT
HETATM    1  C1  UNL     1      22.486  18.514  14.967  1.00  0.00     0.206 C 
HETATM    2  C2  UNL     1      21.496  17.499  15.498  1.00  0.00     0.035 C 
HETATM    3  C3  UNL     1      20.202  18.254  15.745  1.00  0.00     0.004 C 
HETATM    4  C4  UNL     1      20.456  19.588  15.018  1.00  0.00     0.028 C 
HETATM    5  C5  UNL     1      21.868  19.800  15.494  1.00  0.00     0.124 C 
ENDROOT
BRANCH   5   6
HETATM    6  N2  UNL     1      22.496  20.975  15.136  1.00  0.00    -0.296 N 
ATOM      7  H2  UNL     1      22.155  21.493  14.326  1.00  0.00     0.174 HD
BRANCH   6   8
HETATM    8  S1  UNL     1      23.796  21.571  15.992  1.00  0.00     0.313 S 
HETATM    9  O1  UNL     1      23.835  20.957  17.366  1.00  0.00    -0.183 OA
HETATM   10  O2  UNL     1      25.096  21.260  15.335  1.00  0.00    -0.183 OA
BRANCH   8  11
HETATM   11  N3  UNL     1      23.611  23.277  16.220  1.00  0.00    -0.312 N 
ATOM     12  H32 UNL     1      24.134  23.986  15.708  1.00  0.00     0.170 HD
ATOM     13  H31 UNL     1      22.907  23.453  16.937  1.00  0.00     0.170 HD
ENDBRANCH   8  11
ENDBRANCH   6   8
ENDBRANCH   5   6
BRANCH   1  14
HETATM   14  N1  UNL     1      23.803  18.353  15.523  1.00  0.00    -0.073 N 
ATOM     15  H13 UNL     1      24.520  18.506  14.813  1.00  0.00     0.274 HD
ATOM     16  H12 UNL     1      24.030  19.122  16.153  1.00  0.00     0.274 HD
ATOM     17  H11 UNL     1      23.932  17.453  15.984  1.00  0.00     0.274 HD
ENDBRANCH   1  14
TORSDOF 4
ENDMDL
MODEL 4
REMARK VINA RESULT: -5.830201599      3.241      4.468
REMARK  4 active torsions:
REMARK  status: ('A' for Active; 'I' for Inactive)
REMARK    1  A    between atoms: N1_1  and  C1_5 
REMARK    2  A    between atoms: C5_9  and  N2_10 
REMARK    3  A    between atoms: N2_10  and  S1_12 
REMARK    4  A    between atoms: S1_12  and  N3_13 
ROOT
HETATM    1  C1  UNL     1      20.578  20.263  14.710  1.00  0.00     0.206 C 
HETATM    2  C2  UNL     1      19.633  19.085  14.815  1.00  0.00     0.035 C 
HETATM    3  C3  UNL     1      20.304  18.081  15.736  1.00  0.00     0.004 C 
HETATM    4  C4  UNL     1      21.443  18.913  16.354  1.00  0.00     0.028 C 
HETATM    5  C5  UNL     1      21.890  19.596  15.090  1.00  0.00     0.124 C 
ENDROOT
BRANCH   5   6
HETATM    6  N2  UNL     1      22.998  20.415  15.160  1.00  0.00    -0.296 N 
ATOM      7  H2  UNL     1      22.908  21.395  14.893  1.00  0.00     0.174 HD
BRANCH   6   8
HETATM    8  S1  UNL     1      24.479  19.846  15.671  1.00  0.00     0.313 S 
HETATM    9  O1  UNL     1      25.586  20.626  15.014  1.00  0.00    -0.183 OA
HETATM   10  O2  UNL     1      24.660  19.983  17.144  1.00  0.00    -0.183 OA
BRANCH   8  11
HETATM   11  N3  UNL     1      24.674  18.199  15.175  1.00  0.00    -0.312 N 
ATOM     12  H32 UNL     1      24.448  17.848  14.245  1.00  0.00     0.170 HD
ATOM     13  H31 UNL     1      25.043  17.649  15.950  1.00  0.00     0.170 HD
ENDBRANCH   8  11
ENDBRANCH   6   8
ENDBRANCH   5   6
BRANCH   1  14
HETATM   14  N1  UNL     1      20.675  20.784  13.372  1.00  0.00    -0.073 N 
ATOM     15  H13 UNL     1      21.222  21.644  13.354  1.00  0.00     0.274 HD
ATOM     16  H12 UNL     1      21.275  20.195  12.794  1.00  0.00     0.274 HD
ATOM     17  H11 UNL     1      19.765  20.920  12.933  1.00  0.00     0.274 HD
ENDBRANCH   1  14
TORSDOF 4
ENDMDL
MODEL 5
REMARK VINA RESULT: -5.827531336      3.075      4.510
REMARK  4 active torsions:
REMARK  status: ('A' for Active; 'I' for Inactive)
REMARK    1  A    between atoms: N1_1  and  C1_5 
REMARK    2  A    between atoms: C5_9  and  N2_10 
REMARK    3  A    between atoms: N2_10  and  S1_12 
REMARK    4  A    between atoms: S1_12  and  N3_13 
ROOT
HETATM    1  C1  UNL     1      20.723  20.197  14.858  1.00  0.00     0.206 C 
HETATM    2  C2  UNL     1      19.814  18.989  14.952  1.00  0.00     0.035 C 
HETATM    3  C3  UNL     1      20.546  17.970  15.806  1.00  0.00     0.004 C 
HETATM    4  C4  UNL     1      21.686  18.808  16.413  1.00  0.00     0.028 C 
HETATM    5  C5  UNL     1      22.066  19.551  15.161  1.00  0.00     0.124 C 
ENDROOT
BRANCH   5   6
HETATM    6  N2  UNL     1      23.154  20.397  15.222  1.00  0.00    -0.296 N 
ATOM      7  H2  UNL     1      23.014  21.397  15.073  1.00  0.00     0.174 HD
BRANCH   6   8
HETATM    8  S1  UNL     1      24.690  19.831  15.534  1.00  0.00     0.313 S 
HETATM    9  O1  UNL     1      24.861  18.454  14.950  1.00  0.00    -0.183 OA
HETATM   10  O2  UNL     1      25.745  20.696  14.934  1.00  0.00    -0.183 OA
BRANCH   8  11
HETATM   11  N3  UNL     1      24.918  19.674  17.243  1.00  0.00    -0.312 N 
ATOM     12  H32 UNL     1      24.292  19.160  17.862  1.00  0.00     0.170 HD
ATOM     13  H31 UNL     1      25.764  20.170  17.523  1.00  0.00     0.170 HD
ENDBRANCH   8  11
ENDBRANCH   6   8
ENDBRANCH   5   6
BRANCH   1  14
HETATM   14  N1  UNL     1      20.755  20.771  13.539  1.00  0.00    -0.073 N 
ATOM     15  H13 UNL     1      21.617  20.522  13.054  1.00  0.00     0.274 HD
ATOM     16  H12 UNL     1      20.082  20.313  12.925  1.00  0.00     0.274 HD
ATOM     17  H11 UNL     1      20.616  21.781  13.543  1.00  0.00     0.274 HD
ENDBRANCH   1  14
TORSDOF 4
ENDMDL
