MODEL 1
REMARK VINA RESULT: -6.847433478      0.000      0.000
REMARK  4 active torsions:
REMARK  status: ('A' for Active; 'I' for Inactive)
REMARK    1  A    between atoms: N1_1  and  N2_4 
REMARK    2  A    between atoms: C1_6  and  C2_7 
REMARK    3  A    between atoms: C1_6  and  N4_15 
REMARK    4  A    between atoms: C2_7  and  C3_8 
ROOT
HETATM    1  N2  UNL     1      24.809  20.653  14.921  1.00  0.00    -0.295 N 
ATOM      2  H2  UNL     1      25.617  20.189  14.509  1.00  0.00     0.187 HD
HETATM    3  C1  UNL     1      24.004  19.887  15.522  1.00  0.00     0.103 C 
ENDROOT
BRANCH   3   4
HETATM    4  C2  UNL     1      22.762  20.207  16.216  1.00  0.00     0.135 C 
BRANCH   4   5
HETATM    5  C3  UNL     1      21.516  19.960  15.496  1.00  0.00     0.016 A 
HETATM    6  C4  UNL     1      20.776  18.844  15.827  1.00  0.00     0.025 A 
HETATM    7  C5  UNL     1      19.585  18.528  15.210  1.00  0.00     0.003 A 
HETATM    8  C6  UNL     1      19.125  19.367  14.228  1.00  0.00     0.017 A 
HETATM    9  C7  UNL     1      19.868  20.480  13.903  1.00  0.00     0.088 A 
HETATM   10  N3  UNL     1      21.026  20.757  14.526  1.00  0.00    -0.369 N 
ATOM     11  H3  UNL     1      21.549  21.591  14.257  1.00  0.00     0.165 HD
ENDBRANCH   4   5
ENDBRANCH   3   4
BRANCH   3  12
HETATM   12  N4  UNL     1      24.375  18.482  15.519  1.00  0.00    -0.321 N 
HETATM   13  C8  UNL     1      25.120  18.013  16.467  1.00  0.00     0.202 C 
HETATM   14  N5  UNL     1      25.554  18.878  17.486  1.00  0.00    -0.066 NA
HETATM   15  N6  UNL     1      25.513  16.656  16.518  1.00  0.00    -0.066 NA
ATOM     16  H4  UNL     1      24.050  17.869  14.772  1.00  0.00     0.169 HD
ENDBRANCH   3  12
BRANCH   1  17
HETATM   17  N1  UNL     1      24.767  22.010  14.734  1.00  0.00    -0.344 N 
ATOM     18  H12 UNL     1      24.060  22.309  14.062  1.00  0.00     0.176 HD
ATOM     19  H11 UNL     1      25.326  22.751  15.157  1.00  0.00     0.176 HD
ENDBRANCH   1  17
TORSDOF 4
ENDMDL
MODEL 2
REMARK VINA RESULT: -6.600015912      2.025      4.484
REMARK  4 active torsions:
REMARK  status: ('A' for Active; 'I' for Inactive)
REMARK    1  A    between atoms: N1_1  and  N2_4 
REMARK    2  A    between atoms: C1_6  and  C2_7 
REMARK    3  A    between atoms: C1_6  and  N4_15 
REMARK    4  A    between atoms: C2_7  and  C3_8 
ROOT
HETATM    1  N2  UNL     1      19.712  19.017  14.538  1.00  0.00    -0.295 N 
ATOM      2  H2  UNL     1      19.349  18.070  14.642  1.00  0.00     0.187 HD
HETATM    3  C1  UNL     1      20.667  19.308  15.312  1.00  0.00     0.103 C 
ENDROOT
BRANCH   3   4
HETATM    4  C2  UNL     1      21.415  20.554  15.434  1.00  0.00     0.135 C 
BRANCH   4   5
HETATM    5  C3  UNL     1      22.855  20.447  15.653  1.00  0.00     0.016 A 
HETATM    6  C4  UNL     1      23.462  21.354  16.495  1.00  0.00     0.025 A 
HETATM    7  C5  UNL     1      24.812  21.332  16.769  1.00  0.00     0.003 A 
HETATM    8  C6  UNL     1      25.574  20.360  16.174  1.00  0.00     0.017 A 
HETATM    9  C7  UNL     1      24.963  19.456  15.335  1.00  0.00     0.088 A 
HETATM   10  N3  UNL     1      23.642  19.509  15.090  1.00  0.00    -0.369 N 
ATOM     11  H3  UNL     1      23.225  18.821  14.462  1.00  0.00     0.165 HD
ENDBRANCH   4   5
ENDBRANCH   3   4
BRANCH   3  12
HETATM   12  N4  UNL     1      21.077  18.241  16.210  1.00  0.00    -0.321 N 
HETATM   13  C8  UNL     1      21.685  17.202  15.737  1.00  0.00     0.202 C 
HETATM   14  N5  UNL     1      21.936  17.128  14.356  1.00  0.00    -0.066 NA
HETATM   15  N6  UNL     1      22.107  16.133  16.560  1.00  0.00    -0.066 NA
ATOM     16  H4  UNL     1      20.886  18.312  17.209  1.00  0.00     0.169 HD
ENDBRANCH   3  12
BRANCH   1  17
HETATM   17  N1  UNL     1      19.086  19.773  13.582  1.00  0.00    -0.344 N 
ATOM     18  H12 UNL     1      19.727  20.188  12.905  1.00  0.00     0.176 HD
ATOM     19  H11 UNL     1      18.097  19.979  13.448  1.00  0.00     0.176 HD
ENDBRANCH   1  17
TORSDOF 4
ENDMDL
MODEL 3
REMARK VINA RESULT: -6.520024530      1.487      3.130
REMARK  4 active torsions:
REMARK  status: ('A' for Active; 'I' for Inactive)
REMARK    1  A    between atoms: N1_1  and  N2_4 
REMARK    2  A    between atoms: C1_6  and  C2_7 
REMARK    3  A    between atoms: C1_6  and  N4_15 
REMARK    4  A    between atoms: C2_7  and  C3_8 
ROOT
HETATM    1  N2  UNL     1      25.464  20.162  16.802  1.00  0.00    -0.295 N 
ATOM      2  H2  UNL     1      25.828  21.101  16.962  1.00  0.00     0.187 HD
HETATM    3  C1  UNL     1      24.794  20.026  15.739  1.00  0.00     0.103 C 
ENDROOT
BRANCH   3   4
HETATM    4  C2  UNL     1      24.136  18.839  15.205  1.00  0.00     0.135 C 
BRANCH   4   5
HETATM    5  C3  UNL     1      22.675  18.839  15.189  1.00  0.00     0.016 A 
HETATM    6  C4  UNL     1      22.009  17.915  15.966  1.00  0.00     0.025 A 
HETATM    7  C5  UNL     1      20.635  17.839  16.023  1.00  0.00     0.003 A 
HETATM    8  C6  UNL     1      19.909  18.727  15.271  1.00  0.00     0.017 A 
HETATM    9  C7  UNL     1      20.580  19.648  14.498  1.00  0.00     0.088 A 
HETATM   10  N3  UNL     1      21.923  19.692  14.466  1.00  0.00    -0.369 N 
ATOM     11  H3  UNL     1      22.384  20.388  13.881  1.00  0.00     0.165 HD
ENDBRANCH   4   5
ENDBRANCH   3   4
BRANCH   3  12
HETATM   12  N4  UNL     1      24.662  21.230  14.937  1.00  0.00    -0.321 N 
HETATM   13  C8  UNL     1      23.904  22.195  15.348  1.00  0.00     0.202 C 
HETATM   14  N5  UNL     1      23.223  22.055  16.570  1.00  0.00    -0.066 NA
HETATM   15  N6  UNL     1      23.736  23.390  14.612  1.00  0.00    -0.066 NA
ATOM     16  H4  UNL     1      25.164  21.314  14.054  1.00  0.00     0.169 HD
ENDBRANCH   3  12
BRANCH   1  17
HETATM   17  N1  UNL     1      25.780  19.249  17.773  1.00  0.00    -0.344 N 
ATOM     18  H12 UNL     1      25.406  18.316  17.594  1.00  0.00     0.176 HD
ATOM     19  H11 UNL     1      26.321  19.358  18.630  1.00  0.00     0.176 HD
ENDBRANCH   1  17
TORSDOF 4
ENDMDL
MODEL 4
REMARK VINA RESULT: -6.354731713      0.764      1.263
REMARK  4 active torsions:
REMARK  status: ('A' for Active; 'I' for Inactive)
REMARK    1  A    between atoms: N1_1  and  N2_4 
REMARK    2  A    between atoms: C1_6  and  C2_7 
REMARK    3  A    between atoms: C1_6  and  N4_15 
REMARK    4  A    between atoms: C2_7  and  C3_8 
ROOT
HETATM    1  N2  UNL     1      24.773  20.678  14.919  1.00  0.00    -0.295 N 
ATOM      2  H2  UNL     1      25.572  20.212  14.489  1.00  0.00     0.187 HD
HETATM    3  C1  UNL     1      23.981  19.912  15.537  1.00  0.00     0.103 C 
ENDROOT
BRANCH   3   4
HETATM    4  C2  UNL     1      22.755  20.233  16.258  1.00  0.00     0.135 C 
BRANCH   4   5
HETATM    5  C3  UNL     1      21.496  19.813  15.648  1.00  0.00     0.016 A 
HETATM    6  C4  UNL     1      20.975  20.575  14.623  1.00  0.00     0.025 A 
HETATM    7  C5  UNL     1      19.798  20.258  13.981  1.00  0.00     0.003 A 
HETATM    8  C6  UNL     1      19.124  19.135  14.388  1.00  0.00     0.017 A 
HETATM    9  C7  UNL     1      19.649  18.379  15.411  1.00  0.00     0.088 A 
HETATM   10  N3  UNL     1      20.801  18.718  16.015  1.00  0.00    -0.369 N 
ATOM     11  H3  UNL     1      21.158  18.133  16.771  1.00  0.00     0.165 HD
ENDBRANCH   4   5
ENDBRANCH   3   4
BRANCH   3  12
HETATM   12  N4  UNL     1      24.350  18.506  15.524  1.00  0.00    -0.321 N 
HETATM   13  C8  UNL     1      25.122  18.037  16.451  1.00  0.00     0.202 C 
HETATM   14  N5  UNL     1      25.588  18.903  17.455  1.00  0.00    -0.066 NA
HETATM   15  N6  UNL     1      25.515  16.680  16.491  1.00  0.00    -0.066 NA
ATOM     16  H4  UNL     1      24.002  17.893  14.788  1.00  0.00     0.169 HD
ENDBRANCH   3  12
BRANCH   1  17
HETATM   17  N1  UNL     1      24.730  22.035  14.735  1.00  0.00    -0.344 N 
ATOM     18  H12 UNL     1      25.257  22.559  15.434  1.00  0.00     0.176 HD
ATOM     19  H11 UNL     1      24.259  22.588  14.019  1.00  0.00     0.176 HD
ENDBRANCH   1  17
TORSDOF 4
ENDMDL
MODEL 5
REMARK VINA RESULT: -6.279654049      1.626      5.087
REMARK  4 active torsions:
REMARK  status: ('A' for Active; 'I' for Inactive)
REMARK    1  A    between atoms: N1_1  and  N2_4 
REMARK    2  A    between atoms: C1_6  and  C2_7 
REMARK    3  A    between atoms: C1_6  and  N4_15 
REMARK    4  A    between atoms: C2_7  and  C3_8 
ROOT
HETATM    1  N2  UNL     1      22.025  21.214  15.444  1.00  0.00    -0.295 N 
ATOM      2  H2  UNL     1      21.079  21.483  15.713  1.00  0.00     0.187 HD
HETATM    3  C1  UNL     1      22.202  19.971  15.294  1.00  0.00     0.103 C 
ENDROOT
BRANCH   3   4
HETATM    4  C2  UNL     1      23.410  19.246  14.919  1.00  0.00     0.135 C 
BRANCH   4   5
HETATM    5  C3  UNL     1      24.352  18.925  15.989  1.00  0.00     0.016 A 
HETATM    6  C4  UNL     1      24.855  17.643  16.060  1.00  0.00     0.025 A 
HETATM    7  C5  UNL     1      25.752  17.246  17.027  1.00  0.00     0.003 A 
HETATM    8  C6  UNL     1      26.156  18.174  17.952  1.00  0.00     0.017 A 
HETATM    9  C7  UNL     1      25.651  19.453  17.875  1.00  0.00     0.088 A 
HETATM   10  N3  UNL     1      24.776  19.805  16.917  1.00  0.00    -0.369 N 
ATOM     11  H3  UNL     1      24.424  20.762  16.893  1.00  0.00     0.165 HD
ENDBRANCH   4   5
ENDBRANCH   3   4
BRANCH   3  12
HETATM   12  N4  UNL     1      21.026  19.151  15.532  1.00  0.00    -0.321 N 
HETATM   13  C8  UNL     1      20.048  19.171  14.686  1.00  0.00     0.202 C 
HETATM   14  N5  UNL     1      20.145  19.991  13.549  1.00  0.00    -0.066 NA
HETATM   15  N6  UNL     1      18.879  18.395  14.863  1.00  0.00    -0.066 NA
ATOM     16  H4  UNL     1      20.973  18.561  16.362  1.00  0.00     0.169 HD
ENDBRANCH   3  12
BRANCH   1  17
HETATM   17  N1  UNL     1      22.903  22.256  15.302  1.00  0.00    -0.344 N 
ATOM     18  H12 UNL     1      22.915  22.891  16.101  1.00  0.00     0.176 HD
ATOM     19  H11 UNL     1      23.532  22.488  14.535  1.00  0.00     0.176 HD
ENDBRANCH   1  17
TORSDOF 4
ENDMDL
