MODEL 1
REMARK VINA RESULT: -6.335446924      0.000      0.000
REMARK  6 active torsions:
REMARK  status: ('A' for Active; 'I' for Inactive)
REMARK    1  A    between atoms: N1_1  and  S1_4 
REMARK    2  A    between atoms: S1_4  and  C1_6 
REMARK    3  A    between atoms: C1_6  and  C2_7 
REMARK    4  A    between atoms: C4_9  and  O2_10 
REMARK    5  A    between atoms: C5_12  and  C6_13 
REMARK    6  A    between atoms: C6_13  and  O3_14 
ROOT
HETATM    1  C2  UNL     1      22.257  20.557  15.823  1.00  0.00     0.010 C 
HETATM    2  C3  UNL     1      23.041  21.747  15.341  1.00  0.00     0.038 C 
HETATM    3  C4  UNL     1      24.111  21.343  16.343  1.00  0.00     0.125 C 
HETATM    4  C5  UNL     1      23.542  19.926  16.230  1.00  0.00     0.043 C 
ENDROOT
BRANCH   1   5
HETATM    5  C1  UNL     1      21.430  19.852  14.800  1.00  0.00     0.137 C 
BRANCH   5   6
HETATM    6  S1  UNL     1      20.685  18.387  15.443  1.00  0.00     0.108 S 
HETATM    7  O1  UNL     1      19.141  18.248  14.796  1.00  0.00    -0.236 OA
BRANCH   6   8
HETATM    8  N1  UNL     1      21.567  16.970  15.049  1.00  0.00    -0.350 NA
ATOM      9  H12 UNL     1      21.088  16.116  15.338  1.00  0.00     0.166 HD
ATOM     10  H11 UNL     1      22.468  17.010  15.523  1.00  0.00     0.166 HD
ENDBRANCH   6   8
ENDBRANCH   5   6
ENDBRANCH   1   5
BRANCH   4  11
HETATM   11  C6  UNL     1      24.293  19.208  15.111  1.00  0.00     0.171 C 
BRANCH  11  12
HETATM   12  O3  UNL     1      24.451  17.871  15.472  1.00  0.00    -0.400 OA
ATOM     13  H3  UNL     1      24.276  17.330  14.711  1.00  0.00     0.209 HD
ENDBRANCH  11  12
ENDBRANCH   4  11
BRANCH   3  14
HETATM   14  O2  UNL     1      23.807  21.881  17.583  1.00  0.00    -0.395 OA
ATOM     15  H2  UNL     1      24.590  22.265  17.960  1.00  0.00     0.210 HD
ENDBRANCH   3  14
TORSDOF 6
ENDMDL
MODEL 2
REMARK VINA RESULT: -5.949505406      1.735      2.960
REMARK  6 active torsions:
REMARK  status: ('A' for Active; 'I' for Inactive)
REMARK    1  A    between atoms: N1_1  and  S1_4 
REMARK    2  A    between atoms: S1_4  and  C1_6 
REMARK    3  A    between atoms: C1_6  and  C2_7 
REMARK    4  A    between atoms: C4_9  and  O2_10 
REMARK    5  A    between atoms: C5_12  and  C6_13 
REMARK    6  A    between atoms: C6_13  and  O3_14 
ROOT
HETATM    1  C2  UNL     1      22.714  19.267  15.222  1.00  0.00     0.010 C 
HETATM    2  C3  UNL     1      23.204  18.121  16.066  1.00  0.00     0.038 C 
HETATM    3  C4  UNL     1      24.586  18.747  15.966  1.00  0.00     0.125 C 
HETATM    4  C5  UNL     1      23.860  20.073  15.723  1.00  0.00     0.043 C 
ENDROOT
BRANCH   1   5
HETATM    5  C1  UNL     1      21.337  19.761  15.514  1.00  0.00     0.137 C 
BRANCH   5   6
HETATM    6  S1  UNL     1      20.184  19.293  14.262  1.00  0.00     0.108 S 
HETATM    7  O1  UNL     1      19.075  18.225  14.934  1.00  0.00    -0.236 OA
BRANCH   6   8
HETATM    8  N1  UNL     1      19.325  20.632  13.621  1.00  0.00    -0.350 NA
ATOM      9  H12 UNL     1      18.705  20.370  12.854  1.00  0.00     0.166 HD
ATOM     10  H11 UNL     1      20.001  21.310  13.272  1.00  0.00     0.166 HD
ENDBRANCH   6   8
ENDBRANCH   5   6
ENDBRANCH   1   5
BRANCH   4  11
HETATM   11  C6  UNL     1      23.639  20.740  17.079  1.00  0.00     0.171 C 
BRANCH  11  12
HETATM   12  O3  UNL     1      23.881  22.106  16.946  1.00  0.00    -0.400 OA
ATOM     13  H3  UNL     1      23.706  22.357  16.047  1.00  0.00     0.209 HD
ENDBRANCH  11  12
ENDBRANCH   4  11
BRANCH   3  14
HETATM   14  O2  UNL     1      25.199  18.319  14.799  1.00  0.00    -0.395 OA
ATOM     15  H2  UNL     1      25.768  19.006  14.472  1.00  0.00     0.210 HD
ENDBRANCH   3  14
TORSDOF 6
ENDMDL
MODEL 3
REMARK VINA RESULT: -5.869130998      1.387      1.387
REMARK  6 active torsions:
REMARK  status: ('A' for Active; 'I' for Inactive)
REMARK    1  A    between atoms: N1_1  and  S1_4 
REMARK    2  A    between atoms: S1_4  and  C1_6 
REMARK    3  A    between atoms: C1_6  and  C2_7 
REMARK    4  A    between atoms: C4_9  and  O2_10 
REMARK    5  A    between atoms: C5_12  and  C6_13 
REMARK    6  A    between atoms: C6_13  and  O3_14 
ROOT
HETATM    1  C2  UNL     1      22.425  19.980  15.990  1.00  0.00     0.010 C 
HETATM    2  C3  UNL     1      22.902  21.260  15.357  1.00  0.00     0.038 C 
HETATM    3  C4  UNL     1      24.104  21.173  16.284  1.00  0.00     0.125 C 
HETATM    4  C5  UNL     1      23.841  19.665  16.323  1.00  0.00     0.043 C 
ENDROOT
BRANCH   1   5
HETATM    5  C1  UNL     1      21.695  19.034  15.097  1.00  0.00     0.137 C 
BRANCH   5   6
HETATM    6  S1  UNL     1      20.046  19.571  14.767  1.00  0.00     0.108 S 
HETATM    7  O1  UNL     1      20.058  20.493  13.362  1.00  0.00    -0.236 OA
BRANCH   6   8
HETATM    8  N1  UNL     1      18.957  18.265  14.546  1.00  0.00    -0.350 NA
ATOM      9  H12 UNL     1      17.987  18.528  14.720  1.00  0.00     0.166 HD
ATOM     10  H11 UNL     1      19.211  17.522  15.196  1.00  0.00     0.166 HD
ENDBRANCH   6   8
ENDBRANCH   5   6
ENDBRANCH   1   5
BRANCH   4  11
HETATM   11  C6  UNL     1      24.644  19.022  15.195  1.00  0.00     0.171 C 
BRANCH  11  12
HETATM   12  O3  UNL     1      25.006  17.734  15.587  1.00  0.00    -0.400 OA
ATOM     13  H3  UNL     1      25.923  17.602  15.380  1.00  0.00     0.209 HD
ENDBRANCH  11  12
ENDBRANCH   4  11
BRANCH   3  14
HETATM   14  O2  UNL     1      23.783  21.744  17.505  1.00  0.00    -0.395 OA
ATOM     15  H2  UNL     1      24.332  21.366  18.183  1.00  0.00     0.210 HD
ENDBRANCH   3  14
TORSDOF 6
ENDMDL
MODEL 4
REMARK VINA RESULT: -5.674648411      1.444      2.448
REMARK  6 active torsions:
REMARK  status: ('A' for Active; 'I' for Inactive)
REMARK    1  A    between atoms: N1_1  and  S1_4 
REMARK    2  A    between atoms: S1_4  and  C1_6 
REMARK    3  A    between atoms: C1_6  and  C2_7 
REMARK    4  A    between atoms: C4_9  and  O2_10 
REMARK    5  A    between atoms: C5_12  and  C6_13 
REMARK    6  A    between atoms: C6_13  and  O3_14 
ROOT
HETATM    1  C2  UNL     1      22.975  19.875  15.589  1.00  0.00     0.010 C 
HETATM    2  C3  UNL     1      23.679  20.024  16.910  1.00  0.00     0.038 C 
HETATM    3  C4  UNL     1      24.791  20.724  16.144  1.00  0.00     0.125 C 
HETATM    4  C5  UNL     1      23.723  21.065  15.101  1.00  0.00     0.043 C 
ENDROOT
BRANCH   1   5
HETATM    5  C1  UNL     1      21.485  19.956  15.621  1.00  0.00     0.137 C 
BRANCH   5   6
HETATM    6  S1  UNL     1      20.733  18.359  15.604  1.00  0.00     0.108 S 
HETATM    7  O1  UNL     1      19.286  18.463  14.756  1.00  0.00    -0.236 OA
BRANCH   6   8
HETATM    8  N1  UNL     1      21.717  17.173  14.852  1.00  0.00    -0.350 NA
ATOM      9  H12 UNL     1      21.851  16.346  15.434  1.00  0.00     0.166 HD
ATOM     10  H11 UNL     1      22.630  17.586  14.663  1.00  0.00     0.166 HD
ENDBRANCH   6   8
ENDBRANCH   5   6
ENDBRANCH   1   5
BRANCH   4  11
HETATM   11  C6  UNL     1      23.113  22.413  15.480  1.00  0.00     0.171 C 
BRANCH  11  12
HETATM   12  O3  UNL     1      22.659  23.036  14.318  1.00  0.00    -0.400 OA
ATOM     13  H3  UNL     1      21.771  23.336  14.465  1.00  0.00     0.209 HD
ENDBRANCH  11  12
ENDBRANCH   4  11
BRANCH   3  14
HETATM   14  O2  UNL     1      25.666  19.776  15.638  1.00  0.00    -0.395 OA
ATOM     15  H2  UNL     1      25.339  18.907  15.837  1.00  0.00     0.210 HD
ENDBRANCH   3  14
TORSDOF 6
ENDMDL
MODEL 5
REMARK VINA RESULT: -5.600769700      2.002      2.793
REMARK  6 active torsions:
REMARK  status: ('A' for Active; 'I' for Inactive)
REMARK    1  A    between atoms: N1_1  and  S1_4 
REMARK    2  A    between atoms: S1_4  and  C1_6 
REMARK    3  A    between atoms: C1_6  and  C2_7 
REMARK    4  A    between atoms: C4_9  and  O2_10 
REMARK    5  A    between atoms: C5_12  and  C6_13 
REMARK    6  A    between atoms: C6_13  and  O3_14 
ROOT
HETATM    1  C2  UNL     1      23.042  19.773  15.695  1.00  0.00     0.010 C 
HETATM    2  C3  UNL     1      23.851  20.048  16.933  1.00  0.00     0.038 C 
HETATM    3  C4  UNL     1      24.829  20.784  16.031  1.00  0.00     0.125 C 
HETATM    4  C5  UNL     1      23.645  20.987  15.080  1.00  0.00     0.043 C 
ENDROOT
BRANCH   1   5
HETATM    5  C1  UNL     1      21.560  19.746  15.866  1.00  0.00     0.137 C 
BRANCH   5   6
HETATM    6  S1  UNL     1      20.727  19.304  14.374  1.00  0.00     0.108 S 
HETATM    7  O1  UNL     1      19.326  18.468  14.775  1.00  0.00    -0.236 OA
BRANCH   6   8
HETATM    8  N1  UNL     1      20.291  20.668  13.431  1.00  0.00    -0.350 NA
ATOM      9  H12 UNL     1      19.494  20.486  12.821  1.00  0.00     0.166 HD
ATOM     10  H11 UNL     1      21.089  20.926  12.851  1.00  0.00     0.166 HD
ENDBRANCH   6   8
ENDBRANCH   5   6
ENDBRANCH   1   5
BRANCH   4  11
HETATM   11  C6  UNL     1      22.969  22.305  15.450  1.00  0.00     0.171 C 
BRANCH  11  12
HETATM   12  O3  UNL     1      22.407  22.853  14.298  1.00  0.00    -0.400 OA
ATOM     13  H3  UNL     1      22.541  23.793  14.316  1.00  0.00     0.209 HD
ENDBRANCH  11  12
ENDBRANCH   4  11
BRANCH   3  14
HETATM   14  O2  UNL     1      25.725  19.877  15.489  1.00  0.00    -0.395 OA
ATOM     15  H2  UNL     1      25.345  19.486  14.711  1.00  0.00     0.210 HD
ENDBRANCH   3  14
TORSDOF 6
ENDMDL
