MODEL 1
REMARK VINA RESULT: -8.652891387      0.000      0.000
REMARK  7 active torsions:
REMARK  status: ('A' for Active; 'I' for Inactive)
REMARK    1  A    between atoms: N1_1  and  S1_4 
REMARK    2  A    between atoms: S1_4  and  N2_6 
REMARK    3  A    between atoms: S1_4  and  C10_22 
REMARK       I    between atoms: N2_6  and  C1_8 
REMARK    4  A    between atoms: C1_8  and  C2_10 
REMARK    5  A    between atoms: C2_10  and  N3_11 
REMARK    6  A    between atoms: C2_10  and  C9_19 
REMARK    7  A    between atoms: N3_11  and  C3_13 
ROOT
HETATM    1  N2  UNL     1      -3.902  -0.187   6.403  1.00  0.00    -0.265 N 
ATOM      2  H2  UNL     1      -4.519   0.483   6.863  1.00  0.00     0.180 HD
HETATM    3  C1  UNL     1      -2.727   0.393   5.936  1.00  0.00     0.263 C 
HETATM    4  O2  UNL     1      -1.794  -0.164   5.333  1.00  0.00    -0.270 OA
ENDROOT
BRANCH   3   5
HETATM    5  C2  UNL     1      -2.545   1.888   6.155  1.00  0.00     0.277 C 
BRANCH   5   6
HETATM    6  N3  UNL     1      -1.549   2.357   5.307  1.00  0.00    -0.368 N 
ATOM      7  H3  UNL     1      -0.660   2.009   5.668  1.00  0.00     0.161 HD
BRANCH   6   8
HETATM    8  C3  UNL     1      -1.265   3.096   4.181  1.00  0.00     0.029 A 
HETATM    9  C4  UNL     1      -2.152   3.871   3.514  1.00  0.00     0.029 A 
HETATM   10  C5  UNL     1      -1.776   4.550   2.355  1.00  0.00     0.002 A 
HETATM   11  C6  UNL     1      -0.484   4.418   1.897  1.00  0.00     0.000 A 
HETATM   12  C7  UNL     1       0.429   3.637   2.557  1.00  0.00     0.002 A 
HETATM   13  C8  UNL     1       0.074   2.977   3.686  1.00  0.00     0.029 A 
ENDBRANCH   6   8
ENDBRANCH   5   6
BRANCH   5  14
HETATM   14  C9  UNL     1      -2.349   2.148   7.561  1.00  0.00     0.206 C 
HETATM   15  O3  UNL     1      -1.489   2.919   8.089  1.00  0.00    -0.646 OA
HETATM   16  O4  UNL     1      -3.181   1.515   8.519  1.00  0.00    -0.646 OA
ENDBRANCH   5  14
ENDBRANCH   3   5
BRANCH   1  17
HETATM   17  S1  UNL     1      -4.599  -1.918   6.375  1.00  0.00     0.139 S 
HETATM   18  O1  UNL     1      -3.860  -2.354   7.658  1.00  0.00    -0.223 OA
BRANCH  17  19
HETATM   19  N1  UNL     1      -5.551  -1.570   4.861  1.00  0.00    -0.341 N 
ATOM     20  H12 UNL     1      -6.041  -2.418   5.148  1.00  0.00     0.167 HD
ATOM     21  H11 UNL     1      -6.024  -1.293   4.000  1.00  0.00     0.167 HD
ENDBRANCH  17  19
BRANCH  17  22
HETATM   22  C10 UNL     1      -3.545  -3.195   5.379  1.00  0.00     0.058 A 
HETATM   23  C11 UNL     1      -4.149  -3.840   4.336  1.00  0.00     0.023 A 
HETATM   24  C12 UNL     1      -3.436  -4.720   3.573  1.00  0.00     0.002 A 
HETATM   25  C13 UNL     1      -2.082  -4.988   3.837  1.00  0.00     0.000 A 
HETATM   26  C14 UNL     1      -1.509  -4.323   4.886  1.00  0.00     0.002 A 
HETATM   27  C15 UNL     1      -2.263  -3.413   5.662  1.00  0.00     0.023 A 
ENDBRANCH  17  22
ENDBRANCH   1  17
TORSDOF 7
ENDMDL
MODEL 2
REMARK VINA RESULT: -7.927296195      2.087      3.319
REMARK  7 active torsions:
REMARK  status: ('A' for Active; 'I' for Inactive)
REMARK    1  A    between atoms: N1_1  and  S1_4 
REMARK    2  A    between atoms: S1_4  and  N2_6 
REMARK    3  A    between atoms: S1_4  and  C10_22 
REMARK       I    between atoms: N2_6  and  C1_8 
REMARK    4  A    between atoms: C1_8  and  C2_10 
REMARK    5  A    between atoms: C2_10  and  N3_11 
REMARK    6  A    between atoms: C2_10  and  C9_19 
REMARK    7  A    between atoms: N3_11  and  C3_13 
ROOT
HETATM    1  N2  UNL     1      -1.564   1.571   6.331  1.00  0.00    -0.265 N 
ATOM      2  H2  UNL     1      -0.801   2.044   6.816  1.00  0.00     0.180 HD
HETATM    3  C1  UNL     1      -1.675   1.951   4.998  1.00  0.00     0.263 C 
HETATM    4  O2  UNL     1      -2.507   1.555   4.162  1.00  0.00    -0.270 OA
ENDROOT
BRANCH   3   5
HETATM    5  C2  UNL     1      -0.690   2.987   4.477  1.00  0.00     0.277 C 
BRANCH   5   6
HETATM    6  N3  UNL     1      -1.357   3.872   3.638  1.00  0.00    -0.368 N 
ATOM      7  H3  UNL     1      -2.287   4.015   4.033  1.00  0.00     0.161 HD
BRANCH   6   8
HETATM    8  C3  UNL     1      -1.283   4.634   2.495  1.00  0.00     0.029 A 
HETATM    9  C4  UNL     1      -0.165   5.247   2.038  1.00  0.00     0.029 A 
HETATM   10  C5  UNL     1      -0.204   6.035   0.887  1.00  0.00     0.002 A 
HETATM   11  C6  UNL     1      -1.399   6.184   0.222  1.00  0.00     0.000 A 
HETATM   12  C7  UNL     1      -2.543   5.573   0.669  1.00  0.00     0.002 A 
HETATM   13  C8  UNL     1      -2.515   4.802   1.783  1.00  0.00     0.029 A 
ENDBRANCH   6   8
ENDBRANCH   5   6
BRANCH   5  14
HETATM   14  C9  UNL     1       0.455   2.320   3.906  1.00  0.00     0.206 C 
HETATM   15  O3  UNL     1       1.680   2.581   4.112  1.00  0.00    -0.646 OA
HETATM   16  O4  UNL     1       0.266   1.234   3.014  1.00  0.00    -0.646 OA
ENDBRANCH   5  14
ENDBRANCH   3   5
BRANCH   1  17
HETATM   17  S1  UNL     1      -2.502   0.389   7.430  1.00  0.00     0.139 S 
HETATM   18  O1  UNL     1      -1.240  -0.394   7.850  1.00  0.00    -0.223 OA
BRANCH  17  19
HETATM   19  N1  UNL     1      -4.087   1.206   7.050  1.00  0.00    -0.341 N 
ATOM     20  H12 UNL     1      -4.246   1.036   8.043  1.00  0.00     0.167 HD
ATOM     21  H11 UNL     1      -4.940   1.671   6.740  1.00  0.00     0.167 HD
ENDBRANCH  17  19
BRANCH  17  22
HETATM   22  C10 UNL     1      -3.146  -1.200   6.539  1.00  0.00     0.058 A 
HETATM   23  C11 UNL     1      -4.430  -1.188   6.068  1.00  0.00     0.023 A 
HETATM   24  C12 UNL     1      -4.919  -2.270   5.393  1.00  0.00     0.002 A 
HETATM   25  C13 UNL     1      -4.130  -3.412   5.170  1.00  0.00     0.000 A 
HETATM   26  C14 UNL     1      -2.851  -3.388   5.653  1.00  0.00     0.002 A 
HETATM   27  C15 UNL     1      -2.361  -2.258   6.345  1.00  0.00     0.023 A 
ENDBRANCH  17  22
ENDBRANCH   1  17
TORSDOF 7
ENDMDL
MODEL 3
REMARK VINA RESULT: -7.734387679      2.062      3.144
REMARK  7 active torsions:
REMARK  status: ('A' for Active; 'I' for Inactive)
REMARK    1  A    between atoms: N1_1  and  S1_4 
REMARK    2  A    between atoms: S1_4  and  N2_6 
REMARK    3  A    between atoms: S1_4  and  C10_22 
REMARK       I    between atoms: N2_6  and  C1_8 
REMARK    4  A    between atoms: C1_8  and  C2_10 
REMARK    5  A    between atoms: C2_10  and  N3_11 
REMARK    6  A    between atoms: C2_10  and  C9_19 
REMARK    7  A    between atoms: N3_11  and  C3_13 
ROOT
HETATM    1  N2  UNL     1      -1.620   1.551   6.343  1.00  0.00    -0.265 N 
ATOM      2  H2  UNL     1      -0.884   2.062   6.831  1.00  0.00     0.180 HD
HETATM    3  C1  UNL     1      -1.733   1.912   5.005  1.00  0.00     0.263 C 
HETATM    4  O2  UNL     1      -2.536   1.470   4.165  1.00  0.00    -0.270 OA
ENDROOT
BRANCH   3   5
HETATM    5  C2  UNL     1      -0.790   2.987   4.484  1.00  0.00     0.277 C 
BRANCH   5   6
HETATM    6  N3  UNL     1      -1.494   3.850   3.653  1.00  0.00    -0.368 N 
ATOM      7  H3  UNL     1      -2.437   3.930   4.035  1.00  0.00     0.161 HD
BRANCH   6   8
HETATM    8  C3  UNL     1      -1.447   4.641   2.529  1.00  0.00     0.029 A 
HETATM    9  C4  UNL     1      -2.499   4.916   1.723  1.00  0.00     0.029 A 
HETATM   10  C5  UNL     1      -2.338   5.699   0.580  1.00  0.00     0.002 A 
HETATM   11  C6  UNL     1      -1.086   6.187   0.279  1.00  0.00     0.000 A 
HETATM   12  C7  UNL     1      -0.006   5.919   1.081  1.00  0.00     0.002 A 
HETATM   13  C8  UNL     1      -0.154   5.164   2.196  1.00  0.00     0.029 A 
ENDBRANCH   6   8
ENDBRANCH   5   6
BRANCH   5  14
HETATM   14  C9  UNL     1       0.376   2.365   3.903  1.00  0.00     0.206 C 
HETATM   15  O3  UNL     1       1.592   2.658   4.119  1.00  0.00    -0.646 OA
HETATM   16  O4  UNL     1       0.222   1.293   2.988  1.00  0.00    -0.646 OA
ENDBRANCH   5  14
ENDBRANCH   3   5
BRANCH   1  17
HETATM   17  S1  UNL     1      -2.515   0.338   7.444  1.00  0.00     0.139 S 
HETATM   18  O1  UNL     1      -1.231  -0.425   7.833  1.00  0.00    -0.223 OA
BRANCH  17  19
HETATM   19  N1  UNL     1      -4.122   1.128   7.101  1.00  0.00    -0.341 N 
ATOM     20  H12 UNL     1      -3.878   1.654   7.940  1.00  0.00     0.167 HD
ATOM     21  H11 UNL     1      -5.028   1.507   6.828  1.00  0.00     0.167 HD
ENDBRANCH  17  19
BRANCH  17  22
HETATM   22  C10 UNL     1      -3.143  -1.253   6.546  1.00  0.00     0.058 A 
HETATM   23  C11 UNL     1      -4.433  -1.258   6.091  1.00  0.00     0.023 A 
HETATM   24  C12 UNL     1      -4.913  -2.341   5.411  1.00  0.00     0.002 A 
HETATM   25  C13 UNL     1      -4.108  -3.468   5.168  1.00  0.00     0.000 A 
HETATM   26  C14 UNL     1      -2.824  -3.428   5.636  1.00  0.00     0.002 A 
HETATM   27  C15 UNL     1      -2.344  -2.296   6.333  1.00  0.00     0.023 A 
ENDBRANCH  17  22
ENDBRANCH   1  17
TORSDOF 7
ENDMDL
MODEL 4
REMARK VINA RESULT: -7.184283385      6.539     10.085
REMARK  7 active torsions:
REMARK  status: ('A' for Active; 'I' for Inactive)
REMARK    1  A    between atoms: N1_1  and  S1_4 
REMARK    2  A    between atoms: S1_4  and  N2_6 
REMARK    3  A    between atoms: S1_4  and  C10_22 
REMARK       I    between atoms: N2_6  and  C1_8 
REMARK    4  A    between atoms: C1_8  and  C2_10 
REMARK    5  A    between atoms: C2_10  and  N3_11 
REMARK    6  A    between atoms: C2_10  and  C9_19 
REMARK    7  A    between atoms: N3_11  and  C3_13 
ROOT
HETATM    1  N2  UNL     1       0.104   8.121   2.398  1.00  0.00    -0.265 N 
ATOM      2  H2  UNL     1       0.870   7.653   1.914  1.00  0.00     0.180 HD
HETATM    3  C1  UNL     1      -1.141   7.590   2.080  1.00  0.00     0.263 C 
HETATM    4  O2  UNL     1      -2.252   7.954   2.503  1.00  0.00    -0.270 OA
ENDROOT
BRANCH   3   5
HETATM    5  C2  UNL     1      -1.182   6.440   1.084  1.00  0.00     0.277 C 
BRANCH   5   6
HETATM    6  N3  UNL     1      -0.455   5.369   1.591  1.00  0.00    -0.368 N 
ATOM      7  H3  UNL     1       0.494   5.453   1.225  1.00  0.00     0.161 HD
BRANCH   6   8
HETATM    8  C3  UNL     1      -0.486   4.244   2.381  1.00  0.00     0.029 A 
HETATM    9  C4  UNL     1       0.588   3.691   2.993  1.00  0.00     0.029 A 
HETATM   10  C5  UNL     1       0.460   2.521   3.742  1.00  0.00     0.002 A 
HETATM   11  C6  UNL     1      -0.780   1.932   3.848  1.00  0.00     0.000 A 
HETATM   12  C7  UNL     1      -1.881   2.475   3.235  1.00  0.00     0.002 A 
HETATM   13  C8  UNL     1      -1.766   3.613   2.509  1.00  0.00     0.029 A 
ENDBRANCH   6   8
ENDBRANCH   5   6
BRANCH   5  14
HETATM   14  C9  UNL     1      -0.780   6.915  -0.218  1.00  0.00     0.206 C 
HETATM   15  O3  UNL     1       0.213   7.656  -0.494  1.00  0.00    -0.646 OA
HETATM   16  O4  UNL     1      -1.524   6.543  -1.366  1.00  0.00    -0.646 OA
ENDBRANCH   5  14
ENDBRANCH   3   5
BRANCH   1  17
HETATM   17  S1  UNL     1       0.683   9.502   3.512  1.00  0.00     0.139 S 
HETATM   18  O1  UNL     1       2.089   8.898   3.712  1.00  0.00    -0.223 OA
BRANCH  17  19
HETATM   19  N1  UNL     1      -0.920  10.359   3.378  1.00  0.00    -0.341 N 
ATOM     20  H12 UNL     1      -0.319  11.127   3.077  1.00  0.00     0.167 HD
ATOM     21  H11 UNL     1      -1.861  10.750   3.335  1.00  0.00     0.167 HD
ENDBRANCH  17  19
BRANCH  17  22
HETATM   22  C10 UNL     1       0.336   9.219   5.392  1.00  0.00     0.058 A 
HETATM   23  C11 UNL     1       1.412   9.148   6.233  1.00  0.00     0.023 A 
HETATM   24  C12 UNL     1       1.220   8.993   7.576  1.00  0.00     0.002 A 
HETATM   25  C13 UNL     1      -0.071   8.898   8.124  1.00  0.00     0.000 A 
HETATM   26  C14 UNL     1      -1.123   8.975   7.255  1.00  0.00     0.002 A 
HETATM   27  C15 UNL     1      -0.905   9.140   5.868  1.00  0.00     0.023 A 
ENDBRANCH  17  22
ENDBRANCH   1  17
TORSDOF 7
ENDMDL
MODEL 5
REMARK VINA RESULT: -6.915496089      2.257      6.941
REMARK  7 active torsions:
REMARK  status: ('A' for Active; 'I' for Inactive)
REMARK    1  A    between atoms: N1_1  and  S1_4 
REMARK    2  A    between atoms: S1_4  and  N2_6 
REMARK    3  A    between atoms: S1_4  and  C10_22 
REMARK       I    between atoms: N2_6  and  C1_8 
REMARK    4  A    between atoms: C1_8  and  C2_10 
REMARK    5  A    between atoms: C2_10  and  N3_11 
REMARK    6  A    between atoms: C2_10  and  C9_19 
REMARK    7  A    between atoms: N3_11  and  C3_13 
ROOT
HETATM    1  N2  UNL     1      -0.334   1.708   5.266  1.00  0.00    -0.265 N 
ATOM      2  H2  UNL     1       0.258   1.754   6.095  1.00  0.00     0.180 HD
HETATM    3  C1  UNL     1      -1.606   1.215   5.537  1.00  0.00     0.263 C 
HETATM    4  O2  UNL     1      -2.538   1.038   4.733  1.00  0.00    -0.270 OA
ENDROOT
BRANCH   3   5
HETATM    5  C2  UNL     1      -1.916   0.818   6.973  1.00  0.00     0.277 C 
BRANCH   5   6
HETATM    6  N3  UNL     1      -2.203  -0.541   7.020  1.00  0.00    -0.368 N 
ATOM      7  H3  UNL     1      -1.967  -0.864   7.959  1.00  0.00     0.161 HD
BRANCH   6   8
HETATM    8  C3  UNL     1      -2.674  -1.631   6.325  1.00  0.00     0.029 A 
HETATM    9  C4  UNL     1      -1.915  -2.661   5.884  1.00  0.00     0.029 A 
HETATM   10  C5  UNL     1      -2.483  -3.703   5.149  1.00  0.00     0.002 A 
HETATM   11  C6  UNL     1      -3.832  -3.665   4.876  1.00  0.00     0.000 A 
HETATM   12  C7  UNL     1      -4.618  -2.630   5.313  1.00  0.00     0.002 A 
HETATM   13  C8  UNL     1      -4.076  -1.616   6.031  1.00  0.00     0.029 A 
ENDBRANCH   6   8
ENDBRANCH   5   6
BRANCH   5  14
HETATM   14  C9  UNL     1      -2.929   1.695   7.508  1.00  0.00     0.206 C 
HETATM   15  O3  UNL     1      -4.145   1.773   7.153  1.00  0.00    -0.646 OA
HETATM   16  O4  UNL     1      -2.603   2.591   8.558  1.00  0.00    -0.646 OA
ENDBRANCH   5  14
ENDBRANCH   3   5
BRANCH   1  17
HETATM   17  S1  UNL     1       0.530   2.302   3.721  1.00  0.00     0.139 S 
HETATM   18  O1  UNL     1       1.281   3.438   4.447  1.00  0.00    -0.223 OA
BRANCH  17  19
HETATM   19  N1  UNL     1      -0.266   1.009   2.712  1.00  0.00    -0.341 N 
ATOM     20  H12 UNL     1       0.674   0.938   2.323  1.00  0.00     0.167 HD
ATOM     21  H11 UNL     1      -0.799   0.307   2.198  1.00  0.00     0.167 HD
ENDBRANCH  17  19
BRANCH  17  22
HETATM   22  C10 UNL     1      -0.442   3.636   2.718  1.00  0.00     0.058 A 
HETATM   23  C11 UNL     1       0.285   4.560   2.020  1.00  0.00     0.023 A 
HETATM   24  C12 UNL     1      -0.353   5.498   1.259  1.00  0.00     0.002 A 
HETATM   25  C13 UNL     1      -1.756   5.543   1.177  1.00  0.00     0.000 A 
HETATM   26  C14 UNL     1      -2.451   4.603   1.886  1.00  0.00     0.002 A 
HETATM   27  C15 UNL     1      -1.773   3.637   2.664  1.00  0.00     0.023 A 
ENDBRANCH  17  22
ENDBRANCH   1  17
TORSDOF 7
ENDMDL
