MODEL 1
REMARK VINA RESULT: -7.668752304      0.000      0.000
REMARK  9 active torsions:
REMARK  status: ('A' for Active; 'I' for Inactive)
REMARK    1  A    between atoms: C5_5  and  C6_6 
REMARK       I    between atoms: C6_6  and  N1_8 
REMARK    2  A    between atoms: N1_8  and  C7_10 
REMARK    3  A    between atoms: C7_10  and  C8_11 
REMARK    4  A    between atoms: C7_10  and  C12_22 
REMARK    5  A    between atoms: C8_11  and  O2_12 
REMARK    6  A    between atoms: C8_11  and  N2_14 
REMARK    7  A    between atoms: N2_14  and  C9_16 
REMARK    8  A    between atoms: C9_16  and  C10_17 
REMARK    9  A    between atoms: C9_16  and  C11_19 
ROOT
HETATM    1  C7  UNL     1      -2.531   0.660   6.974  1.00  0.00     0.162 C 
ENDROOT
BRANCH   1   2
HETATM    2  N1  UNL     1      -1.840   1.426   5.910  1.00  0.00    -0.348 N 
HETATM    3  C6  UNL     1      -2.242   1.399   4.560  1.00  0.00     0.222 C 
HETATM    4  O1  UNL     1      -3.217   0.711   4.206  1.00  0.00    -0.273 OA
ATOM      5  H1  UNL     1      -1.037   1.999   6.167  1.00  0.00     0.163 HD
BRANCH   3   6
HETATM    6  C5  UNL     1      -1.508   2.190   3.560  1.00  0.00     0.078 C 
HETATM    7  C4  UNL     1      -2.026   3.610   3.646  1.00  0.00     0.014 C 
HETATM    8  C3  UNL     1      -1.612   4.282   2.351  1.00  0.00     0.005 C 
HETATM    9  C2  UNL     1      -0.167   3.965   2.031  1.00  0.00    -0.019 C 
HETATM   10  C1  UNL     1       0.447   5.209   1.461  1.00  0.00     0.010 C 
HETATM   11  C16 UNL     1       0.610   3.476   3.240  1.00  0.00     0.005 C 
HETATM   12  C15 UNL     1      -0.011   2.214   3.787  1.00  0.00     0.014 C 
ENDBRANCH   3   6
ENDBRANCH   1   2
BRANCH   1  13
HETATM   13  C8  UNL     1      -2.246  -0.762   6.794  1.00  0.00     0.136 C 
BRANCH  13  14
HETATM   14  O2  UNL     1      -1.591  -1.320   7.786  1.00  0.00    -0.348 OA
ATOM     15  H2  UNL     1      -1.112  -2.107   7.552  1.00  0.00     0.219 HD
ENDBRANCH  13  14
BRANCH  13  16
HETATM   16  N2  UNL     1      -2.542  -1.643   5.766  1.00  0.00    -0.353 N 
ATOM     17  H2  UNL     1      -1.988  -1.591   4.911  1.00  0.00     0.162 HD
BRANCH  16  18
HETATM   18  C9  UNL     1      -3.617  -2.653   5.840  1.00  0.00     0.246 C 
BRANCH  18  19
HETATM   19  C10 UNL     1      -4.890  -2.091   5.301  1.00  0.00     0.267 C 
HETATM   20  O3  UNL     1      -5.783  -1.619   5.950  1.00  0.00    -0.304 OA
ENDBRANCH  18  19
BRANCH  18  21
HETATM   21  C11 UNL     1      -3.264  -3.819   5.009  1.00  0.00     0.203 C 
HETATM   22  O4  UNL     1      -4.131  -4.362   4.309  1.00  0.00    -0.646 OA
HETATM   23  O5  UNL     1      -1.979  -4.298   5.015  1.00  0.00    -0.646 OA
ENDBRANCH  18  21
ENDBRANCH  16  18
ENDBRANCH  13  16
ENDBRANCH   1  13
BRANCH   1  24
HETATM   24  C12 UNL     1      -2.217   1.254   8.314  1.00  0.00     0.008 C 
HETATM   25  C13 UNL     1      -1.867   2.741   8.170  1.00  0.00     0.012 C 
HETATM   26  C14 UNL     1      -3.449   1.278   9.237  1.00  0.00     0.012 C 
ENDBRANCH   1  24
TORSDOF 9
ENDMDL
MODEL 2
REMARK VINA RESULT: -7.279662536      1.554      2.287
REMARK  9 active torsions:
REMARK  status: ('A' for Active; 'I' for Inactive)
REMARK    1  A    between atoms: C5_5  and  C6_6 
REMARK       I    between atoms: C6_6  and  N1_8 
REMARK    2  A    between atoms: N1_8  and  C7_10 
REMARK    3  A    between atoms: C7_10  and  C8_11 
REMARK    4  A    between atoms: C7_10  and  C12_22 
REMARK    5  A    between atoms: C8_11  and  O2_12 
REMARK    6  A    between atoms: C8_11  and  N2_14 
REMARK    7  A    between atoms: N2_14  and  C9_16 
REMARK    8  A    between atoms: C9_16  and  C10_17 
REMARK    9  A    between atoms: C9_16  and  C11_19 
ROOT
HETATM    1  C7  UNL     1      -3.787  -0.519   6.664  1.00  0.00     0.162 C 
ENDROOT
BRANCH   1   2
HETATM    2  N1  UNL     1      -2.943   0.055   5.590  1.00  0.00    -0.348 N 
HETATM    3  C6  UNL     1      -2.718   1.438   5.446  1.00  0.00     0.222 C 
HETATM    4  O1  UNL     1      -3.235   2.247   6.239  1.00  0.00    -0.273 OA
ATOM      5  H1  UNL     1      -2.506  -0.581   4.922  1.00  0.00     0.163 HD
BRANCH   3   6
HETATM    6  C5  UNL     1      -1.865   1.934   4.355  1.00  0.00     0.078 C 
HETATM    7  C4  UNL     1      -2.101   3.425   4.246  1.00  0.00     0.014 C 
HETATM    8  C3  UNL     1      -1.590   3.828   2.876  1.00  0.00     0.005 C 
HETATM    9  C2  UNL     1      -0.238   3.201   2.613  1.00  0.00    -0.019 C 
HETATM   10  C1  UNL     1       0.592   4.218   1.886  1.00  0.00     0.010 C 
HETATM   11  C16 UNL     1       0.454   2.736   3.882  1.00  0.00     0.005 C 
HETATM   12  C15 UNL     1      -0.387   1.700   4.588  1.00  0.00     0.014 C 
ENDBRANCH   3   6
ENDBRANCH   1   2
BRANCH   1  13
HETATM   13  C8  UNL     1      -4.410  -1.746   6.172  1.00  0.00     0.136 C 
BRANCH  13  14
HETATM   14  O2  UNL     1      -5.689  -1.638   5.892  1.00  0.00    -0.348 OA
ATOM     15  H2  UNL     1      -6.259  -2.183   6.421  1.00  0.00     0.219 HD
ENDBRANCH  13  14
BRANCH  13  16
HETATM   16  N2  UNL     1      -3.901  -3.014   5.940  1.00  0.00    -0.353 N 
ATOM     17  H2  UNL     1      -4.287  -3.793   6.472  1.00  0.00     0.162 HD
BRANCH  16  18
HETATM   18  C9  UNL     1      -2.831  -3.299   4.962  1.00  0.00     0.246 C 
BRANCH  18  19
HETATM   19  C10 UNL     1      -1.531  -3.498   5.667  1.00  0.00     0.267 C 
HETATM   20  O3  UNL     1      -0.772  -4.413   5.500  1.00  0.00    -0.304 OA
ENDBRANCH  18  19
BRANCH  18  21
HETATM   21  C11 UNL     1      -3.136  -4.546   4.238  1.00  0.00     0.203 C 
HETATM   22  O4  UNL     1      -3.805  -5.432   4.790  1.00  0.00    -0.646 OA
HETATM   23  O5  UNL     1      -2.679  -4.722   2.957  1.00  0.00    -0.646 OA
ENDBRANCH  18  21
ENDBRANCH  16  18
ENDBRANCH  13  16
ENDBRANCH   1  13
BRANCH   1  24
HETATM   24  C12 UNL     1      -2.996  -0.618   7.933  1.00  0.00     0.008 C 
HETATM   25  C13 UNL     1      -1.522  -0.279   7.671  1.00  0.00     0.012 C 
HETATM   26  C14 UNL     1      -3.416   0.448   8.961  1.00  0.00     0.012 C 
ENDBRANCH   1  24
TORSDOF 9
ENDMDL
MODEL 3
REMARK VINA RESULT: -7.054649260      0.776      1.863
REMARK  9 active torsions:
REMARK  status: ('A' for Active; 'I' for Inactive)
REMARK    1  A    between atoms: C5_5  and  C6_6 
REMARK       I    between atoms: C6_6  and  N1_8 
REMARK    2  A    between atoms: N1_8  and  C7_10 
REMARK    3  A    between atoms: C7_10  and  C8_11 
REMARK    4  A    between atoms: C7_10  and  C12_22 
REMARK    5  A    between atoms: C8_11  and  O2_12 
REMARK    6  A    between atoms: C8_11  and  N2_14 
REMARK    7  A    between atoms: N2_14  and  C9_16 
REMARK    8  A    between atoms: C9_16  and  C10_17 
REMARK    9  A    between atoms: C9_16  and  C11_19 
ROOT
HETATM    1  C7  UNL     1      -2.863   0.976   7.101  1.00  0.00     0.162 C 
ENDROOT
BRANCH   1   2
HETATM    2  N1  UNL     1      -2.111   1.672   6.031  1.00  0.00    -0.348 N 
HETATM    3  C6  UNL     1      -2.321   1.425   4.660  1.00  0.00     0.222 C 
HETATM    4  O1  UNL     1      -3.168   0.591   4.291  1.00  0.00    -0.273 OA
ATOM      5  H1  UNL     1      -1.408   2.361   6.299  1.00  0.00     0.163 HD
BRANCH   3   6
HETATM    6  C5  UNL     1      -1.537   2.159   3.653  1.00  0.00     0.078 C 
HETATM    7  C4  UNL     1      -2.045   3.585   3.645  1.00  0.00     0.014 C 
HETATM    8  C3  UNL     1      -1.569   4.187   2.337  1.00  0.00     0.005 C 
HETATM    9  C2  UNL     1      -0.115   3.844   2.097  1.00  0.00    -0.019 C 
HETATM   10  C1  UNL     1       0.535   5.053   1.492  1.00  0.00     0.010 C 
HETATM   11  C16 UNL     1       0.605   3.410   3.361  1.00  0.00     0.005 C 
HETATM   12  C15 UNL     1      -0.051   2.183   3.944  1.00  0.00     0.014 C 
ENDBRANCH   3   6
ENDBRANCH   1   2
BRANCH   1  13
HETATM   13  C8  UNL     1      -2.164  -0.261   7.443  1.00  0.00     0.136 C 
BRANCH  13  14
HETATM   14  O2  UNL     1      -1.026  -0.091   8.077  1.00  0.00    -0.348 OA
ATOM     15  H2  UNL     1      -0.806  -0.782   8.690  1.00  0.00     0.219 HD
ENDBRANCH  13  14
BRANCH  13  16
HETATM   16  N2  UNL     1      -2.479  -1.593   7.227  1.00  0.00    -0.353 N 
ATOM     17  H2  UNL     1      -2.536  -2.212   8.035  1.00  0.00     0.162 HD
BRANCH  16  18
HETATM   18  C9  UNL     1      -2.737  -2.165   5.890  1.00  0.00     0.246 C 
BRANCH  18  19
HETATM   19  C10 UNL     1      -2.004  -3.456   5.733  1.00  0.00     0.267 C 
HETATM   20  O3  UNL     1      -1.145  -3.686   4.926  1.00  0.00    -0.304 OA
ENDBRANCH  18  19
BRANCH  18  21
HETATM   21  C11 UNL     1      -4.175  -2.453   5.738  1.00  0.00     0.203 C 
HETATM   22  O4  UNL     1      -4.542  -3.399   5.025  1.00  0.00    -0.646 OA
HETATM   23  O5  UNL     1      -5.099  -1.675   6.386  1.00  0.00    -0.646 OA
ENDBRANCH  18  21
ENDBRANCH  16  18
ENDBRANCH  13  16
ENDBRANCH   1  13
BRANCH   1  24
HETATM   24  C12 UNL     1      -3.152   1.928   8.222  1.00  0.00     0.008 C 
HETATM   25  C13 UNL     1      -3.292   1.166   9.546  1.00  0.00     0.012 C 
HETATM   26  C14 UNL     1      -1.969   2.875   8.493  1.00  0.00     0.012 C 
ENDBRANCH   1  24
TORSDOF 9
ENDMDL
MODEL 4
REMARK VINA RESULT: -7.034425727      1.479      2.260
REMARK  9 active torsions:
REMARK  status: ('A' for Active; 'I' for Inactive)
REMARK    1  A    between atoms: C5_5  and  C6_6 
REMARK       I    between atoms: C6_6  and  N1_8 
REMARK    2  A    between atoms: N1_8  and  C7_10 
REMARK    3  A    between atoms: C7_10  and  C8_11 
REMARK    4  A    between atoms: C7_10  and  C12_22 
REMARK    5  A    between atoms: C8_11  and  O2_12 
REMARK    6  A    between atoms: C8_11  and  N2_14 
REMARK    7  A    between atoms: N2_14  and  C9_16 
REMARK    8  A    between atoms: C9_16  and  C10_17 
REMARK    9  A    between atoms: C9_16  and  C11_19 
ROOT
HETATM    1  C7  UNL     1      -3.693  -0.495   6.339  1.00  0.00     0.162 C 
ENDROOT
BRANCH   1   2
HETATM    2  N1  UNL     1      -2.848   0.130   5.295  1.00  0.00    -0.348 N 
HETATM    3  C6  UNL     1      -2.619   1.519   5.223  1.00  0.00     0.222 C 
HETATM    4  O1  UNL     1      -3.133   2.287   6.056  1.00  0.00    -0.273 OA
ATOM      5  H1  UNL     1      -2.413  -0.471   4.596  1.00  0.00     0.163 HD
BRANCH   3   6
HETATM    6  C5  UNL     1      -1.764   2.067   4.158  1.00  0.00     0.078 C 
HETATM    7  C4  UNL     1      -2.086   3.542   4.044  1.00  0.00     0.014 C 
HETATM    8  C3  UNL     1      -1.558   3.978   2.690  1.00  0.00     0.005 C 
HETATM    9  C2  UNL     1      -0.164   3.434   2.468  1.00  0.00    -0.019 C 
HETATM   10  C1  UNL     1       0.625   4.500   1.767  1.00  0.00     0.010 C 
HETATM   11  C16 UNL     1       0.515   3.009   3.757  1.00  0.00     0.005 C 
HETATM   12  C15 UNL     1      -0.282   1.923   4.437  1.00  0.00     0.014 C 
ENDBRANCH   3   6
ENDBRANCH   1   2
BRANCH   1  13
HETATM   13  C8  UNL     1      -4.400  -1.634   5.756  1.00  0.00     0.136 C 
BRANCH  13  14
HETATM   14  O2  UNL     1      -5.648  -1.764   6.146  1.00  0.00    -0.348 OA
ATOM     15  H2  UNL     1      -6.009  -2.636   6.037  1.00  0.00     0.219 HD
ENDBRANCH  13  14
BRANCH  13  16
HETATM   16  N2  UNL     1      -4.000  -2.610   4.857  1.00  0.00    -0.353 N 
ATOM     17  H2  UNL     1      -4.194  -2.462   3.867  1.00  0.00     0.162 HD
BRANCH  16  18
HETATM   18  C9  UNL     1      -3.309  -3.853   5.255  1.00  0.00     0.246 C 
BRANCH  18  19
HETATM   19  C10 UNL     1      -3.472  -4.894   4.197  1.00  0.00     0.267 C 
HETATM   20  O3  UNL     1      -2.804  -5.002   3.206  1.00  0.00    -0.304 OA
ENDBRANCH  18  19
BRANCH  18  21
HETATM   21  C11 UNL     1      -1.865  -3.596   5.401  1.00  0.00     0.203 C 
HETATM   22  O4  UNL     1      -1.380  -2.541   4.966  1.00  0.00    -0.646 OA
HETATM   23  O5  UNL     1      -1.064  -4.524   6.016  1.00  0.00    -0.646 OA
ENDBRANCH  18  21
ENDBRANCH  16  18
ENDBRANCH  13  16
ENDBRANCH   1  13
BRANCH   1  24
HETATM   24  C12 UNL     1      -2.874  -0.757   7.566  1.00  0.00     0.008 C 
HETATM   25  C13 UNL     1      -1.480  -0.133   7.421  1.00  0.00     0.012 C 
HETATM   26  C14 UNL     1      -3.444  -0.042   8.804  1.00  0.00     0.012 C 
ENDBRANCH   1  24
TORSDOF 9
ENDMDL
MODEL 5
REMARK VINA RESULT: -6.963427579      1.298      1.575
REMARK  9 active torsions:
REMARK  status: ('A' for Active; 'I' for Inactive)
REMARK    1  A    between atoms: C5_5  and  C6_6 
REMARK       I    between atoms: C6_6  and  N1_8 
REMARK    2  A    between atoms: N1_8  and  C7_10 
REMARK    3  A    between atoms: C7_10  and  C8_11 
REMARK    4  A    between atoms: C7_10  and  C12_22 
REMARK    5  A    between atoms: C8_11  and  O2_12 
REMARK    6  A    between atoms: C8_11  and  N2_14 
REMARK    7  A    between atoms: N2_14  and  C9_16 
REMARK    8  A    between atoms: C9_16  and  C10_17 
REMARK    9  A    between atoms: C9_16  and  C11_19 
ROOT
HETATM    1  C7  UNL     1      -3.302   0.581   6.691  1.00  0.00     0.162 C 
ENDROOT
BRANCH   1   2
HETATM    2  N1  UNL     1      -2.965   1.430   5.524  1.00  0.00    -0.348 N 
HETATM    3  C6  UNL     1      -1.712   1.389   4.882  1.00  0.00     0.222 C 
HETATM    4  O1  UNL     1      -0.821   0.618   5.283  1.00  0.00    -0.273 OA
ATOM      5  H1  UNL     1      -3.672   2.075   5.171  1.00  0.00     0.163 HD
BRANCH   3   6
HETATM    6  C5  UNL     1      -1.451   2.262   3.725  1.00  0.00     0.078 C 
HETATM    7  C4  UNL     1      -1.931   3.649   4.097  1.00  0.00     0.014 C 
HETATM    8  C3  UNL     1      -2.077   4.402   2.788  1.00  0.00     0.005 C 
HETATM    9  C2  UNL     1      -0.866   4.171   1.909  1.00  0.00    -0.019 C 
HETATM   10  C1  UNL     1      -0.559   5.469   1.224  1.00  0.00     0.010 C 
HETATM   11  C16 UNL     1       0.336   3.663   2.684  1.00  0.00     0.005 C 
HETATM   12  C15 UNL     1       0.014   2.348   3.350  1.00  0.00     0.014 C 
ENDBRANCH   3   6
ENDBRANCH   1   2
BRANCH   1  13
HETATM   13  C8  UNL     1      -3.577  -0.776   6.224  1.00  0.00     0.136 C 
BRANCH  13  14
HETATM   14  O2  UNL     1      -4.788  -1.213   6.487  1.00  0.00    -0.348 OA
ATOM     15  H2  UNL     1      -4.896  -2.154   6.412  1.00  0.00     0.219 HD
ENDBRANCH  13  14
BRANCH  13  16
HETATM   16  N2  UNL     1      -2.796  -1.698   5.545  1.00  0.00    -0.353 N 
ATOM     17  H2  UNL     1      -2.010  -1.352   4.995  1.00  0.00     0.162 HD
BRANCH  16  18
HETATM   18  C9  UNL     1      -3.038  -3.155   5.575  1.00  0.00     0.246 C 
BRANCH  18  19
HETATM   19  C10 UNL     1      -4.122  -3.516   4.615  1.00  0.00     0.267 C 
HETATM   20  O3  UNL     1      -5.267  -3.160   4.678  1.00  0.00    -0.304 OA
ENDBRANCH  18  19
BRANCH  18  21
HETATM   21  C11 UNL     1      -1.821  -3.872   5.156  1.00  0.00     0.203 C 
HETATM   22  O4  UNL     1      -0.800  -3.815   5.858  1.00  0.00    -0.646 OA
HETATM   23  O5  UNL     1      -1.822  -4.600   3.994  1.00  0.00    -0.646 OA
ENDBRANCH  18  21
ENDBRANCH  16  18
ENDBRANCH  13  16
ENDBRANCH   1  13
BRANCH   1  24
HETATM   24  C12 UNL     1      -2.256   0.737   7.753  1.00  0.00     0.008 C 
HETATM   25  C13 UNL     1      -2.478   2.040   8.533  1.00  0.00     0.012 C 
HETATM   26  C14 UNL     1      -2.376  -0.341   8.844  1.00  0.00     0.012 C 
ENDBRANCH   1  24
TORSDOF 9
ENDMDL
