MODEL 1
REMARK VINA RESULT: -8.390427717      0.000      0.000
REMARK  9 active torsions:
REMARK  status: ('A' for Active; 'I' for Inactive)
REMARK    1  A    between atoms: C2_2  and  N1_3 
REMARK    2  A    between atoms: C2_2  and  C10_14 
REMARK    3  A    between atoms: N1_3  and  N2_4 
REMARK       I    between atoms: N2_4  and  C3_6 
REMARK    4  A    between atoms: C3_6  and  C4_8 
REMARK       I    between atoms: C10_14  and  N3_16 
REMARK    5  A    between atoms: N3_16  and  C11_18 
REMARK    6  A    between atoms: C11_18  and  C12_19 
REMARK    7  A    between atoms: C11_18  and  C14_23 
REMARK    8  A    between atoms: C12_19  and  C13_20 
REMARK    9  A    between atoms: C14_23  and  O5_26 
ROOT
HETATM    1  C10 UNL     1      -2.173  -0.231   7.237  1.00  0.00     0.280 C 
HETATM    2  O2  UNL     1      -1.810  -0.855   8.257  1.00  0.00    -0.265 OA
HETATM    3  N3  UNL     1      -2.561  -0.777   6.032  1.00  0.00    -0.347 N 
ATOM      4  H3  UNL     1      -2.836  -0.079   5.340  1.00  0.00     0.163 HD
ENDROOT
BRANCH   1   5
HETATM    5  C2  UNL     1      -2.165   1.257   7.394  1.00  0.00     0.172 C 
HETATM    6  C1  UNL     1      -2.693   1.783   8.715  1.00  0.00     0.093 C 
BRANCH   5   7
HETATM    7  N1  UNL     1      -1.782   1.959   6.556  1.00  0.00    -0.322 NA
BRANCH   7   8
HETATM    8  N2  UNL     1      -1.378   2.776   5.649  1.00  0.00    -0.198 N 
HETATM    9  C3  UNL     1      -1.669   2.493   4.251  1.00  0.00     0.280 C 
HETATM   10  O1  UNL     1      -2.304   1.465   3.938  1.00  0.00    -0.265 OA
ATOM     11  H2  UNL     1      -0.858   3.615   5.906  1.00  0.00     0.205 HD
BRANCH   9  12
HETATM   12  C4  UNL     1      -1.228   3.400   3.207  1.00  0.00     0.034 A 
HETATM   13  C5  UNL     1       0.074   3.603   2.821  1.00  0.00     0.017 A 
HETATM   14  C6  UNL     1       0.430   4.491   1.799  1.00  0.00     0.001 A 
HETATM   15  C7  UNL     1      -0.531   5.202   1.136  1.00  0.00     0.000 A 
HETATM   16  C8  UNL     1      -1.845   5.015   1.505  1.00  0.00     0.001 A 
HETATM   17  C9  UNL     1      -2.188   4.145   2.506  1.00  0.00     0.017 A 
ENDBRANCH   9  12
ENDBRANCH   7   8
ENDBRANCH   5   7
ENDBRANCH   1   5
BRANCH   3  18
HETATM   18  C11 UNL     1      -2.657  -2.114   5.555  1.00  0.00     0.128 C 
BRANCH  18  19
HETATM   19  C12 UNL     1      -1.557  -3.064   6.019  1.00  0.00     0.141 C 
BRANCH  19  20
HETATM   20  C13 UNL     1      -1.270  -4.091   4.990  1.00  0.00     0.174 C 
HETATM   21  O3  UNL     1      -0.417  -4.984   5.229  1.00  0.00    -0.648 OA
HETATM   22  O4  UNL     1      -1.926  -4.069   3.788  1.00  0.00    -0.648 OA
ENDBRANCH  19  20
ENDBRANCH  18  19
BRANCH  18  23
HETATM   23  C14 UNL     1      -4.027  -2.684   5.644  1.00  0.00     0.071 C 
HETATM   24  C15 UNL     1      -5.084  -1.646   5.921  1.00  0.00     0.047 C 
HETATM   25  C16 UNL     1      -4.395  -3.463   4.374  1.00  0.00     0.047 C 
BRANCH  23  26
HETATM   26  O5  UNL     1      -4.128  -3.645   6.677  1.00  0.00    -0.389 OA
ATOM     27  H5  UNL     1      -5.026  -3.926   6.808  1.00  0.00     0.210 HD
ENDBRANCH  23  26
ENDBRANCH  18  23
ENDBRANCH   3  18
TORSDOF 9
ENDMDL
MODEL 2
REMARK VINA RESULT: -7.926835515      2.302      4.007
REMARK  9 active torsions:
REMARK  status: ('A' for Active; 'I' for Inactive)
REMARK    1  A    between atoms: C2_2  and  N1_3 
REMARK    2  A    between atoms: C2_2  and  C10_14 
REMARK    3  A    between atoms: N1_3  and  N2_4 
REMARK       I    between atoms: N2_4  and  C3_6 
REMARK    4  A    between atoms: C3_6  and  C4_8 
REMARK       I    between atoms: C10_14  and  N3_16 
REMARK    5  A    between atoms: N3_16  and  C11_18 
REMARK    6  A    between atoms: C11_18  and  C12_19 
REMARK    7  A    between atoms: C11_18  and  C14_23 
REMARK    8  A    between atoms: C12_19  and  C13_20 
REMARK    9  A    between atoms: C14_23  and  O5_26 
ROOT
HETATM    1  C10 UNL     1      -2.182   1.813   4.862  1.00  0.00     0.280 C 
HETATM    2  O2  UNL     1      -2.655   2.780   5.497  1.00  0.00    -0.265 OA
HETATM    3  N3  UNL     1      -2.414   0.475   5.105  1.00  0.00    -0.347 N 
ATOM      4  H3  UNL     1      -1.938  -0.144   4.449  1.00  0.00     0.163 HD
ENDROOT
BRANCH   1   5
HETATM    5  C2  UNL     1      -1.278   2.203   3.736  1.00  0.00     0.172 C 
HETATM    6  C1  UNL     1       0.012   1.414   3.622  1.00  0.00     0.093 C 
BRANCH   5   7
HETATM    7  N1  UNL     1      -1.549   3.058   3.002  1.00  0.00    -0.322 NA
BRANCH   7   8
HETATM    8  N2  UNL     1      -1.897   4.001   2.200  1.00  0.00    -0.198 N 
HETATM    9  C3  UNL     1      -0.871   4.796   1.543  1.00  0.00     0.280 C 
HETATM   10  O1  UNL     1       0.337   4.563   1.759  1.00  0.00    -0.265 OA
ATOM     11  H2  UNL     1      -2.885   4.190   2.026  1.00  0.00     0.205 HD
BRANCH   9  12
HETATM   12  C4  UNL     1      -1.235   5.863   0.630  1.00  0.00     0.034 A 
HETATM   13  C5  UNL     1      -0.366   6.764   0.065  1.00  0.00     0.017 A 
HETATM   14  C6  UNL     1      -0.785   7.769  -0.815  1.00  0.00     0.001 A 
HETATM   15  C7  UNL     1      -2.105   7.889  -1.150  1.00  0.00     0.000 A 
HETATM   16  C8  UNL     1      -2.996   6.996  -0.595  1.00  0.00     0.001 A 
HETATM   17  C9  UNL     1      -2.582   6.015   0.265  1.00  0.00     0.017 A 
ENDBRANCH   9  12
ENDBRANCH   7   8
ENDBRANCH   5   7
ENDBRANCH   1   5
BRANCH   3  18
HETATM   18  C11 UNL     1      -3.180  -0.218   6.083  1.00  0.00     0.128 C 
BRANCH  18  19
HETATM   19  C12 UNL     1      -3.232  -1.735   5.934  1.00  0.00     0.141 C 
BRANCH  19  20
HETATM   20  C13 UNL     1      -4.585  -2.186   5.536  1.00  0.00     0.174 C 
HETATM   21  O3  UNL     1      -4.708  -3.204   4.806  1.00  0.00    -0.648 OA
HETATM   22  O4  UNL     1      -5.695  -1.502   5.956  1.00  0.00    -0.648 OA
ENDBRANCH  19  20
ENDBRANCH  18  19
BRANCH  18  23
HETATM   23  C14 UNL     1      -2.933   0.246   7.475  1.00  0.00     0.071 C 
HETATM   24  C15 UNL     1      -3.327  -0.770   8.516  1.00  0.00     0.047 C 
HETATM   25  C16 UNL     1      -1.467   0.648   7.681  1.00  0.00     0.047 C 
BRANCH  23  26
HETATM   26  O5  UNL     1      -3.656   1.425   7.770  1.00  0.00    -0.389 OA
ATOM     27  H5  UNL     1      -3.616   1.640   8.694  1.00  0.00     0.210 HD
ENDBRANCH  23  26
ENDBRANCH  18  23
ENDBRANCH   3  18
TORSDOF 9
ENDMDL
MODEL 3
REMARK VINA RESULT: -7.816400225      2.320      4.152
REMARK  9 active torsions:
REMARK  status: ('A' for Active; 'I' for Inactive)
REMARK    1  A    between atoms: C2_2  and  N1_3 
REMARK    2  A    between atoms: C2_2  and  C10_14 
REMARK    3  A    between atoms: N1_3  and  N2_4 
REMARK       I    between atoms: N2_4  and  C3_6 
REMARK    4  A    between atoms: C3_6  and  C4_8 
REMARK       I    between atoms: C10_14  and  N3_16 
REMARK    5  A    between atoms: N3_16  and  C11_18 
REMARK    6  A    between atoms: C11_18  and  C12_19 
REMARK    7  A    between atoms: C11_18  and  C14_23 
REMARK    8  A    between atoms: C12_19  and  C13_20 
REMARK    9  A    between atoms: C14_23  and  O5_26 
ROOT
HETATM    1  C10 UNL     1      -1.893   1.958   4.826  1.00  0.00     0.280 C 
HETATM    2  O2  UNL     1      -2.235   2.937   5.524  1.00  0.00    -0.265 OA
HETATM    3  N3  UNL     1      -2.145   0.628   5.091  1.00  0.00    -0.347 N 
ATOM      4  H3  UNL     1      -1.788  -0.003   4.373  1.00  0.00     0.163 HD
ENDROOT
BRANCH   1   5
HETATM    5  C2  UNL     1      -1.133   2.324   3.589  1.00  0.00     0.172 C 
HETATM    6  C1  UNL     1       0.132   1.527   3.334  1.00  0.00     0.093 C 
BRANCH   5   7
HETATM    7  N1  UNL     1      -1.491   3.166   2.878  1.00  0.00    -0.322 NA
BRANCH   7   8
HETATM    8  N2  UNL     1      -1.883   4.068   2.051  1.00  0.00    -0.198 N 
HETATM    9  C3  UNL     1      -0.900   4.939   1.424  1.00  0.00     0.280 C 
HETATM   10  O1  UNL     1       0.313   4.809   1.689  1.00  0.00    -0.265 OA
ATOM     11  H2  UNL     1      -2.875   4.174   1.836  1.00  0.00     0.205 HD
BRANCH   9  12
HETATM   12  C4  UNL     1      -1.315   5.963   0.484  1.00  0.00     0.034 A 
HETATM   13  C5  UNL     1      -0.482   6.861  -0.140  1.00  0.00     0.017 A 
HETATM   14  C6  UNL     1      -0.949   7.823  -1.044  1.00  0.00     0.001 A 
HETATM   15  C7  UNL     1      -2.281   7.902  -1.343  1.00  0.00     0.000 A 
HETATM   16  C8  UNL     1      -3.135   7.012  -0.730  1.00  0.00     0.001 A 
HETATM   17  C9  UNL     1      -2.674   6.073   0.154  1.00  0.00     0.017 A 
ENDBRANCH   9  12
ENDBRANCH   7   8
ENDBRANCH   5   7
ENDBRANCH   1   5
BRANCH   3  18
HETATM   18  C11 UNL     1      -2.801  -0.043   6.159  1.00  0.00     0.128 C 
BRANCH  18  19
HETATM   19  C12 UNL     1      -2.935  -1.556   6.011  1.00  0.00     0.141 C 
BRANCH  19  20
HETATM   20  C13 UNL     1      -4.346  -1.948   5.793  1.00  0.00     0.174 C 
HETATM   21  O3  UNL     1      -5.264  -1.276   6.330  1.00  0.00    -0.648 OA
HETATM   22  O4  UNL     1      -4.652  -3.032   5.014  1.00  0.00    -0.648 OA
ENDBRANCH  19  20
ENDBRANCH  18  19
BRANCH  18  23
HETATM   23  C14 UNL     1      -2.350   0.395   7.507  1.00  0.00     0.071 C 
HETATM   24  C15 UNL     1      -3.245   1.441   8.120  1.00  0.00     0.047 C 
HETATM   25  C16 UNL     1      -2.218  -0.793   8.469  1.00  0.00     0.047 C 
BRANCH  23  26
HETATM   26  O5  UNL     1      -1.050   0.951   7.469  1.00  0.00    -0.389 OA
ATOM     27  H5  UNL     1      -1.011   1.783   7.925  1.00  0.00     0.210 HD
ENDBRANCH  23  26
ENDBRANCH  18  23
ENDBRANCH   3  18
TORSDOF 9
ENDMDL
MODEL 4
REMARK VINA RESULT: -7.686440629      2.357      4.347
REMARK  9 active torsions:
REMARK  status: ('A' for Active; 'I' for Inactive)
REMARK    1  A    between atoms: C2_2  and  N1_3 
REMARK    2  A    between atoms: C2_2  and  C10_14 
REMARK    3  A    between atoms: N1_3  and  N2_4 
REMARK       I    between atoms: N2_4  and  C3_6 
REMARK    4  A    between atoms: C3_6  and  C4_8 
REMARK       I    between atoms: C10_14  and  N3_16 
REMARK    5  A    between atoms: N3_16  and  C11_18 
REMARK    6  A    between atoms: C11_18  and  C12_19 
REMARK    7  A    between atoms: C11_18  and  C14_23 
REMARK    8  A    between atoms: C12_19  and  C13_20 
REMARK    9  A    between atoms: C14_23  and  O5_26 
ROOT
HETATM    1  C10 UNL     1      -1.548   1.898   4.981  1.00  0.00     0.280 C 
HETATM    2  O2  UNL     1      -1.378   2.840   5.784  1.00  0.00    -0.265 OA
HETATM    3  N3  UNL     1      -2.177   0.698   5.240  1.00  0.00    -0.347 N 
ATOM      4  H3  UNL     1      -2.219   0.080   4.429  1.00  0.00     0.163 HD
ENDROOT
BRANCH   1   5
HETATM    5  C2  UNL     1      -0.991   2.150   3.615  1.00  0.00     0.172 C 
HETATM    6  C1  UNL     1       0.162   1.257   3.200  1.00  0.00     0.093 C 
BRANCH   5   7
HETATM    7  N1  UNL     1      -1.414   2.978   2.925  1.00  0.00    -0.322 NA
BRANCH   7   8
HETATM    8  N2  UNL     1      -1.838   3.910   2.147  1.00  0.00    -0.198 N 
HETATM    9  C3  UNL     1      -0.879   4.801   1.511  1.00  0.00     0.280 C 
HETATM   10  O1  UNL     1       0.344   4.660   1.723  1.00  0.00    -0.265 OA
ATOM     11  H2  UNL     1      -2.837   4.025   1.977  1.00  0.00     0.205 HD
BRANCH   9  12
HETATM   12  C4  UNL     1      -1.328   5.859   0.626  1.00  0.00     0.034 A 
HETATM   13  C5  UNL     1      -0.518   6.765  -0.014  1.00  0.00     0.017 A 
HETATM   14  C6  UNL     1      -1.018   7.760  -0.862  1.00  0.00     0.001 A 
HETATM   15  C7  UNL     1      -2.363   7.865  -1.086  1.00  0.00     0.000 A 
HETATM   16  C8  UNL     1      -3.196   6.968  -0.456  1.00  0.00     0.001 A 
HETATM   17  C9  UNL     1      -2.702   5.996   0.373  1.00  0.00     0.017 A 
ENDBRANCH   9  12
ENDBRANCH   7   8
ENDBRANCH   5   7
ENDBRANCH   1   5
BRANCH   3  18
HETATM   18  C11 UNL     1      -2.779   0.146   6.404  1.00  0.00     0.128 C 
BRANCH  18  19
HETATM   19  C12 UNL     1      -3.721   1.073   7.167  1.00  0.00     0.141 C 
BRANCH  19  20
HETATM   20  C13 UNL     1      -3.207   1.354   8.527  1.00  0.00     0.174 C 
HETATM   21  O3  UNL     1      -3.381   0.508   9.442  1.00  0.00    -0.648 OA
HETATM   22  O4  UNL     1      -2.547   2.526   8.790  1.00  0.00    -0.648 OA
ENDBRANCH  19  20
ENDBRANCH  18  19
BRANCH  18  23
HETATM   23  C14 UNL     1      -3.309  -1.229   6.209  1.00  0.00     0.071 C 
HETATM   24  C15 UNL     1      -4.386  -1.306   5.159  1.00  0.00     0.047 C 
HETATM   25  C16 UNL     1      -2.188  -2.219   5.866  1.00  0.00     0.047 C 
BRANCH  23  26
HETATM   26  O5  UNL     1      -3.871  -1.747   7.399  1.00  0.00    -0.389 OA
ATOM     27  H5  UNL     1      -3.202  -1.966   8.037  1.00  0.00     0.210 HD
ENDBRANCH  23  26
ENDBRANCH  18  23
ENDBRANCH   3  18
TORSDOF 9
ENDMDL
MODEL 5
REMARK VINA RESULT: -7.681457626      1.430      2.078
REMARK  9 active torsions:
REMARK  status: ('A' for Active; 'I' for Inactive)
REMARK    1  A    between atoms: C2_2  and  N1_3 
REMARK    2  A    between atoms: C2_2  and  C10_14 
REMARK    3  A    between atoms: N1_3  and  N2_4 
REMARK       I    between atoms: N2_4  and  C3_6 
REMARK    4  A    between atoms: C3_6  and  C4_8 
REMARK       I    between atoms: C10_14  and  N3_16 
REMARK    5  A    between atoms: N3_16  and  C11_18 
REMARK    6  A    between atoms: C11_18  and  C12_19 
REMARK    7  A    between atoms: C11_18  and  C14_23 
REMARK    8  A    between atoms: C12_19  and  C13_20 
REMARK    9  A    between atoms: C14_23  and  O5_26 
ROOT
HETATM    1  C10 UNL     1      -2.490   0.584   5.179  1.00  0.00     0.280 C 
HETATM    2  O2  UNL     1      -3.316   0.700   4.248  1.00  0.00    -0.265 OA
HETATM    3  N3  UNL     1      -2.188  -0.568   5.874  1.00  0.00    -0.347 N 
ATOM      4  H3  UNL     1      -1.467  -0.435   6.584  1.00  0.00     0.163 HD
ENDROOT
BRANCH   1   5
HETATM    5  C2  UNL     1      -1.787   1.857   5.535  1.00  0.00     0.172 C 
HETATM    6  C1  UNL     1      -1.053   1.854   6.862  1.00  0.00     0.093 C 
BRANCH   5   7
HETATM    7  N1  UNL     1      -1.810   2.783   4.840  1.00  0.00    -0.322 NA
BRANCH   7   8
HETATM    8  N2  UNL     1      -1.847   3.782   4.031  1.00  0.00    -0.198 N 
HETATM    9  C3  UNL     1      -1.094   3.720   2.786  1.00  0.00     0.280 C 
HETATM   10  O1  UNL     1      -0.420   2.706   2.510  1.00  0.00    -0.265 OA
ATOM     11  H2  UNL     1      -2.397   4.610   4.258  1.00  0.00     0.205 HD
BRANCH   9  12
HETATM   12  C4  UNL     1      -1.120   4.830   1.853  1.00  0.00     0.034 A 
HETATM   13  C5  UNL     1      -0.045   5.615   1.512  1.00  0.00     0.017 A 
HETATM   14  C6  UNL     1      -0.139   6.669   0.597  1.00  0.00     0.001 A 
HETATM   15  C7  UNL     1      -1.332   6.960  -0.003  1.00  0.00     0.000 A 
HETATM   16  C8  UNL     1      -2.425   6.188   0.322  1.00  0.00     0.001 A 
HETATM   17  C9  UNL     1      -2.329   5.157   1.218  1.00  0.00     0.017 A 
ENDBRANCH   9  12
ENDBRANCH   7   8
ENDBRANCH   5   7
ENDBRANCH   1   5
BRANCH   3  18
HETATM   18  C11 UNL     1      -2.675  -1.902   5.805  1.00  0.00     0.128 C 
BRANCH  18  19
HETATM   19  C12 UNL     1      -1.636  -3.001   6.006  1.00  0.00     0.141 C 
BRANCH  19  20
HETATM   20  C13 UNL     1      -1.741  -4.034   4.951  1.00  0.00     0.174 C 
HETATM   21  O3  UNL     1      -2.806  -4.136   4.289  1.00  0.00    -0.648 OA
HETATM   22  O4  UNL     1      -0.689  -4.874   4.695  1.00  0.00    -0.648 OA
ENDBRANCH  19  20
ENDBRANCH  18  19
BRANCH  18  23
HETATM   23  C14 UNL     1      -3.938  -2.117   6.562  1.00  0.00     0.071 C 
HETATM   24  C15 UNL     1      -4.005  -1.322   7.840  1.00  0.00     0.047 C 
HETATM   25  C16 UNL     1      -5.169  -1.807   5.700  1.00  0.00     0.047 C 
BRANCH  23  26
HETATM   26  O5  UNL     1      -4.106  -3.474   6.924  1.00  0.00    -0.389 OA
ATOM     27  H5  UNL     1      -4.983  -3.783   6.732  1.00  0.00     0.210 HD
ENDBRANCH  23  26
ENDBRANCH  18  23
ENDBRANCH   3  18
TORSDOF 9
ENDMDL
