MODEL 1
REMARK VINA RESULT: -7.780195641      0.000      0.000
REMARK  15 active torsions:
REMARK  status: ('A' for Active; 'I' for Inactive)
REMARK    1  A    between atoms: C5_5  and  N1_6 
REMARK    2  A    between atoms: N1_6  and  C6_7 
REMARK    3  A    between atoms: C6_7  and  C7_8 
REMARK    4  A    between atoms: C7_8  and  C8_9 
REMARK    5  A    between atoms: C8_9  and  C9_10 
REMARK    6  A    between atoms: C9_10  and  N2_11 
REMARK    7  A    between atoms: N2_11  and  C10_14 
REMARK    8  A    between atoms: C10_14  and  C11_15 
REMARK    9  A    between atoms: C11_15  and  C12_16 
REMARK   10  A    between atoms: C12_16  and  C13_17 
REMARK   11  A    between atoms: C13_17  and  C14_18 
REMARK   12  A    between atoms: C14_18  and  N3_19 
REMARK   13  A    between atoms: N3_19  and  C15_22 
REMARK   14  A    between atoms: C15_22  and  C16_23 
REMARK   15  A    between atoms: C16_23  and  C17_24 
ROOT
HETATM    1  C8  UNL     1       9.099  22.169  26.161  1.00  0.00     0.033 C 
ENDROOT
BRANCH   1   2
HETATM    2  C7  UNL     1       9.350  21.902  24.752  1.00  0.00     0.061 C 
BRANCH   2   3
HETATM    3  C6  UNL     1       9.231  23.023  23.759  1.00  0.00     0.155 C 
BRANCH   3   4
HETATM    4  N1  UNL     1       8.757  22.733  22.529  1.00  0.00    -0.420 NA
BRANCH   4   5
HETATM    5  C5  UNL     1       8.341  22.491  21.456  1.00  0.00     0.131 A 
HETATM    6  C4  UNL     1       7.790  21.292  20.997  1.00  0.00     0.032 A 
HETATM    7  C3  UNL     1       7.805  20.208  21.834  1.00  0.00     0.017 A 
HETATM    8  C27 UNL     1       7.264  21.190  19.715  1.00  0.00     0.046 A 
HETATM    9  C2  UNL     1       7.294  18.961  21.432  1.00  0.00     0.001 A 
HETATM   10  C1  UNL     1       6.775  18.886  20.152  1.00  0.00     0.002 A 
HETATM   11  C28 UNL     1       6.756  19.964  19.310  1.00  0.00     0.030 A 
HETATM   12  N4  UNL     1       7.263  22.221  18.883  1.00  0.00    -0.355 N 
HETATM   13  C26 UNL     1       7.779  23.391  19.283  1.00  0.00     0.046 A 
ATOM     14  H4  UNL     1       6.872  22.125  17.945  1.00  0.00     0.166 HD
HETATM   15  C21 UNL     1       8.307  23.551  20.505  1.00  0.00     0.032 A 
HETATM   16  C25 UNL     1       7.757  24.442  18.382  1.00  0.00     0.030 A 
HETATM   17  C22 UNL     1       8.825  24.770  20.856  1.00  0.00     0.017 A 
HETATM   18  C23 UNL     1       8.809  25.836  19.962  1.00  0.00     0.001 A 
HETATM   19  C24 UNL     1       8.262  25.673  18.694  1.00  0.00     0.002 A 
ENDBRANCH   4   5
ENDBRANCH   3   4
ENDBRANCH   2   3
ENDBRANCH   1   2
BRANCH   1  20
HETATM   20  C9  UNL     1      10.016  23.038  26.911  1.00  0.00     0.232 C 
BRANCH  20  21
HETATM   21  N2  UNL     1       9.610  24.400  27.192  1.00  0.00    -0.075 N 
ATOM     22  H22 UNL     1      10.019  24.777  28.047  1.00  0.00     0.277 HD
ATOM     23  H21 UNL     1      10.011  25.084  26.550  1.00  0.00     0.277 HD
BRANCH  21  24
HETATM   24  C10 UNL     1       8.114  24.396  27.199  1.00  0.00     0.232 C 
BRANCH  24  25
HETATM   25  C11 UNL     1       7.584  25.703  26.614  1.00  0.00     0.027 C 
BRANCH  25  26
HETATM   26  C12 UNL     1       8.379  26.162  25.465  1.00  0.00     0.003 C 
BRANCH  26  27
HETATM   27  C13 UNL     1       7.819  26.168  24.109  1.00  0.00     0.027 C 
BRANCH  27  28
HETATM   28  C14 UNL     1       8.118  27.422  23.305  1.00  0.00     0.232 C 
BRANCH  28  29
HETATM   29  N3  UNL     1       6.872  28.169  23.109  1.00  0.00    -0.075 N 
ATOM     30  H32 UNL     1       6.104  27.771  23.650  1.00  0.00     0.277 HD
ATOM     31  H31 UNL     1       6.910  29.089  23.548  1.00  0.00     0.277 HD
BRANCH  29  32
HETATM   32  C15 UNL     1       6.544  28.260  21.699  1.00  0.00     0.237 C 
BRANCH  32  33
HETATM   33  C16 UNL     1       5.639  27.125  21.313  1.00  0.00     0.066 C 
BRANCH  33  34
HETATM   34  C17 UNL     1       5.125  27.384  19.895  1.00  0.00    -0.050 A 
HETATM   35  C18 UNL     1       4.276  26.546  19.250  1.00  0.00     0.014 A 
HETATM   36  C19 UNL     1       3.913  26.888  17.977  1.00  0.00     0.050 A 
HETATM   37  S1  UNL     1       4.764  28.357  17.723  1.00  0.00    -0.113 SA
HETATM   38  C20 UNL     1       5.546  28.498  19.218  1.00  0.00     0.056 A 
ENDBRANCH  33  34
ENDBRANCH  32  33
ENDBRANCH  29  32
ENDBRANCH  28  29
ENDBRANCH  27  28
ENDBRANCH  26  27
ENDBRANCH  25  26
ENDBRANCH  24  25
ENDBRANCH  21  24
ENDBRANCH  20  21
ENDBRANCH   1  20
TORSDOF 15
ENDMDL
MODEL 2
REMARK VINA RESULT: -7.639820023      0.733      3.234
REMARK  15 active torsions:
REMARK  status: ('A' for Active; 'I' for Inactive)
REMARK    1  A    between atoms: C5_5  and  N1_6 
REMARK    2  A    between atoms: N1_6  and  C6_7 
REMARK    3  A    between atoms: C6_7  and  C7_8 
REMARK    4  A    between atoms: C7_8  and  C8_9 
REMARK    5  A    between atoms: C8_9  and  C9_10 
REMARK    6  A    between atoms: C9_10  and  N2_11 
REMARK    7  A    between atoms: N2_11  and  C10_14 
REMARK    8  A    between atoms: C10_14  and  C11_15 
REMARK    9  A    between atoms: C11_15  and  C12_16 
REMARK   10  A    between atoms: C12_16  and  C13_17 
REMARK   11  A    between atoms: C13_17  and  C14_18 
REMARK   12  A    between atoms: C14_18  and  N3_19 
REMARK   13  A    between atoms: N3_19  and  C15_22 
REMARK   14  A    between atoms: C15_22  and  C16_23 
REMARK   15  A    between atoms: C16_23  and  C17_24 
ROOT
HETATM    1  C8  UNL     1       9.461  21.908  25.874  1.00  0.00     0.033 C 
ENDROOT
BRANCH   1   2
HETATM    2  C7  UNL     1       8.699  22.292  24.694  1.00  0.00     0.061 C 
BRANCH   2   3
HETATM    3  C6  UNL     1       9.384  23.047  23.592  1.00  0.00     0.155 C 
BRANCH   3   4
HETATM    4  N1  UNL     1       8.833  23.012  22.361  1.00  0.00    -0.420 NA
BRANCH   4   5
HETATM    5  C5  UNL     1       8.362  22.981  21.283  1.00  0.00     0.131 A 
HETATM    6  C4  UNL     1       8.284  24.017  20.348  1.00  0.00     0.032 A 
HETATM    7  C3  UNL     1       8.707  25.264  20.724  1.00  0.00     0.017 A 
HETATM    8  C27 UNL     1       7.767  23.797  19.078  1.00  0.00     0.046 A 
HETATM    9  C2  UNL     1       8.633  26.361  19.847  1.00  0.00     0.001 A 
HETATM   10  C1  UNL     1       8.116  26.116  18.588  1.00  0.00     0.002 A 
HETATM   11  C28 UNL     1       7.693  24.873  18.205  1.00  0.00     0.030 A 
HETATM   12  N4  UNL     1       7.332  22.602  18.704  1.00  0.00    -0.355 N 
HETATM   13  C26 UNL     1       7.390  21.580  19.568  1.00  0.00     0.046 A 
ATOM     14  H4  UNL     1       6.955  22.462  17.766  1.00  0.00     0.166 HD
HETATM   15  C21 UNL     1       7.872  21.730  20.810  1.00  0.00     0.032 A 
HETATM   16  C25 UNL     1       6.924  20.350  19.136  1.00  0.00     0.030 A 
HETATM   17  C22 UNL     1       7.902  20.648  21.651  1.00  0.00     0.017 A 
HETATM   18  C23 UNL     1       7.438  19.406  21.232  1.00  0.00     0.001 A 
HETATM   19  C24 UNL     1       6.938  19.247  19.945  1.00  0.00     0.002 A 
ENDBRANCH   4   5
ENDBRANCH   3   4
ENDBRANCH   2   3
ENDBRANCH   1   2
BRANCH   1  20
HETATM   20  C9  UNL     1       9.224  22.599  27.149  1.00  0.00     0.232 C 
BRANCH  20  21
HETATM   21  N2  UNL     1       9.252  24.047  27.172  1.00  0.00    -0.075 N 
ATOM     22  H22 UNL     1       9.990  24.430  27.763  1.00  0.00     0.277 HD
ATOM     23  H21 UNL     1       9.567  24.461  26.295  1.00  0.00     0.277 HD
BRANCH  21  24
HETATM   24  C10 UNL     1       7.879  24.483  27.576  1.00  0.00     0.232 C 
BRANCH  24  25
HETATM   25  C11 UNL     1       7.524  25.799  26.887  1.00  0.00     0.027 C 
BRANCH  25  26
HETATM   26  C12 UNL     1       7.507  25.675  25.423  1.00  0.00     0.003 C 
BRANCH  26  27
HETATM   27  C13 UNL     1       8.431  26.449  24.585  1.00  0.00     0.027 C 
BRANCH  27  28
HETATM   28  C14 UNL     1       7.778  27.159  23.411  1.00  0.00     0.232 C 
BRANCH  28  29
HETATM   29  N3  UNL     1       6.324  27.000  23.509  1.00  0.00    -0.075 N 
ATOM     30  H32 UNL     1       6.068  26.263  24.167  1.00  0.00     0.277 HD
ATOM     31  H31 UNL     1       5.889  27.790  23.986  1.00  0.00     0.277 HD
BRANCH  29  32
HETATM   32  C15 UNL     1       5.742  26.776  22.199  1.00  0.00     0.237 C 
BRANCH  32  33
HETATM   33  C16 UNL     1       5.723  28.064  21.425  1.00  0.00     0.066 C 
BRANCH  33  34
HETATM   34  C17 UNL     1       5.176  27.772  20.026  1.00  0.00    -0.050 A 
HETATM   35  C18 UNL     1       5.332  28.619  18.978  1.00  0.00     0.014 A 
HETATM   36  C19 UNL     1       4.774  28.244  17.788  1.00  0.00     0.050 A 
HETATM   37  S1  UNL     1       4.053  26.733  18.168  1.00  0.00    -0.113 SA
HETATM   38  C20 UNL     1       4.474  26.618  19.803  1.00  0.00     0.056 A 
ENDBRANCH  33  34
ENDBRANCH  32  33
ENDBRANCH  29  32
ENDBRANCH  28  29
ENDBRANCH  27  28
ENDBRANCH  26  27
ENDBRANCH  25  26
ENDBRANCH  24  25
ENDBRANCH  21  24
ENDBRANCH  20  21
ENDBRANCH   1  20
TORSDOF 15
ENDMDL
MODEL 3
REMARK VINA RESULT: -7.560704583      1.696      2.403
REMARK  15 active torsions:
REMARK  status: ('A' for Active; 'I' for Inactive)
REMARK    1  A    between atoms: C5_5  and  N1_6 
REMARK    2  A    between atoms: N1_6  and  C6_7 
REMARK    3  A    between atoms: C6_7  and  C7_8 
REMARK    4  A    between atoms: C7_8  and  C8_9 
REMARK    5  A    between atoms: C8_9  and  C9_10 
REMARK    6  A    between atoms: C9_10  and  N2_11 
REMARK    7  A    between atoms: N2_11  and  C10_14 
REMARK    8  A    between atoms: C10_14  and  C11_15 
REMARK    9  A    between atoms: C11_15  and  C12_16 
REMARK   10  A    between atoms: C12_16  and  C13_17 
REMARK   11  A    between atoms: C13_17  and  C14_18 
REMARK   12  A    between atoms: C14_18  and  N3_19 
REMARK   13  A    between atoms: N3_19  and  C15_22 
REMARK   14  A    between atoms: C15_22  and  C16_23 
REMARK   15  A    between atoms: C16_23  and  C17_24 
ROOT
HETATM    1  C8  UNL     1       6.295  23.158  26.394  1.00  0.00     0.033 C 
ENDROOT
BRANCH   1   2
HETATM    2  C7  UNL     1       6.270  22.684  25.018  1.00  0.00     0.061 C 
BRANCH   2   3
HETATM    3  C6  UNL     1       6.577  21.241  24.733  1.00  0.00     0.155 C 
BRANCH   3   4
HETATM    4  N1  UNL     1       6.583  20.837  23.445  1.00  0.00    -0.420 NA
BRANCH   4   5
HETATM    5  C5  UNL     1       6.586  20.495  22.320  1.00  0.00     0.131 A 
HETATM    6  C4  UNL     1       6.009  19.348  21.767  1.00  0.00     0.032 A 
HETATM    7  C3  UNL     1       5.447  18.431  22.615  1.00  0.00     0.017 A 
HETATM    8  C27 UNL     1       6.029  19.126  20.396  1.00  0.00     0.046 A 
HETATM    9  C2  UNL     1       4.873  17.241  22.135  1.00  0.00     0.001 A 
HETATM   10  C1  UNL     1       4.904  17.044  20.766  1.00  0.00     0.002 A 
HETATM   11  C28 UNL     1       5.464  17.955  19.913  1.00  0.00     0.030 A 
HETATM   12  N4  UNL     1       6.590  19.991  19.562  1.00  0.00    -0.355 N 
HETATM   13  C26 UNL     1       7.152  21.105  20.049  1.00  0.00     0.046 A 
ATOM     14  H4  UNL     1       6.594  19.809  18.558  1.00  0.00     0.166 HD
HETATM   15  C21 UNL     1       7.171  21.373  21.363  1.00  0.00     0.032 A 
HETATM   16  C25 UNL     1       7.726  21.981  19.143  1.00  0.00     0.030 A 
HETATM   17  C22 UNL     1       7.765  22.527  21.802  1.00  0.00     0.017 A 
HETATM   18  C23 UNL     1       8.345  23.417  20.904  1.00  0.00     0.001 A 
HETATM   19  C24 UNL     1       8.327  23.142  19.542  1.00  0.00     0.002 A 
ENDBRANCH   4   5
ENDBRANCH   3   4
ENDBRANCH   2   3
ENDBRANCH   1   2
BRANCH   1  20
HETATM   20  C9  UNL     1       7.584  23.354  27.072  1.00  0.00     0.232 C 
BRANCH  20  21
HETATM   21  N2  UNL     1       8.072  24.705  27.265  1.00  0.00    -0.075 N 
ATOM     22  H22 UNL     1       7.328  25.390  27.392  1.00  0.00     0.277 HD
ATOM     23  H21 UNL     1       8.528  24.847  28.166  1.00  0.00     0.277 HD
BRANCH  21  24
HETATM   24  C10 UNL     1       8.958  24.997  26.096  1.00  0.00     0.232 C 
BRANCH  24  25
HETATM   25  C11 UNL     1       8.367  26.133  25.263  1.00  0.00     0.027 C 
BRANCH  25  26
HETATM   26  C12 UNL     1       8.023  25.704  23.900  1.00  0.00     0.003 C 
BRANCH  26  27
HETATM   27  C13 UNL     1       7.444  26.643  22.932  1.00  0.00     0.027 C 
BRANCH  27  28
HETATM   28  C14 UNL     1       8.273  27.892  22.687  1.00  0.00     0.232 C 
BRANCH  28  29
HETATM   29  N3  UNL     1       8.343  28.139  21.243  1.00  0.00    -0.075 N 
ATOM     30  H32 UNL     1       7.635  28.808  20.940  1.00  0.00     0.277 HD
ATOM     31  H31 UNL     1       9.176  28.671  20.991  1.00  0.00     0.277 HD
BRANCH  29  32
HETATM   32  C15 UNL     1       8.257  26.894  20.504  1.00  0.00     0.237 C 
BRANCH  32  33
HETATM   33  C16 UNL     1       7.935  27.178  19.065  1.00  0.00     0.066 C 
BRANCH  33  34
HETATM   34  C17 UNL     1       6.413  27.160  18.903  1.00  0.00    -0.050 A 
HETATM   35  C18 UNL     1       5.595  26.396  19.669  1.00  0.00     0.014 A 
HETATM   36  C19 UNL     1       4.256  26.460  19.403  1.00  0.00     0.050 A 
HETATM   37  S1  UNL     1       4.182  27.575  18.101  1.00  0.00    -0.113 SA
HETATM   38  C20 UNL     1       5.829  27.928  17.931  1.00  0.00     0.056 A 
ENDBRANCH  33  34
ENDBRANCH  32  33
ENDBRANCH  29  32
ENDBRANCH  28  29
ENDBRANCH  27  28
ENDBRANCH  26  27
ENDBRANCH  25  26
ENDBRANCH  24  25
ENDBRANCH  21  24
ENDBRANCH  20  21
ENDBRANCH   1  20
TORSDOF 15
ENDMDL
MODEL 4
REMARK VINA RESULT: -7.526132558      2.063      6.218
REMARK  15 active torsions:
REMARK  status: ('A' for Active; 'I' for Inactive)
REMARK    1  A    between atoms: C5_5  and  N1_6 
REMARK    2  A    between atoms: N1_6  and  C6_7 
REMARK    3  A    between atoms: C6_7  and  C7_8 
REMARK    4  A    between atoms: C7_8  and  C8_9 
REMARK    5  A    between atoms: C8_9  and  C9_10 
REMARK    6  A    between atoms: C9_10  and  N2_11 
REMARK    7  A    between atoms: N2_11  and  C10_14 
REMARK    8  A    between atoms: C10_14  and  C11_15 
REMARK    9  A    between atoms: C11_15  and  C12_16 
REMARK   10  A    between atoms: C12_16  and  C13_17 
REMARK   11  A    between atoms: C13_17  and  C14_18 
REMARK   12  A    between atoms: C14_18  and  N3_19 
REMARK   13  A    between atoms: N3_19  and  C15_22 
REMARK   14  A    between atoms: C15_22  and  C16_23 
REMARK   15  A    between atoms: C16_23  and  C17_24 
ROOT
HETATM    1  C8  UNL     1       5.673  19.489  23.256  1.00  0.00     0.033 C 
ENDROOT
BRANCH   1   2
HETATM    2  C7  UNL     1       6.390  20.737  23.036  1.00  0.00     0.061 C 
BRANCH   2   3
HETATM    3  C6  UNL     1       5.645  21.928  22.505  1.00  0.00     0.155 C 
BRANCH   3   4
HETATM    4  N1  UNL     1       6.035  23.154  22.914  1.00  0.00    -0.420 NA
BRANCH   4   5
HETATM    5  C5  UNL     1       6.380  24.217  23.280  1.00  0.00     0.131 A 
HETATM    6  C4  UNL     1       7.281  24.526  24.302  1.00  0.00     0.032 A 
HETATM    7  C3  UNL     1       7.772  23.500  25.066  1.00  0.00     0.017 A 
HETATM    8  C27 UNL     1       7.649  25.840  24.560  1.00  0.00     0.046 A 
HETATM    9  C2  UNL     1       8.661  23.736  26.130  1.00  0.00     0.001 A 
HETATM   10  C1  UNL     1       9.014  25.052  26.365  1.00  0.00     0.002 A 
HETATM   11  C28 UNL     1       8.527  26.082  25.607  1.00  0.00     0.030 A 
HETATM   12  N4  UNL     1       7.166  26.848  23.847  1.00  0.00    -0.355 N 
HETATM   13  C26 UNL     1       6.301  26.597  22.856  1.00  0.00     0.046 A 
ATOM     14  H4  UNL     1       7.449  27.806  24.053  1.00  0.00     0.166 HD
HETATM   15  C21 UNL     1       5.901  25.352  22.562  1.00  0.00     0.032 A 
HETATM   16  C25 UNL     1       5.821  27.679  22.137  1.00  0.00     0.030 A 
HETATM   17  C22 UNL     1       5.011  25.158  21.539  1.00  0.00     0.017 A 
HETATM   18  C23 UNL     1       4.520  26.234  20.807  1.00  0.00     0.001 A 
HETATM   19  C24 UNL     1       4.933  27.527  21.109  1.00  0.00     0.002 A 
ENDBRANCH   4   5
ENDBRANCH   3   4
ENDBRANCH   2   3
ENDBRANCH   1   2
BRANCH   1  20
HETATM   20  C9  UNL     1       6.328  18.392  23.981  1.00  0.00     0.232 C 
BRANCH  20  21
HETATM   21  N2  UNL     1       6.716  17.205  23.247  1.00  0.00    -0.075 N 
ATOM     22  H22 UNL     1       6.651  16.349  23.797  1.00  0.00     0.277 HD
ATOM     23  H21 UNL     1       6.049  16.940  22.523  1.00  0.00     0.277 HD
BRANCH  21  24
HETATM   24  C10 UNL     1       8.091  17.473  22.721  1.00  0.00     0.232 C 
BRANCH  24  25
HETATM   25  C11 UNL     1       8.169  17.095  21.243  1.00  0.00     0.027 C 
BRANCH  25  26
HETATM   26  C12 UNL     1       8.036  18.263  20.361  1.00  0.00     0.003 C 
BRANCH  26  27
HETATM   27  C13 UNL     1       6.720  18.721  19.900  1.00  0.00     0.027 C 
BRANCH  27  28
HETATM   28  C14 UNL     1       6.702  20.131  19.334  1.00  0.00     0.232 C 
BRANCH  28  29
HETATM   29  N3  UNL     1       7.916  20.830  19.764  1.00  0.00    -0.075 N 
ATOM     30  H32 UNL     1       7.994  20.862  20.780  1.00  0.00     0.277 HD
ATOM     31  H31 UNL     1       8.757  20.288  19.562  1.00  0.00     0.277 HD
BRANCH  29  32
HETATM   32  C15 UNL     1       7.980  22.156  19.178  1.00  0.00     0.237 C 
BRANCH  32  33
HETATM   33  C16 UNL     1       8.356  23.159  20.232  1.00  0.00     0.066 C 
BRANCH  33  34
HETATM   34  C17 UNL     1       8.114  24.560  19.665  1.00  0.00    -0.050 A 
HETATM   35  C18 UNL     1       7.289  24.804  18.617  1.00  0.00     0.014 A 
HETATM   36  C19 UNL     1       7.182  26.100  18.199  1.00  0.00     0.050 A 
HETATM   37  S1  UNL     1       8.229  26.932  19.274  1.00  0.00    -0.113 SA
HETATM   38  C20 UNL     1       8.768  25.631  20.214  1.00  0.00     0.056 A 
ENDBRANCH  33  34
ENDBRANCH  32  33
ENDBRANCH  29  32
ENDBRANCH  28  29
ENDBRANCH  27  28
ENDBRANCH  26  27
ENDBRANCH  25  26
ENDBRANCH  24  25
ENDBRANCH  21  24
ENDBRANCH  20  21
ENDBRANCH   1  20
TORSDOF 15
ENDMDL
MODEL 5
REMARK VINA RESULT: -7.488012701      1.909      4.070
REMARK  15 active torsions:
REMARK  status: ('A' for Active; 'I' for Inactive)
REMARK    1  A    between atoms: C5_5  and  N1_6 
REMARK    2  A    between atoms: N1_6  and  C6_7 
REMARK    3  A    between atoms: C6_7  and  C7_8 
REMARK    4  A    between atoms: C7_8  and  C8_9 
REMARK    5  A    between atoms: C8_9  and  C9_10 
REMARK    6  A    between atoms: C9_10  and  N2_11 
REMARK    7  A    between atoms: N2_11  and  C10_14 
REMARK    8  A    between atoms: C10_14  and  C11_15 
REMARK    9  A    between atoms: C11_15  and  C12_16 
REMARK   10  A    between atoms: C12_16  and  C13_17 
REMARK   11  A    between atoms: C13_17  and  C14_18 
REMARK   12  A    between atoms: C14_18  and  N3_19 
REMARK   13  A    between atoms: N3_19  and  C15_22 
REMARK   14  A    between atoms: C15_22  and  C16_23 
REMARK   15  A    between atoms: C16_23  and  C17_24 
ROOT
HETATM    1  C8  UNL     1       8.540  21.385  24.794  1.00  0.00     0.033 C 
ENDROOT
BRANCH   1   2
HETATM    2  C7  UNL     1       7.249  21.314  25.462  1.00  0.00     0.061 C 
BRANCH   2   3
HETATM    3  C6  UNL     1       5.994  21.335  24.637  1.00  0.00     0.155 C 
BRANCH   3   4
HETATM    4  N1  UNL     1       6.067  20.907  23.360  1.00  0.00    -0.420 NA
BRANCH   4   5
HETATM    5  C5  UNL     1       6.137  20.542  22.243  1.00  0.00     0.131 A 
HETATM    6  C4  UNL     1       6.793  21.161  21.175  1.00  0.00     0.032 A 
HETATM    7  C3  UNL     1       7.353  22.393  21.384  1.00  0.00     0.017 A 
HETATM    8  C27 UNL     1       6.852  20.558  19.926  1.00  0.00     0.046 A 
HETATM    9  C2  UNL     1       8.005  23.089  20.350  1.00  0.00     0.001 A 
HETATM   10  C1  UNL     1       8.052  22.467  19.116  1.00  0.00     0.002 A 
HETATM   11  C28 UNL     1       7.495  21.236  18.900  1.00  0.00     0.030 A 
HETATM   12  N4  UNL     1       6.295  19.377  19.699  1.00  0.00    -0.355 N 
HETATM   13  C26 UNL     1       5.659  18.747  20.695  1.00  0.00     0.046 A 
ATOM     14  H4  UNL     1       6.351  18.951  18.773  1.00  0.00     0.166 HD
HETATM   15  C21 UNL     1       5.561  19.280  21.922  1.00  0.00     0.032 A 
HETATM   16  C25 UNL     1       5.091  17.516  20.415  1.00  0.00     0.030 A 
HETATM   17  C22 UNL     1       4.893  18.590  22.899  1.00  0.00     0.017 A 
HETATM   18  C23 UNL     1       4.318  17.352  22.633  1.00  0.00     0.001 A 
HETATM   19  C24 UNL     1       4.418  16.797  21.363  1.00  0.00     0.002 A 
ENDBRANCH   4   5
ENDBRANCH   3   4
ENDBRANCH   2   3
ENDBRANCH   1   2
BRANCH   1  20
HETATM   20  C9  UNL     1       9.368  22.590  24.938  1.00  0.00     0.232 C 
BRANCH  20  21
HETATM   21  N2  UNL     1       8.936  23.814  24.294  1.00  0.00    -0.075 N 
ATOM     22  H22 UNL     1       9.600  24.166  23.605  1.00  0.00     0.277 HD
ATOM     23  H21 UNL     1       8.152  23.681  23.656  1.00  0.00     0.277 HD
BRANCH  21  24
HETATM   24  C10 UNL     1       8.649  24.784  25.396  1.00  0.00     0.232 C 
BRANCH  24  25
HETATM   25  C11 UNL     1       8.265  26.142  24.810  1.00  0.00     0.027 C 
BRANCH  25  26
HETATM   26  C12 UNL     1       7.165  26.039  23.840  1.00  0.00     0.003 C 
BRANCH  26  27
HETATM   27  C13 UNL     1       6.996  27.036  22.776  1.00  0.00     0.027 C 
BRANCH  27  28
HETATM   28  C14 UNL     1       8.195  27.945  22.563  1.00  0.00     0.232 C 
BRANCH  28  29
HETATM   29  N3  UNL     1       8.440  28.076  21.124  1.00  0.00    -0.075 N 
ATOM     30  H32 UNL     1       7.759  28.691  20.678  1.00  0.00     0.277 HD
ATOM     31  H31 UNL     1       9.284  28.616  20.932  1.00  0.00     0.277 HD
BRANCH  29  32
HETATM   32  C15 UNL     1       8.482  26.772  20.489  1.00  0.00     0.237 C 
BRANCH  32  33
HETATM   33  C16 UNL     1       8.157  26.907  19.029  1.00  0.00     0.066 C 
BRANCH  33  34
HETATM   34  C17 UNL     1       6.643  27.094  18.892  1.00  0.00    -0.050 A 
HETATM   35  C18 UNL     1       6.078  28.211  18.372  1.00  0.00     0.014 A 
HETATM   36  C19 UNL     1       4.713  28.255  18.329  1.00  0.00     0.050 A 
HETATM   37  S1  UNL     1       4.265  26.746  19.013  1.00  0.00    -0.113 SA
HETATM   38  C20 UNL     1       5.800  26.107  19.330  1.00  0.00     0.056 A 
ENDBRANCH  33  34
ENDBRANCH  32  33
ENDBRANCH  29  32
ENDBRANCH  28  29
ENDBRANCH  27  28
ENDBRANCH  26  27
ENDBRANCH  25  26
ENDBRANCH  24  25
ENDBRANCH  21  24
ENDBRANCH  20  21
ENDBRANCH   1  20
TORSDOF 15
ENDMDL
