MODEL 1
REMARK VINA RESULT: -8.773623151      0.000      0.000
REMARK  14 active torsions:
REMARK  status: ('A' for Active; 'I' for Inactive)
REMARK    1  A    between atoms: C3_6  and  N3_7 
REMARK    2  A    between atoms: C4_12  and  N5_13 
REMARK    3  A    between atoms: C5_16  and  C6_17 
REMARK       I    between atoms: C6_17  and  N6_19 
REMARK    4  A    between atoms: N6_19  and  C7_21 
REMARK    5  A    between atoms: C7_21  and  C8_22 
REMARK    6  A    between atoms: C8_22  and  C9_23 
REMARK    7  A    between atoms: C9_23  and  N7_24 
REMARK    8  A    between atoms: N7_24  and  C10_25 
REMARK    9  A    between atoms: N7_24  and  S1_36 
REMARK   10  A    between atoms: C13_28  and  C14_29 
REMARK   11  A    between atoms: S1_36  and  C17_39 
REMARK   12  A    between atoms: C20_42  and  C21_43 
REMARK   13  A    between atoms: C21_43  and  C22_44 
REMARK   14  A    between atoms: C22_44  and  N10_45 
ROOT
HETATM    1  N1  UNL     1      89.408  34.570  48.411  1.00  0.00    -0.190 NA
HETATM    2  C1  UNL     1      88.948  33.810  49.168  1.00  0.00     0.119 C 
HETATM    3  C2  UNL     1      88.416  32.858  50.093  1.00  0.00     0.149 A 
HETATM    4  N2  UNL     1      89.162  32.508  51.165  1.00  0.00    -0.181 N 
ATOM      5  H2  UNL     1      90.064  32.964  51.303  1.00  0.00     0.185 HD
HETATM    6  C3  UNL     1      88.768  31.591  52.052  1.00  0.00     0.678 A 
HETATM    7  N4  UNL     1      87.601  30.983  51.900  1.00  0.00    -0.176 N 
ATOM      8  H4  UNL     1      87.307  30.283  52.581  1.00  0.00     0.186 HD
HETATM    9  C4  UNL     1      86.780  31.276  50.842  1.00  0.00     0.133 A 
HETATM   10  C5  UNL     1      87.188  32.224  49.926  1.00  0.00     0.114 A 
ENDROOT
BRANCH  10  11
HETATM   11  C6  UNL     1      86.329  32.610  48.834  1.00  0.00     0.258 C 
HETATM   12  O1  UNL     1      85.375  33.415  49.067  1.00  0.00    -0.267 OA
HETATM   13  N6  UNL     1      86.456  32.175  47.503  1.00  0.00    -0.357 N 
ATOM     14  H6  UNL     1      87.214  31.539  47.254  1.00  0.00     0.162 HD
BRANCH  13  15
HETATM   15  C7  UNL     1      85.515  32.622  46.461  1.00  0.00     0.124 C 
BRANCH  15  16
HETATM   16  C8  UNL     1      86.279  33.189  45.317  1.00  0.00     0.041 C 
BRANCH  16  17
HETATM   17  C9  UNL     1      86.740  32.192  44.322  1.00  0.00     0.143 C 
BRANCH  17  18
HETATM   18  N7  UNL     1      86.879  32.671  42.972  1.00  0.00    -0.272 N 
BRANCH  18  19
HETATM   19  C10 UNL     1      85.629  32.948  42.297  1.00  0.00     0.045 A 
HETATM   20  C11 UNL     1      85.134  34.231  42.188  1.00  0.00     0.031 A 
HETATM   21  C12 UNL     1      83.958  34.512  41.556  1.00  0.00     0.017 A 
HETATM   22  C13 UNL     1      83.221  33.466  40.993  1.00  0.00     0.005 A 
HETATM   23  C15 UNL     1      83.696  32.188  41.091  1.00  0.00     0.017 A 
HETATM   24  C16 UNL     1      84.905  31.938  41.746  1.00  0.00     0.031 A 
BRANCH  22  25
HETATM   25  C14 UNL     1      81.972  33.719  40.315  1.00  0.00     0.120 C 
HETATM   26  N8  UNL     1      80.929  33.022  40.584  1.00  0.00    -0.387 N 
ATOM     27  H82 UNL     1      80.995  32.284  41.286  1.00  0.00     0.157 HD
ATOM     28  H81 UNL     1      80.046  33.201  40.104  1.00  0.00     0.157 HD
HETATM   29  N9  UNL     1      81.881  34.738  39.346  1.00  0.00    -0.082 NA
ENDBRANCH  22  25
ENDBRANCH  18  19
BRANCH  18  30
HETATM   30  S1  UNL     1      88.377  32.914  42.193  1.00  0.00     0.265 S 
HETATM   31  O2  UNL     1      89.204  31.683  42.223  1.00  0.00    -0.200 OA
HETATM   32  O3  UNL     1      88.228  33.337  40.769  1.00  0.00    -0.200 OA
BRANCH  30  33
HETATM   33  C17 UNL     1      89.302  34.151  43.064  1.00  0.00     0.080 A 
HETATM   34  C18 UNL     1      90.137  33.792  44.099  1.00  0.00     0.026 A 
HETATM   35  C19 UNL     1      90.876  34.730  44.803  1.00  0.00     0.009 A 
HETATM   36  C20 UNL     1      90.796  36.069  44.483  1.00  0.00    -0.057 A 
HETATM   37  C23 UNL     1      89.959  36.424  43.447  1.00  0.00     0.009 A 
HETATM   38  C24 UNL     1      89.220  35.488  42.743  1.00  0.00     0.026 A 
BRANCH  36  39
HETATM   39  C21 UNL     1      91.567  37.114  45.206  1.00  0.00     0.065 C 
BRANCH  39  40
HETATM   40  C22 UNL     1      91.685  36.732  46.662  1.00  0.00     0.234 C 
BRANCH  40  41
HETATM   41  N10 UNL     1      90.450  37.116  47.317  1.00  0.00    -0.079 N 
ATOM     42 3H10 UNL     1      90.323  38.127  47.365  1.00  0.00     0.274 HD
ATOM     43 2H10 UNL     1      89.622  36.905  46.760  1.00  0.00     0.274 HD
ATOM     44 1H10 UNL     1      90.436  36.670  48.234  1.00  0.00     0.274 HD
ENDBRANCH  40  41
ENDBRANCH  39  40
ENDBRANCH  36  39
ENDBRANCH  30  33
ENDBRANCH  18  30
ENDBRANCH  17  18
ENDBRANCH  16  17
ENDBRANCH  15  16
ENDBRANCH  13  15
ENDBRANCH  10  11
BRANCH   6  45
HETATM   45  N3  UNL     1      89.529  31.299  53.060  1.00  0.00    -0.234 N 
ATOM     46  H32 UNL     1      90.250  31.952  53.366  1.00  0.00     0.174 HD
ATOM     47  H31 UNL     1      89.407  30.412  53.549  1.00  0.00     0.174 HD
ENDBRANCH   6  45
BRANCH   9  48
HETATM   48  N5  UNL     1      85.696  30.648  50.816  1.00  0.00    -0.384 N 
ATOM     49  H52 UNL     1      84.871  30.857  51.379  1.00  0.00     0.157 HD
ATOM     50  H51 UNL     1      85.668  29.855  50.176  1.00  0.00     0.157 HD
ENDBRANCH   9  48
TORSDOF 14
ENDMDL
MODEL 2
REMARK VINA RESULT: -8.694151780      5.289     10.605
REMARK  14 active torsions:
REMARK  status: ('A' for Active; 'I' for Inactive)
REMARK    1  A    between atoms: C3_6  and  N3_7 
REMARK    2  A    between atoms: C4_12  and  N5_13 
REMARK    3  A    between atoms: C5_16  and  C6_17 
REMARK       I    between atoms: C6_17  and  N6_19 
REMARK    4  A    between atoms: N6_19  and  C7_21 
REMARK    5  A    between atoms: C7_21  and  C8_22 
REMARK    6  A    between atoms: C8_22  and  C9_23 
REMARK    7  A    between atoms: C9_23  and  N7_24 
REMARK    8  A    between atoms: N7_24  and  C10_25 
REMARK    9  A    between atoms: N7_24  and  S1_36 
REMARK   10  A    between atoms: C13_28  and  C14_29 
REMARK   11  A    between atoms: S1_36  and  C17_39 
REMARK   12  A    between atoms: C20_42  and  C21_43 
REMARK   13  A    between atoms: C21_43  and  C22_44 
REMARK   14  A    between atoms: C22_44  and  N10_45 
ROOT
HETATM    1  N1  UNL     1      82.726  27.725  41.951  1.00  0.00    -0.190 NA
HETATM    2  C1  UNL     1      82.020  27.257  41.149  1.00  0.00     0.119 C 
HETATM    3  C2  UNL     1      81.174  26.652  40.166  1.00  0.00     0.149 A 
HETATM    4  N2  UNL     1      80.672  25.421  40.413  1.00  0.00    -0.181 N 
ATOM      5  H2  UNL     1      80.878  24.979  41.308  1.00  0.00     0.185 HD
HETATM    6  C3  UNL     1      79.916  24.758  39.532  1.00  0.00     0.678 A 
HETATM    7  N4  UNL     1      79.631  25.309  38.361  1.00  0.00    -0.176 N 
ATOM      8  H4  UNL     1      79.053  24.797  37.694  1.00  0.00     0.186 HD
HETATM    9  C4  UNL     1      80.097  26.554  38.029  1.00  0.00     0.133 A 
HETATM   10  C5  UNL     1      80.878  27.237  38.939  1.00  0.00     0.114 A 
ENDROOT
BRANCH  10  11
HETATM   11  C6  UNL     1      81.338  28.575  38.657  1.00  0.00     0.258 C 
HETATM   12  O1  UNL     1      81.753  28.840  37.487  1.00  0.00    -0.267 OA
HETATM   13  N6  UNL     1      81.365  29.638  39.576  1.00  0.00    -0.357 N 
ATOM     14  H6  UNL     1      81.030  29.487  40.528  1.00  0.00     0.162 HD
BRANCH  13  15
HETATM   15  C7  UNL     1      81.867  30.968  39.189  1.00  0.00     0.124 C 
BRANCH  15  16
HETATM   16  C8  UNL     1      82.876  31.423  40.183  1.00  0.00     0.041 C 
BRANCH  16  17
HETATM   17  C9  UNL     1      83.337  32.820  40.007  1.00  0.00     0.143 C 
BRANCH  17  18
HETATM   18  N7  UNL     1      83.288  33.650  41.182  1.00  0.00    -0.272 N 
BRANCH  18  19
HETATM   19  C10 UNL     1      84.515  33.688  41.948  1.00  0.00     0.045 A 
HETATM   20  C11 UNL     1      84.509  33.657  43.327  1.00  0.00     0.031 A 
HETATM   21  C12 UNL     1      85.656  33.693  44.066  1.00  0.00     0.017 A 
HETATM   22  C13 UNL     1      86.887  33.762  43.409  1.00  0.00     0.005 A 
HETATM   23  C15 UNL     1      86.913  33.793  42.042  1.00  0.00     0.017 A 
HETATM   24  C16 UNL     1      85.718  33.755  41.318  1.00  0.00     0.031 A 
BRANCH  22  25
HETATM   25  C14 UNL     1      88.124  33.802  44.152  1.00  0.00     0.120 C 
HETATM   26  N8  UNL     1      88.117  33.821  45.434  1.00  0.00    -0.387 N 
ATOM     27  H82 UNL     1      87.222  33.807  45.924  1.00  0.00     0.157 HD
ATOM     28  H81 UNL     1      88.992  33.848  45.959  1.00  0.00     0.157 HD
HETATM   29  N9  UNL     1      89.361  33.820  43.476  1.00  0.00    -0.082 NA
ENDBRANCH  22  25
ENDBRANCH  18  19
BRANCH  18  30
HETATM   30  S1  UNL     1      81.914  34.537  41.669  1.00  0.00     0.265 S 
HETATM   31  O2  UNL     1      80.662  33.838  41.293  1.00  0.00    -0.200 OA
HETATM   32  O3  UNL     1      81.880  34.793  43.139  1.00  0.00    -0.200 OA
BRANCH  30  33
HETATM   33  C17 UNL     1      81.885  36.092  40.817  1.00  0.00     0.080 A 
HETATM   34  C18 UNL     1      81.569  36.143  39.477  1.00  0.00     0.026 A 
HETATM   35  C19 UNL     1      81.535  37.339  38.776  1.00  0.00     0.009 A 
HETATM   36  C20 UNL     1      81.821  38.530  39.410  1.00  0.00    -0.057 A 
HETATM   37  C23 UNL     1      82.137  38.474  40.751  1.00  0.00     0.009 A 
HETATM   38  C24 UNL     1      82.171  37.280  41.451  1.00  0.00     0.026 A 
BRANCH  36  39
HETATM   39  C21 UNL     1      81.799  39.839  38.706  1.00  0.00     0.065 C 
BRANCH  39  40
HETATM   40  C22 UNL     1      82.050  40.946  39.702  1.00  0.00     0.234 C 
BRANCH  40  41
HETATM   41  N10 UNL     1      81.046  41.969  39.482  1.00  0.00    -0.079 N 
ATOM     42 3H10 UNL     1      81.099  42.730  40.158  1.00  0.00     0.274 HD
ATOM     43 2H10 UNL     1      81.221  42.524  38.644  1.00  0.00     0.274 HD
ATOM     44 1H10 UNL     1      80.136  41.510  39.471  1.00  0.00     0.274 HD
ENDBRANCH  40  41
ENDBRANCH  39  40
ENDBRANCH  36  39
ENDBRANCH  30  33
ENDBRANCH  18  30
ENDBRANCH  17  18
ENDBRANCH  16  17
ENDBRANCH  15  16
ENDBRANCH  13  15
ENDBRANCH  10  11
BRANCH   6  45
HETATM   45  N3  UNL     1      79.464  23.580  39.827  1.00  0.00    -0.234 N 
ATOM     46  H32 UNL     1      79.754  23.120  40.690  1.00  0.00     0.174 HD
ATOM     47  H31 UNL     1      78.816  23.112  39.193  1.00  0.00     0.174 HD
ENDBRANCH   6  45
BRANCH   9  48
HETATM   48  N5  UNL     1      79.746  26.974  36.902  1.00  0.00    -0.384 N 
ATOM     49  H52 UNL     1      78.869  27.449  36.688  1.00  0.00     0.157 HD
ATOM     50  H51 UNL     1      80.408  26.799  36.147  1.00  0.00     0.157 HD
ENDBRANCH   9  48
TORSDOF 14
ENDMDL
MODEL 3
REMARK VINA RESULT: -8.622947264      1.625      5.805
REMARK  14 active torsions:
REMARK  status: ('A' for Active; 'I' for Inactive)
REMARK    1  A    between atoms: C3_6  and  N3_7 
REMARK    2  A    between atoms: C4_12  and  N5_13 
REMARK    3  A    between atoms: C5_16  and  C6_17 
REMARK       I    between atoms: C6_17  and  N6_19 
REMARK    4  A    between atoms: N6_19  and  C7_21 
REMARK    5  A    between atoms: C7_21  and  C8_22 
REMARK    6  A    between atoms: C8_22  and  C9_23 
REMARK    7  A    between atoms: C9_23  and  N7_24 
REMARK    8  A    between atoms: N7_24  and  C10_25 
REMARK    9  A    between atoms: N7_24  and  S1_36 
REMARK   10  A    between atoms: C13_28  and  C14_29 
REMARK   11  A    between atoms: S1_36  and  C17_39 
REMARK   12  A    between atoms: C20_42  and  C21_43 
REMARK   13  A    between atoms: C21_43  and  C22_44 
REMARK   14  A    between atoms: C22_44  and  N10_45 
ROOT
HETATM    1  N1  UNL     1      89.284  34.609  48.357  1.00  0.00    -0.190 NA
HETATM    2  C1  UNL     1      89.042  33.860  49.218  1.00  0.00     0.119 C 
HETATM    3  C2  UNL     1      88.779  32.922  50.265  1.00  0.00     0.149 A 
HETATM    4  N2  UNL     1      89.742  32.690  51.186  1.00  0.00    -0.181 N 
ATOM      5  H2  UNL     1      90.611  33.220  51.128  1.00  0.00     0.185 HD
HETATM    6  C3  UNL     1      89.603  31.795  52.168  1.00  0.00     0.678 A 
HETATM    7  N4  UNL     1      88.484  31.093  52.268  1.00  0.00    -0.176 N 
ATOM      8  H4  UNL     1      88.386  30.412  53.021  1.00  0.00     0.186 HD
HETATM    9  C4  UNL     1      87.456  31.265  51.379  1.00  0.00     0.133 A 
HETATM   10  C5  UNL     1      87.600  32.189  50.365  1.00  0.00     0.114 A 
ENDROOT
BRANCH  10  11
HETATM   11  C6  UNL     1      86.520  32.448  49.445  1.00  0.00     0.258 C 
HETATM   12  O1  UNL     1      85.610  33.264  49.791  1.00  0.00    -0.267 OA
HETATM   13  N6  UNL     1      86.379  31.874  48.170  1.00  0.00    -0.357 N 
ATOM     14  H6  UNL     1      87.086  31.221  47.833  1.00  0.00     0.162 HD
BRANCH  13  15
HETATM   15  C7  UNL     1      85.227  32.198  47.310  1.00  0.00     0.124 C 
BRANCH  15  16
HETATM   16  C8  UNL     1      85.705  32.896  46.087  1.00  0.00     0.041 C 
BRANCH  16  17
HETATM   17  C9  UNL     1      86.748  32.170  45.324  1.00  0.00     0.143 C 
BRANCH  17  18
HETATM   18  N7  UNL     1      86.975  32.632  43.979  1.00  0.00    -0.272 N 
BRANCH  18  19
HETATM   19  C10 UNL     1      87.964  33.681  43.858  1.00  0.00     0.045 A 
HETATM   20  C11 UNL     1      88.844  33.967  44.881  1.00  0.00     0.031 A 
HETATM   21  C12 UNL     1      89.783  34.953  44.787  1.00  0.00     0.017 A 
HETATM   22  C13 UNL     1      89.864  35.705  43.611  1.00  0.00     0.005 A 
HETATM   23  C15 UNL     1      89.000  35.435  42.586  1.00  0.00     0.017 A 
HETATM   24  C16 UNL     1      88.051  34.418  42.719  1.00  0.00     0.031 A 
BRANCH  22  25
HETATM   25  C14 UNL     1      90.842  36.757  43.468  1.00  0.00     0.120 C 
HETATM   26  N8  UNL     1      92.031  36.495  43.064  1.00  0.00    -0.387 N 
ATOM     27  H82 UNL     1      92.276  35.529  42.843  1.00  0.00     0.157 HD
ATOM     28  H81 UNL     1      92.722  37.238  42.963  1.00  0.00     0.157 HD
HETATM   29  N9  UNL     1      90.503  38.090  43.773  1.00  0.00    -0.082 NA
ENDBRANCH  22  25
ENDBRANCH  18  19
BRANCH  18  30
HETATM   30  S1  UNL     1      86.170  32.014  42.608  1.00  0.00     0.265 S 
HETATM   31  O2  UNL     1      87.104  31.838  41.470  1.00  0.00    -0.200 OA
HETATM   32  O3  UNL     1      85.504  30.704  42.868  1.00  0.00    -0.200 OA
BRANCH  30  33
HETATM   33  C17 UNL     1      84.948  33.180  42.067  1.00  0.00     0.080 A 
HETATM   34  C18 UNL     1      84.106  33.776  42.980  1.00  0.00     0.026 A 
HETATM   35  C19 UNL     1      83.139  34.692  42.596  1.00  0.00     0.009 A 
HETATM   36  C20 UNL     1      82.990  35.039  41.271  1.00  0.00    -0.057 A 
HETATM   37  C23 UNL     1      83.834  34.440  40.360  1.00  0.00     0.009 A 
HETATM   38  C24 UNL     1      84.800  33.525  40.742  1.00  0.00     0.026 A 
BRANCH  36  39
HETATM   39  C21 UNL     1      81.970  36.015  40.806  1.00  0.00     0.065 C 
BRANCH  39  40
HETATM   40  C22 UNL     1      81.162  35.400  39.689  1.00  0.00     0.234 C 
BRANCH  40  41
HETATM   41  N10 UNL     1      80.344  34.350  40.267  1.00  0.00    -0.079 N 
ATOM     42 3H10 UNL     1      80.830  33.821  40.989  1.00  0.00     0.274 HD
ATOM     43 2H10 UNL     1      79.589  34.711  40.850  1.00  0.00     0.274 HD
ATOM     44 1H10 UNL     1      80.010  33.765  39.502  1.00  0.00     0.274 HD
ENDBRANCH  40  41
ENDBRANCH  39  40
ENDBRANCH  36  39
ENDBRANCH  30  33
ENDBRANCH  18  30
ENDBRANCH  17  18
ENDBRANCH  16  17
ENDBRANCH  15  16
ENDBRANCH  13  15
ENDBRANCH  10  11
BRANCH   6  45
HETATM   45  N3  UNL     1      90.563  31.618  53.020  1.00  0.00    -0.234 N 
ATOM     46  H32 UNL     1      90.577  32.143  53.895  1.00  0.00     0.174 HD
ATOM     47  H31 UNL     1      91.308  30.951  52.816  1.00  0.00     0.174 HD
ENDBRANCH   6  45
BRANCH   9  48
HETATM   48  N5  UNL     1      86.444  30.556  51.588  1.00  0.00    -0.384 N 
ATOM     49  H52 UNL     1      85.524  30.896  51.871  1.00  0.00     0.157 HD
ATOM     50  H51 UNL     1      86.583  29.552  51.472  1.00  0.00     0.157 HD
ENDBRANCH   9  48
TORSDOF 14
ENDMDL
MODEL 4
REMARK VINA RESULT: -8.430724172      2.548      8.443
REMARK  14 active torsions:
REMARK  status: ('A' for Active; 'I' for Inactive)
REMARK    1  A    between atoms: C3_6  and  N3_7 
REMARK    2  A    between atoms: C4_12  and  N5_13 
REMARK    3  A    between atoms: C5_16  and  C6_17 
REMARK       I    between atoms: C6_17  and  N6_19 
REMARK    4  A    between atoms: N6_19  and  C7_21 
REMARK    5  A    between atoms: C7_21  and  C8_22 
REMARK    6  A    between atoms: C8_22  and  C9_23 
REMARK    7  A    between atoms: C9_23  and  N7_24 
REMARK    8  A    between atoms: N7_24  and  C10_25 
REMARK    9  A    between atoms: N7_24  and  S1_36 
REMARK   10  A    between atoms: C13_28  and  C14_29 
REMARK   11  A    between atoms: S1_36  and  C17_39 
REMARK   12  A    between atoms: C20_42  and  C21_43 
REMARK   13  A    between atoms: C21_43  and  C22_44 
REMARK   14  A    between atoms: C22_44  and  N10_45 
ROOT
HETATM    1  N1  UNL     1      90.298  38.034  44.681  1.00  0.00    -0.190 NA
HETATM    2  C1  UNL     1      90.472  37.111  43.989  1.00  0.00     0.119 C 
HETATM    3  C2  UNL     1      90.649  35.984  43.126  1.00  0.00     0.149 A 
HETATM    4  N2  UNL     1      90.395  36.131  41.806  1.00  0.00    -0.181 N 
ATOM      5  H2  UNL     1      90.123  37.051  41.460  1.00  0.00     0.185 HD
HETATM    6  C3  UNL     1      90.485  35.122  40.935  1.00  0.00     0.678 A 
HETATM    7  N4  UNL     1      90.838  33.916  41.356  1.00  0.00    -0.176 N 
ATOM      8  H4  UNL     1      90.904  33.151  40.685  1.00  0.00     0.186 HD
HETATM    9  C4  UNL     1      91.115  33.678  42.676  1.00  0.00     0.133 A 
HETATM   10  C5  UNL     1      91.021  34.720  43.575  1.00  0.00     0.114 A 
ENDROOT
BRANCH  10  11
HETATM   11  C6  UNL     1      91.365  34.530  44.963  1.00  0.00     0.258 C 
HETATM   12  O1  UNL     1      92.578  34.301  45.262  1.00  0.00    -0.267 OA
HETATM   13  N6  UNL     1      90.465  34.581  46.041  1.00  0.00    -0.357 N 
ATOM     14  H6  UNL     1      89.480  34.776  45.862  1.00  0.00     0.162 HD
BRANCH  13  15
HETATM   15  C7  UNL     1      90.918  34.360  47.425  1.00  0.00     0.124 C 
BRANCH  15  16
HETATM   16  C8  UNL     1      89.748  34.026  48.280  1.00  0.00     0.041 C 
BRANCH  16  17
HETATM   17  C9  UNL     1      88.488  33.776  47.541  1.00  0.00     0.143 C 
BRANCH  17  18
HETATM   18  N7  UNL     1      88.149  32.393  47.328  1.00  0.00    -0.272 N 
BRANCH  18  19
HETATM   19  C10 UNL     1      87.724  31.685  48.516  1.00  0.00     0.045 A 
HETATM   20  C11 UNL     1      86.527  31.969  49.138  1.00  0.00     0.031 A 
HETATM   21  C12 UNL     1      86.109  31.312  50.260  1.00  0.00     0.017 A 
HETATM   22  C13 UNL     1      86.919  30.311  50.803  1.00  0.00     0.005 A 
HETATM   23  C15 UNL     1      88.110  30.015  50.200  1.00  0.00     0.017 A 
HETATM   24  C16 UNL     1      88.505  30.709  49.053  1.00  0.00     0.031 A 
BRANCH  22  25
HETATM   25  C14 UNL     1      86.515  29.591  51.988  1.00  0.00     0.120 C 
HETATM   26  N8  UNL     1      87.374  29.281  52.889  1.00  0.00    -0.387 N 
ATOM     27  H82 UNL     1      88.349  29.550  52.757  1.00  0.00     0.157 HD
ATOM     28  H81 UNL     1      87.088  28.772  53.726  1.00  0.00     0.157 HD
HETATM   29  N9  UNL     1      85.168  29.219  52.171  1.00  0.00    -0.082 NA
ENDBRANCH  22  25
ENDBRANCH  18  19
BRANCH  18  30
HETATM   30  S1  UNL     1      88.223  31.613  45.813  1.00  0.00     0.265 S 
HETATM   31  O2  UNL     1      89.597  31.650  45.256  1.00  0.00    -0.200 OA
HETATM   32  O3  UNL     1      87.785  30.187  45.873  1.00  0.00    -0.200 OA
BRANCH  30  33
HETATM   33  C17 UNL     1      87.198  32.479  44.653  1.00  0.00     0.080 A 
HETATM   34  C18 UNL     1      85.919  32.854  45.004  1.00  0.00     0.026 A 
HETATM   35  C19 UNL     1      85.088  33.532  44.125  1.00  0.00     0.009 A 
HETATM   36  C20 UNL     1      85.523  33.856  42.858  1.00  0.00    -0.057 A 
HETATM   37  C23 UNL     1      86.803  33.478  42.511  1.00  0.00     0.009 A 
HETATM   38  C24 UNL     1      87.634  32.800  43.388  1.00  0.00     0.026 A 
BRANCH  36  39
HETATM   39  C21 UNL     1      84.673  34.581  41.878  1.00  0.00     0.065 C 
BRANCH  39  40
HETATM   40  C22 UNL     1      84.389  33.681  40.699  1.00  0.00     0.234 C 
BRANCH  40  41
HETATM   41  N10 UNL     1      83.288  32.811  41.068  1.00  0.00    -0.079 N 
ATOM     42 3H10 UNL     1      83.032  32.890  42.052  1.00  0.00     0.274 HD
ATOM     43 2H10 UNL     1      82.396  33.111  40.674  1.00  0.00     0.274 HD
ATOM     44 1H10 UNL     1      83.543  31.862  40.798  1.00  0.00     0.274 HD
ENDBRANCH  40  41
ENDBRANCH  39  40
ENDBRANCH  36  39
ENDBRANCH  30  33
ENDBRANCH  18  30
ENDBRANCH  17  18
ENDBRANCH  16  17
ENDBRANCH  15  16
ENDBRANCH  13  15
ENDBRANCH  10  11
BRANCH   6  45
HETATM   45  N3  UNL     1      90.228  35.326  39.681  1.00  0.00    -0.234 N 
ATOM     46  H32 UNL     1      89.434  35.905  39.408  1.00  0.00     0.174 HD
ATOM     47  H31 UNL     1      90.822  34.907  38.966  1.00  0.00     0.174 HD
ENDBRANCH   6  45
BRANCH   9  48
HETATM   48  N5  UNL     1      91.453  32.502  42.948  1.00  0.00    -0.384 N 
ATOM     49  H52 UNL     1      91.902  32.194  43.811  1.00  0.00     0.157 HD
ATOM     50  H51 UNL     1      91.264  31.815  42.219  1.00  0.00     0.157 HD
ENDBRANCH   9  48
TORSDOF 14
ENDMDL
MODEL 5
REMARK VINA RESULT: -8.415883553      2.376      6.024
REMARK  14 active torsions:
REMARK  status: ('A' for Active; 'I' for Inactive)
REMARK    1  A    between atoms: C3_6  and  N3_7 
REMARK    2  A    between atoms: C4_12  and  N5_13 
REMARK    3  A    between atoms: C5_16  and  C6_17 
REMARK       I    between atoms: C6_17  and  N6_19 
REMARK    4  A    between atoms: N6_19  and  C7_21 
REMARK    5  A    between atoms: C7_21  and  C8_22 
REMARK    6  A    between atoms: C8_22  and  C9_23 
REMARK    7  A    between atoms: C9_23  and  N7_24 
REMARK    8  A    between atoms: N7_24  and  C10_25 
REMARK    9  A    between atoms: N7_24  and  S1_36 
REMARK   10  A    between atoms: C13_28  and  C14_29 
REMARK   11  A    between atoms: S1_36  and  C17_39 
REMARK   12  A    between atoms: C20_42  and  C21_43 
REMARK   13  A    between atoms: C21_43  and  C22_44 
REMARK   14  A    between atoms: C22_44  and  N10_45 
ROOT
HETATM    1  N1  UNL     1      84.605  33.303  49.657  1.00  0.00    -0.190 NA
HETATM    2  C1  UNL     1      85.211  32.476  50.213  1.00  0.00     0.119 C 
HETATM    3  C2  UNL     1      85.928  31.463  50.925  1.00  0.00     0.149 A 
HETATM    4  N2  UNL     1      85.245  30.395  51.396  1.00  0.00    -0.181 N 
ATOM      5  H2  UNL     1      84.248  30.325  51.196  1.00  0.00     0.185 HD
HETATM    6  C3  UNL     1      85.822  29.427  52.114  1.00  0.00     0.678 A 
HETATM    7  N4  UNL     1      87.118  29.491  52.388  1.00  0.00    -0.176 N 
ATOM      8  H4  UNL     1      87.551  28.748  52.937  1.00  0.00     0.186 HD
HETATM    9  C4  UNL     1      87.885  30.537  51.949  1.00  0.00     0.133 A 
HETATM   10  C5  UNL     1      87.289  31.536  51.208  1.00  0.00     0.114 A 
ENDROOT
BRANCH  10  11
HETATM   11  C6  UNL     1      88.070  32.623  50.671  1.00  0.00     0.258 C 
HETATM   12  O1  UNL     1      88.480  33.526  51.465  1.00  0.00    -0.267 OA
HETATM   13  N6  UNL     1      88.435  32.778  49.323  1.00  0.00    -0.357 N 
ATOM     14  H6  UNL     1      88.145  32.076  48.642  1.00  0.00     0.162 HD
BRANCH  13  15
HETATM   15  C7  UNL     1      89.228  33.935  48.874  1.00  0.00     0.124 C 
BRANCH  15  16
HETATM   16  C8  UNL     1      89.705  33.699  47.485  1.00  0.00     0.041 C 
BRANCH  16  17
HETATM   17  C9  UNL     1      88.982  34.460  46.440  1.00  0.00     0.143 C 
BRANCH  17  18
HETATM   18  N7  UNL     1      88.566  33.704  45.288  1.00  0.00    -0.272 N 
BRANCH  18  19
HETATM   19  C10 UNL     1      89.308  33.988  44.078  1.00  0.00     0.045 A 
HETATM   20  C11 UNL     1      88.897  34.958  43.188  1.00  0.00     0.031 A 
HETATM   21  C12 UNL     1      89.582  35.241  42.042  1.00  0.00     0.017 A 
HETATM   22  C13 UNL     1      90.747  34.525  41.753  1.00  0.00     0.005 A 
HETATM   23  C15 UNL     1      91.171  33.560  42.624  1.00  0.00     0.017 A 
HETATM   24  C16 UNL     1      90.443  33.298  43.788  1.00  0.00     0.031 A 
BRANCH  22  25
HETATM   25  C14 UNL     1      91.504  34.791  40.552  1.00  0.00     0.120 C 
HETATM   26  N8  UNL     1      91.349  34.064  39.507  1.00  0.00    -0.387 N 
ATOM     27  H82 UNL     1      90.682  33.293  39.535  1.00  0.00     0.157 HD
ATOM     28  H81 UNL     1      91.883  34.253  38.659  1.00  0.00     0.157 HD
HETATM   29  N9  UNL     1      92.425  35.857  40.513  1.00  0.00    -0.082 NA
ENDBRANCH  22  25
ENDBRANCH  18  19
BRANCH  18  30
HETATM   30  S1  UNL     1      87.309  32.551  45.304  1.00  0.00     0.265 S 
HETATM   31  O2  UNL     1      87.832  31.182  45.070  1.00  0.00    -0.200 OA
HETATM   32  O3  UNL     1      86.546  32.542  46.586  1.00  0.00    -0.200 OA
BRANCH  30  33
HETATM   33  C17 UNL     1      86.187  32.884  43.972  1.00  0.00     0.080 A 
HETATM   34  C18 UNL     1      86.373  32.289  42.743  1.00  0.00     0.026 A 
HETATM   35  C19 UNL     1      85.516  32.524  41.678  1.00  0.00     0.009 A 
HETATM   36  C20 UNL     1      84.438  33.371  41.820  1.00  0.00    -0.057 A 
HETATM   37  C23 UNL     1      84.256  33.964  43.051  1.00  0.00     0.009 A 
HETATM   38  C24 UNL     1      85.111  33.731  44.116  1.00  0.00     0.026 A 
BRANCH  36  39
HETATM   39  C21 UNL     1      83.491  33.658  40.711  1.00  0.00     0.065 C 
BRANCH  39  40
HETATM   40  C22 UNL     1      82.154  34.060  41.287  1.00  0.00     0.234 C 
BRANCH  40  41
HETATM   41  N10 UNL     1      81.193  33.038  40.918  1.00  0.00    -0.079 N 
ATOM     42 3H10 UNL     1      80.613  33.307  40.123  1.00  0.00     0.274 HD
ATOM     43 2H10 UNL     1      81.628  32.218  40.494  1.00  0.00     0.274 HD
ATOM     44 1H10 UNL     1      80.648  32.813  41.749  1.00  0.00     0.274 HD
ENDBRANCH  40  41
ENDBRANCH  39  40
ENDBRANCH  36  39
ENDBRANCH  30  33
ENDBRANCH  18  30
ENDBRANCH  17  18
ENDBRANCH  16  17
ENDBRANCH  15  16
ENDBRANCH  13  15
ENDBRANCH  10  11
BRANCH   6  45
HETATM   45  N3  UNL     1      85.114  28.428  52.539  1.00  0.00    -0.234 N 
ATOM     46  H32 UNL     1      85.139  27.535  52.046  1.00  0.00     0.174 HD
ATOM     47  H31 UNL     1      84.530  28.535  53.368  1.00  0.00     0.174 HD
ENDBRANCH   6  45
BRANCH   9  48
HETATM   48  N5  UNL     1      89.099  30.477  52.257  1.00  0.00    -0.384 N 
ATOM     49  H52 UNL     1      89.847  30.110  51.669  1.00  0.00     0.157 HD
ATOM     50  H51 UNL     1      89.328  30.819  53.190  1.00  0.00     0.157 HD
ENDBRANCH   9  48
TORSDOF 14
ENDMDL
