MODEL 1
REMARK VINA RESULT: -6.085353589      0.000      0.000
REMARK  1 active torsions:
REMARK  status: ('A' for Active; 'I' for Inactive)
REMARK    1  A    between atoms: N2_4  and  N3_6 
ROOT
HETATM    1  N3  UNL     1      31.344  66.443   6.944  1.00  0.00    -0.268 N 
ATOM      2  H3  UNL     1      30.962  66.973   6.161  1.00  0.00     0.190 HD
HETATM    3  C1  UNL     1      30.533  66.042   7.890  1.00  0.00     0.169 A 
HETATM    4  N4  UNL     1      30.866  65.300   9.053  1.00  0.00    -0.290 N 
ATOM      5  H4  UNL     1      31.799  64.976   9.307  1.00  0.00     0.172 HD
HETATM    6  C2  UNL     1      29.679  65.085   9.801  1.00  0.00     0.327 A 
HETATM    7  O1  UNL     1      29.551  64.466  10.901  1.00  0.00    -0.247 OA
HETATM    8  N5  UNL     1      28.566  65.679   9.145  1.00  0.00    -0.292 N 
ATOM      9  H5  UNL     1      27.594  65.680   9.455  1.00  0.00     0.172 HD
HETATM   10  C3  UNL     1      29.096  66.269   7.965  1.00  0.00     0.149 A 
HETATM   11  N6  UNL     1      28.423  66.928   7.054  1.00  0.00    -0.382 N 
ATOM     12  H61 UNL     1      27.416  67.087   7.107  1.00  0.00     0.157 HD
ATOM     13  H62 UNL     1      28.802  67.352   6.207  1.00  0.00     0.157 HD
ENDROOT
BRANCH   1  14
HETATM   14  N2  UNL     1      32.698  66.176   6.964  1.00  0.00    -0.248 N 
HETATM   15  N1  UNL     1      33.452  66.810   7.784  1.00  0.00    -0.331 N 
ATOM     16  H12 UNL     1      33.040  67.502   8.409  1.00  0.00     0.178 HD
ATOM     17  H11 UNL     1      34.453  66.612   7.799  1.00  0.00     0.178 HD
ATOM     18  H2  UNL     1      33.095  65.481   6.332  1.00  0.00     0.207 HD
ENDBRANCH   1  14
TORSDOF 1
ENDMDL
MODEL 2
REMARK VINA RESULT: -6.009156352      2.297      3.978
REMARK  1 active torsions:
REMARK  status: ('A' for Active; 'I' for Inactive)
REMARK    1  A    between atoms: N2_4  and  N3_6 
ROOT
HETATM    1  N3  UNL     1      31.086  66.287  10.005  1.00  0.00    -0.268 N 
ATOM      2  H3  UNL     1      32.005  66.448  10.417  1.00  0.00     0.190 HD
HETATM    3  C1  UNL     1      30.960  66.346   8.703  1.00  0.00     0.169 A 
HETATM    4  N4  UNL     1      29.777  66.155   7.943  1.00  0.00    -0.290 N 
ATOM      5  H4  UNL     1      28.853  65.941   8.320  1.00  0.00     0.172 HD
HETATM    6  C2  UNL     1      30.097  66.310   6.569  1.00  0.00     0.327 A 
HETATM    7  O1  UNL     1      29.320  66.217   5.571  1.00  0.00    -0.247 OA
HETATM    8  N5  UNL     1      31.480  66.604   6.414  1.00  0.00    -0.292 N 
ATOM      9  H5  UNL     1      31.984  66.765   5.542  1.00  0.00     0.172 HD
HETATM   10  C3  UNL     1      32.010  66.625   7.733  1.00  0.00     0.149 A 
HETATM   11  N6  UNL     1      33.256  66.859   8.068  1.00  0.00    -0.382 N 
ATOM     12  H61 UNL     1      33.991  67.054   7.389  1.00  0.00     0.157 HD
ATOM     13  H62 UNL     1      33.636  66.874   9.015  1.00  0.00     0.157 HD
ENDROOT
BRANCH   1  14
HETATM   14  N2  UNL     1      30.024  66.014  10.842  1.00  0.00    -0.248 N 
HETATM   15  N1  UNL     1      29.747  64.797  11.132  1.00  0.00    -0.331 N 
ATOM     16  H12 UNL     1      30.317  64.048  10.739  1.00  0.00     0.178 HD
ATOM     17  H11 UNL     1      28.961  64.595  11.751  1.00  0.00     0.178 HD
ATOM     18  H2  UNL     1      29.464  66.774  11.227  1.00  0.00     0.207 HD
ENDBRANCH   1  14
TORSDOF 1
ENDMDL
MODEL 3
REMARK VINA RESULT: -6.002811120      2.342      4.082
REMARK  1 active torsions:
REMARK  status: ('A' for Active; 'I' for Inactive)
REMARK    1  A    between atoms: N2_4  and  N3_6 
ROOT
HETATM    1  N3  UNL     1      30.544  65.051  10.393  1.00  0.00    -0.268 N 
ATOM      2  H3  UNL     1      31.470  64.965  10.812  1.00  0.00     0.190 HD
HETATM    3  C1  UNL     1      30.420  65.706   9.265  1.00  0.00     0.169 A 
HETATM    4  N4  UNL     1      29.229  65.935   8.529  1.00  0.00    -0.290 N 
ATOM      5  H4  UNL     1      28.296  65.614   8.788  1.00  0.00     0.172 HD
HETATM    6  C2  UNL     1      29.557  66.688   7.372  1.00  0.00     0.327 A 
HETATM    7  O1  UNL     1      28.776  67.096   6.459  1.00  0.00    -0.247 OA
HETATM    8  N5  UNL     1      30.952  66.959   7.337  1.00  0.00    -0.292 N 
ATOM      9  H5  UNL     1      31.463  67.479   6.624  1.00  0.00     0.172 HD
HETATM   10  C3  UNL     1      31.483  66.351   8.507  1.00  0.00     0.149 A 
HETATM   11  N6  UNL     1      32.739  66.350   8.883  1.00  0.00    -0.382 N 
ATOM     12  H61 UNL     1      33.483  66.802   8.352  1.00  0.00     0.157 HD
ATOM     13  H62 UNL     1      33.120  65.914   9.723  1.00  0.00     0.157 HD
ENDROOT
BRANCH   1  14
HETATM   14  N2  UNL     1      29.470  64.472  11.037  1.00  0.00    -0.248 N 
HETATM   15  N1  UNL     1      29.558  64.195  12.285  1.00  0.00    -0.331 N 
ATOM     16  H12 UNL     1      30.422  64.407  12.783  1.00  0.00     0.178 HD
ATOM     17  H11 UNL     1      28.764  63.767  12.761  1.00  0.00     0.178 HD
ATOM     18  H2  UNL     1      28.613  64.266  10.524  1.00  0.00     0.207 HD
ENDBRANCH   1  14
TORSDOF 1
ENDMDL
MODEL 4
REMARK VINA RESULT: -5.816835144      2.271      3.689
REMARK  1 active torsions:
REMARK  status: ('A' for Active; 'I' for Inactive)
REMARK    1  A    between atoms: N2_4  and  N3_6 
ROOT
HETATM    1  N3  UNL     1      29.269  65.103   9.778  1.00  0.00    -0.268 N 
ATOM      2  H3  UNL     1      28.267  65.129   9.589  1.00  0.00     0.190 HD
HETATM    3  C1  UNL     1      30.077  65.754   8.978  1.00  0.00     0.169 A 
HETATM    4  N4  UNL     1      31.491  65.841   9.068  1.00  0.00    -0.290 N 
ATOM      5  H4  UNL     1      32.072  65.400   9.781  1.00  0.00     0.172 HD
HETATM    6  C2  UNL     1      31.958  66.647   7.998  1.00  0.00     0.327 A 
HETATM    7  O1  UNL     1      33.155  66.967   7.726  1.00  0.00    -0.247 OA
HETATM    8  N5  UNL     1      30.868  67.092   7.201  1.00  0.00    -0.292 N 
ATOM      9  H5  UNL     1      30.909  67.682   6.370  1.00  0.00     0.172 HD
HETATM   10  C3  UNL     1      29.707  66.540   7.809  1.00  0.00     0.149 A 
HETATM   11  N6  UNL     1      28.469  66.691   7.406  1.00  0.00    -0.382 N 
ATOM     12  H61 UNL     1      28.211  67.242   6.587  1.00  0.00     0.157 HD
ATOM     13  H62 UNL     1      27.637  66.295   7.843  1.00  0.00     0.157 HD
ENDROOT
BRANCH   1  14
HETATM   14  N2  UNL     1      29.720  64.384  10.865  1.00  0.00    -0.248 N 
HETATM   15  N1  UNL     1      29.236  64.628  12.026  1.00  0.00    -0.331 N 
ATOM     16  H12 UNL     1      28.524  65.350  12.128  1.00  0.00     0.178 HD
ATOM     17  H11 UNL     1      29.570  64.096  12.831  1.00  0.00     0.178 HD
ATOM     18  H2  UNL     1      30.434  63.665  10.746  1.00  0.00     0.207 HD
ENDBRANCH   1  14
TORSDOF 1
ENDMDL
MODEL 5
REMARK VINA RESULT: -5.803313669      1.177      1.226
REMARK  1 active torsions:
REMARK  status: ('A' for Active; 'I' for Inactive)
REMARK    1  A    between atoms: N2_4  and  N3_6 
ROOT
HETATM    1  N3  UNL     1      31.240  66.409   8.438  1.00  0.00    -0.268 N 
ATOM      2  H3  UNL     1      30.952  66.986   7.648  1.00  0.00     0.190 HD
HETATM    3  C1  UNL     1      30.317  65.840   9.172  1.00  0.00     0.169 A 
HETATM    4  N4  UNL     1      30.510  65.008  10.305  1.00  0.00    -0.290 N 
ATOM      5  H4  UNL     1      31.410  64.740  10.703  1.00  0.00     0.172 HD
HETATM    6  C2  UNL     1      29.237  64.612  10.791  1.00  0.00     0.327 A 
HETATM    7  O1  UNL     1      28.978  63.868  11.786  1.00  0.00    -0.247 OA
HETATM    8  N5  UNL     1      28.205  65.174   9.990  1.00  0.00    -0.292 N 
ATOM      9  H5  UNL     1      27.199  65.058  10.108  1.00  0.00     0.172 HD
HETATM   10  C3  UNL     1      28.875  65.932   8.991  1.00  0.00     0.149 A 
HETATM   11  N6  UNL     1      28.312  66.625   8.032  1.00  0.00    -0.382 N 
ATOM     12  H61 UNL     1      27.302  66.689   7.906  1.00  0.00     0.157 HD
ATOM     13  H62 UNL     1      28.793  67.169   7.314  1.00  0.00     0.157 HD
ENDROOT
BRANCH   1  14
HETATM   14  N2  UNL     1      32.588  66.260   8.693  1.00  0.00    -0.248 N 
HETATM   15  N1  UNL     1      33.441  66.830   7.925  1.00  0.00    -0.331 N 
ATOM     16  H12 UNL     1      33.110  67.386   7.137  1.00  0.00     0.178 HD
ATOM     17  H11 UNL     1      34.438  66.719   8.113  1.00  0.00     0.178 HD
ATOM     18  H2  UNL     1      32.903  65.700   9.485  1.00  0.00     0.207 HD
ENDBRANCH   1  14
TORSDOF 1
ENDMDL
