MODEL 1
REMARK VINA RESULT: -5.536061219      0.000      0.000
REMARK  1 active torsions:
REMARK  status: ('A' for Active; 'I' for Inactive)
REMARK    1  A    between atoms: C2_2  and  N1_3 
ROOT
HETATM    1  C1  UNL     1      30.848  66.484   9.873  1.00  0.00     0.082 C 
HETATM    2  C2  UNL     1      30.180  65.405   9.032  1.00  0.00     0.277 C 
HETATM    3  N2  UNL     1      30.777  65.447   7.721  1.00  0.00    -0.301 N 
ATOM      4  H2  UNL     1      31.405  64.711   7.399  1.00  0.00     0.167 HD
HETATM    5  C3  UNL     1      30.451  66.567   6.885  1.00  0.00     0.337 C 
HETATM    6  O1  UNL     1      31.299  66.909   5.997  1.00  0.00    -0.246 OA
HETATM    7  N3  UNL     1      29.220  67.255   7.064  1.00  0.00    -0.249 N 
ATOM      8  H3  UNL     1      28.968  68.055   6.482  1.00  0.00     0.192 HD
HETATM    9  N4  UNL     1      28.367  66.790   8.072  1.00  0.00    -0.262 N 
ATOM     10  H4  UNL     1      27.474  67.256   8.231  1.00  0.00     0.190 HD
HETATM   11  C4  UNL     1      28.729  65.676   8.877  1.00  0.00     0.292 C 
HETATM   12  O2  UNL     1      27.850  64.942   9.440  1.00  0.00    -0.267 OA
ENDROOT
BRANCH   2  13
HETATM   13  N1  UNL     1      30.336  64.130   9.677  1.00  0.00    -0.044 N 
ATOM     14  H13 UNL     1      31.314  63.909   9.865  1.00  0.00     0.278 HD
ATOM     15  H12 UNL     1      30.003  64.142  10.641  1.00  0.00     0.278 HD
ATOM     16  H11 UNL     1      29.877  63.409   9.120  1.00  0.00     0.278 HD
ENDBRANCH   2  13
TORSDOF 1
ENDMDL
MODEL 2
REMARK VINA RESULT: -5.187606423      1.936      3.719
REMARK  1 active torsions:
REMARK  status: ('A' for Active; 'I' for Inactive)
REMARK    1  A    between atoms: C2_2  and  N1_3 
ROOT
HETATM    1  C1  UNL     1      29.753  66.979   7.494  1.00  0.00     0.082 C 
HETATM    2  C2  UNL     1      30.914  66.010   7.666  1.00  0.00     0.277 C 
HETATM    3  N2  UNL     1      30.379  64.785   8.207  1.00  0.00    -0.301 N 
ATOM      4  H2  UNL     1      30.311  63.939   7.641  1.00  0.00     0.167 HD
HETATM    5  C3  UNL     1      29.945  64.805   9.575  1.00  0.00     0.337 C 
HETATM    6  O1  UNL     1      29.040  63.977   9.920  1.00  0.00    -0.246 OA
HETATM    7  N3  UNL     1      30.519  65.727  10.491  1.00  0.00    -0.249 N 
ATOM      8  H3  UNL     1      30.226  65.760  11.468  1.00  0.00     0.192 HD
HETATM    9  N4  UNL     1      31.506  66.590   9.998  1.00  0.00    -0.262 N 
ATOM     10  H4  UNL     1      31.943  67.265  10.625  1.00  0.00     0.190 HD
HETATM   11  C4  UNL     1      31.907  66.536   8.636  1.00  0.00     0.292 C 
HETATM   12  O2  UNL     1      33.064  66.921   8.262  1.00  0.00    -0.267 OA
ENDROOT
BRANCH   2  13
HETATM   13  N1  UNL     1      31.573  65.821   6.401  1.00  0.00    -0.044 N 
ATOM     14  H13 UNL     1      31.608  64.839   6.127  1.00  0.00     0.278 HD
ATOM     15  H12 UNL     1      31.016  66.170   5.621  1.00  0.00     0.278 HD
ATOM     16  H11 UNL     1      32.499  66.247   6.434  1.00  0.00     0.278 HD
ENDBRANCH   2  13
TORSDOF 1
ENDMDL
MODEL 3
REMARK VINA RESULT: -5.120494422      1.576      2.831
REMARK  1 active torsions:
REMARK  status: ('A' for Active; 'I' for Inactive)
REMARK    1  A    between atoms: C2_2  and  N1_3 
ROOT
HETATM    1  C1  UNL     1      30.312  65.288   6.422  1.00  0.00     0.082 C 
HETATM    2  C2  UNL     1      29.917  66.305   7.483  1.00  0.00     0.277 C 
HETATM    3  N2  UNL     1      31.081  67.108   7.767  1.00  0.00    -0.301 N 
ATOM      4  H2  UNL     1      31.142  68.080   7.464  1.00  0.00     0.167 HD
HETATM    5  C3  UNL     1      32.150  66.484   8.492  1.00  0.00     0.337 C 
HETATM    6  O1  UNL     1      33.328  66.938   8.317  1.00  0.00    -0.246 OA
HETATM    7  N3  UNL     1      31.878  65.397   9.367  1.00  0.00    -0.249 N 
ATOM      8  H3  UNL     1      32.623  64.937   9.892  1.00  0.00     0.192 HD
HETATM    9  N4  UNL     1      30.545  64.984   9.480  1.00  0.00    -0.262 N 
ATOM     10  H4  UNL     1      30.310  64.208  10.098  1.00  0.00     0.190 HD
HETATM   11  C4  UNL     1      29.516  65.631   8.744  1.00  0.00     0.292 C 
HETATM   12  O2  UNL     1      28.305  65.633   9.144  1.00  0.00    -0.267 OA
ENDROOT
BRANCH   2  13
HETATM   13  N1  UNL     1      28.803  67.082   7.012  1.00  0.00    -0.044 N 
ATOM     14  H13 UNL     1      29.050  67.664   6.211  1.00  0.00     0.278 HD
ATOM     15  H12 UNL     1      28.096  66.505   6.558  1.00  0.00     0.278 HD
ATOM     16  H11 UNL     1      28.419  67.629   7.783  1.00  0.00     0.278 HD
ENDBRANCH   2  13
TORSDOF 1
ENDMDL
MODEL 4
REMARK VINA RESULT: -5.036925033      1.531      1.646
REMARK  1 active torsions:
REMARK  status: ('A' for Active; 'I' for Inactive)
REMARK    1  A    between atoms: C2_2  and  N1_3 
ROOT
HETATM    1  C1  UNL     1      29.352  66.909  11.296  1.00  0.00     0.082 C 
HETATM    2  C2  UNL     1      29.444  65.602  10.521  1.00  0.00     0.277 C 
HETATM    3  N2  UNL     1      30.681  65.624   9.780  1.00  0.00    -0.301 N 
ATOM      4  H2  UNL     1      31.467  65.030  10.042  1.00  0.00     0.167 HD
HETATM    5  C3  UNL     1      30.759  66.515   8.658  1.00  0.00     0.337 C 
HETATM    6  O1  UNL     1      31.912  66.940   8.320  1.00  0.00    -0.246 OA
HETATM    7  N3  UNL     1      29.577  66.895   7.966  1.00  0.00    -0.249 N 
ATOM      8  H3  UNL     1      29.609  67.528   7.166  1.00  0.00     0.192 HD
HETATM    9  N4  UNL     1      28.366  66.365   8.428  1.00  0.00    -0.262 N 
ATOM     10  H4  UNL     1      27.496  66.614   7.958  1.00  0.00     0.190 HD
HETATM   11  C4  UNL     1      28.333  65.485   9.543  1.00  0.00     0.292 C 
HETATM   12  O2  UNL     1      27.395  64.634   9.699  1.00  0.00    -0.267 OA
ENDROOT
BRANCH   2  13
HETATM   13  N1  UNL     1      29.360  64.496  11.436  1.00  0.00    -0.044 N 
ATOM     14  H13 UNL     1      28.833  64.731  12.278  1.00  0.00     0.278 HD
ATOM     15  H12 UNL     1      28.754  63.754  11.088  1.00  0.00     0.278 HD
ATOM     16  H11 UNL     1      30.299  64.159  11.649  1.00  0.00     0.278 HD
ENDBRANCH   2  13
TORSDOF 1
ENDMDL
MODEL 5
REMARK VINA RESULT: -4.960676791      1.987      2.771
REMARK  1 active torsions:
REMARK  status: ('A' for Active; 'I' for Inactive)
REMARK    1  A    between atoms: C2_2  and  N1_3 
ROOT
HETATM    1  C1  UNL     1      29.748  64.660   9.475  1.00  0.00     0.082 C 
HETATM    2  C2  UNL     1      30.196  66.113   9.422  1.00  0.00     0.277 C 
HETATM    3  N2  UNL     1      29.279  66.818   8.560  1.00  0.00    -0.301 N 
ATOM      4  H2  UNL     1      28.603  67.483   8.935  1.00  0.00     0.167 HD
HETATM    5  C3  UNL     1      29.356  66.545   7.154  1.00  0.00     0.337 C 
HETATM    6  O1  UNL     1      28.301  66.715   6.459  1.00  0.00    -0.246 OA
HETATM    7  N3  UNL     1      30.579  66.099   6.580  1.00  0.00    -0.249 N 
ATOM      8  H3  UNL     1      30.656  65.898   5.583  1.00  0.00     0.192 HD
HETATM    9  N4  UNL     1      31.672  65.948   7.442  1.00  0.00    -0.262 N 
ATOM     10  H4  UNL     1      32.566  65.631   7.069  1.00  0.00     0.190 HD
HETATM   11  C4  UNL     1      31.552  66.230   8.829  1.00  0.00     0.292 C 
HETATM   12  O2  UNL     1      32.560  66.568   9.535  1.00  0.00    -0.267 OA
ENDROOT
BRANCH   2  13
HETATM   13  N1  UNL     1      30.236  66.651  10.755  1.00  0.00    -0.044 N 
ATOM     14  H13 UNL     1      30.706  66.025  11.409  1.00  0.00     0.278 HD
ATOM     15  H12 UNL     1      30.873  67.445  10.831  1.00  0.00     0.278 HD
ATOM     16  H11 UNL     1      29.290  66.886  11.055  1.00  0.00     0.278 HD
ENDBRANCH   2  13
TORSDOF 1
ENDMDL
