MODEL 1
REMARK VINA RESULT: -6.050241857      0.000      0.000
REMARK  1 active torsions:
REMARK  status: ('A' for Active; 'I' for Inactive)
REMARK    1  A    between atoms: N1_1  and  C1_4 
ROOT
HETATM    1  C1  UNL     1      32.365  66.444   8.325  1.00  0.00     0.132 A 
HETATM    2  N2  UNL     1      31.982  65.748   9.396  1.00  0.00    -0.304 N 
ATOM      3  H2  UNL     1      32.594  65.496  10.171  1.00  0.00     0.171 HD
HETATM    4  C2  UNL     1      30.667  65.420   9.316  1.00  0.00     0.299 A 
HETATM    5  O1  UNL     1      30.048  64.764  10.195  1.00  0.00    -0.264 OA
HETATM    6  C3  UNL     1      30.212  65.939   8.133  1.00  0.00     0.269 A 
HETATM    7  O2  UNL     1      29.037  65.852   7.685  1.00  0.00    -0.280 OA
HETATM    8  C4  UNL     1      31.251  66.580   7.501  1.00  0.00     0.126 A 
HETATM    9  N3  UNL     1      31.284  67.206   6.374  1.00  0.00    -0.393 N 
ATOM     10  H31 UNL     1      30.467  67.306   5.770  1.00  0.00     0.156 HD
ATOM     11  H32 UNL     1      32.054  67.681   5.904  1.00  0.00     0.156 HD
ENDROOT
BRANCH   1  12
HETATM   12  N1  UNL     1      33.564  66.889   8.130  1.00  0.00    -0.383 N 
ATOM     13  H12 UNL     1      34.450  66.443   8.368  1.00  0.00     0.157 HD
ATOM     14  H11 UNL     1      33.785  67.784   7.694  1.00  0.00     0.157 HD
ENDBRANCH   1  12
TORSDOF 1
ENDMDL
MODEL 2
REMARK VINA RESULT: -6.001029660      0.948      2.452
REMARK  1 active torsions:
REMARK  status: ('A' for Active; 'I' for Inactive)
REMARK    1  A    between atoms: N1_1  and  C1_4 
ROOT
HETATM    1  C1  UNL     1      32.107  66.618   7.945  1.00  0.00     0.132 A 
HETATM    2  N2  UNL     1      31.251  67.112   7.048  1.00  0.00    -0.304 N 
ATOM      3  H2  UNL     1      31.514  67.714   6.269  1.00  0.00     0.171 HD
HETATM    4  C2  UNL     1      29.984  66.704   7.313  1.00  0.00     0.299 A 
HETATM    5  O1  UNL     1      28.980  67.024   6.621  1.00  0.00    -0.264 OA
HETATM    6  C3  UNL     1      30.057  65.917   8.431  1.00  0.00     0.269 A 
HETATM    7  O2  UNL     1      29.091  65.343   9.003  1.00  0.00    -0.280 OA
HETATM    8  C4  UNL     1      31.367  65.850   8.840  1.00  0.00     0.126 A 
HETATM    9  N3  UNL     1      31.900  65.230   9.839  1.00  0.00    -0.393 N 
ATOM     10  H31 UNL     1      31.358  64.667  10.496  1.00  0.00     0.156 HD
ATOM     11  H32 UNL     1      32.872  65.180  10.143  1.00  0.00     0.156 HD
ENDROOT
BRANCH   1  12
HETATM   12  N1  UNL     1      33.381  66.840   7.942  1.00  0.00    -0.383 N 
ATOM     13  H12 UNL     1      34.063  66.594   7.224  1.00  0.00     0.157 HD
ATOM     14  H11 UNL     1      33.888  67.309   8.692  1.00  0.00     0.157 HD
ENDBRANCH   1  12
TORSDOF 1
ENDMDL
MODEL 3
REMARK VINA RESULT: -5.658847987      1.401      1.605
REMARK  1 active torsions:
REMARK  status: ('A' for Active; 'I' for Inactive)
REMARK    1  A    between atoms: N1_1  and  C1_4 
ROOT
HETATM    1  C1  UNL     1      31.760  66.026   9.296  1.00  0.00     0.132 A 
HETATM    2  N2  UNL     1      30.555  65.836   9.835  1.00  0.00    -0.304 N 
ATOM      3  H2  UNL     1      30.390  65.414  10.748  1.00  0.00     0.171 HD
HETATM    4  C2  UNL     1      29.577  66.281   9.005  1.00  0.00     0.299 A 
HETATM    5  O1  UNL     1      28.347  66.223   9.270  1.00  0.00    -0.264 OA
HETATM    6  C3  UNL     1      30.208  66.772   7.894  1.00  0.00     0.269 A 
HETATM    7  O2  UNL     1      29.651  67.279   6.883  1.00  0.00    -0.280 OA
HETATM    8  C4  UNL     1      31.566  66.623   8.053  1.00  0.00     0.126 A 
HETATM    9  N3  UNL     1      32.539  66.941   7.267  1.00  0.00    -0.393 N 
ATOM     10  H31 UNL     1      32.396  67.379   6.356  1.00  0.00     0.156 HD
ATOM     11  H32 UNL     1      33.545  66.831   7.385  1.00  0.00     0.156 HD
ENDROOT
BRANCH   1  12
HETATM   12  N1  UNL     1      32.876  65.699   9.860  1.00  0.00    -0.383 N 
ATOM     13  H12 UNL     1      33.036  65.419  10.829  1.00  0.00     0.157 HD
ATOM     14  H11 UNL     1      33.780  65.679   9.388  1.00  0.00     0.157 HD
ENDBRANCH   1  12
TORSDOF 1
ENDMDL
MODEL 4
REMARK VINA RESULT: -5.578395172      2.102      3.233
REMARK  1 active torsions:
REMARK  status: ('A' for Active; 'I' for Inactive)
REMARK    1  A    between atoms: N1_1  and  C1_4 
ROOT
HETATM    1  C1  UNL     1      30.326  65.506   9.649  1.00  0.00     0.132 A 
HETATM    2  N2  UNL     1      29.448  66.001   8.776  1.00  0.00    -0.304 N 
ATOM      3  H2  UNL     1      28.437  65.882   8.842  1.00  0.00     0.171 HD
HETATM    4  C2  UNL     1      30.079  66.684   7.788  1.00  0.00     0.299 A 
HETATM    5  O1  UNL     1      29.486  67.254   6.833  1.00  0.00    -0.264 OA
HETATM    6  C3  UNL     1      31.418  66.610   8.061  1.00  0.00     0.269 A 
HETATM    7  O2  UNL     1      32.348  67.118   7.379  1.00  0.00    -0.280 OA
HETATM    8  C4  UNL     1      31.595  65.882   9.214  1.00  0.00     0.126 A 
HETATM    9  N3  UNL     1      32.676  65.560   9.841  1.00  0.00    -0.393 N 
ATOM     10  H31 UNL     1      33.605  65.834   9.523  1.00  0.00     0.156 HD
ATOM     11  H32 UNL     1      32.807  65.020  10.696  1.00  0.00     0.156 HD
ENDROOT
BRANCH   1  12
HETATM   12  N1  UNL     1      30.011  64.811  10.693  1.00  0.00    -0.383 N 
ATOM     13  H12 UNL     1      30.543  64.692  11.556  1.00  0.00     0.157 HD
ATOM     14  H11 UNL     1      29.153  64.269  10.790  1.00  0.00     0.157 HD
ENDBRANCH   1  12
TORSDOF 1
ENDMDL
MODEL 5
REMARK VINA RESULT: -5.562559885      0.894      2.364
REMARK  1 active torsions:
REMARK  status: ('A' for Active; 'I' for Inactive)
REMARK    1  A    between atoms: N1_1  and  C1_4 
ROOT
HETATM    1  C1  UNL     1      31.716  66.578   7.976  1.00  0.00     0.132 A 
HETATM    2  N2  UNL     1      30.466  66.685   7.523  1.00  0.00    -0.304 N 
ATOM      3  H2  UNL     1      30.199  67.185   6.675  1.00  0.00     0.171 HD
HETATM    4  C2  UNL     1      29.597  66.039   8.341  1.00  0.00     0.299 A 
HETATM    5  O1  UNL     1      28.353  65.982   8.146  1.00  0.00    -0.264 OA
HETATM    6  C3  UNL     1      30.346  65.504   9.354  1.00  0.00     0.269 A 
HETATM    7  O2  UNL     1      29.912  64.825  10.324  1.00  0.00    -0.280 OA
HETATM    8  C4  UNL     1      31.666  65.827   9.147  1.00  0.00     0.126 A 
HETATM    9  N3  UNL     1      32.715  65.538   9.842  1.00  0.00    -0.393 N 
ATOM     10  H31 UNL     1      32.679  64.988  10.700  1.00  0.00     0.156 HD
ATOM     11  H32 UNL     1      33.694  65.778   9.689  1.00  0.00     0.156 HD
ENDROOT
BRANCH   1  12
HETATM   12  N1  UNL     1      32.752  67.094   7.400  1.00  0.00    -0.383 N 
ATOM     13  H12 UNL     1      33.168  66.841   6.504  1.00  0.00     0.157 HD
ATOM     14  H11 UNL     1      33.311  67.855   7.787  1.00  0.00     0.157 HD
ENDBRANCH   1  12
TORSDOF 1
ENDMDL
