MODEL 1
REMARK VINA RESULT: -6.649139057      0.000      0.000
REMARK  3 active torsions:
REMARK  status: ('A' for Active; 'I' for Inactive)
REMARK    1  A    between atoms: N1_1  and  S1_4 
REMARK    2  A    between atoms: S1_4  and  N2_7 
REMARK       I    between atoms: N2_7  and  C1_9 
REMARK       I    between atoms: C1_9  and  N3_11 
REMARK    3  A    between atoms: N3_11  and  C2_13 
ROOT
HETATM    1  N2  UNL     1      29.193  63.859  11.399  1.00  0.00    -0.218 N 
ATOM      2  H2  UNL     1      29.911  63.842  12.124  1.00  0.00     0.185 HD
HETATM    3  C1  UNL     1      29.386  64.644  10.219  1.00  0.00     0.349 C 
HETATM    4  O3  UNL     1      28.540  64.703   9.303  1.00  0.00    -0.245 OA
HETATM    5  N3  UNL     1      30.574  65.365  10.109  1.00  0.00    -0.138 N 
ATOM      6  H3  UNL     1      31.152  65.434  10.947  1.00  0.00     0.189 HD
ENDROOT
BRANCH   1   7
HETATM    7  S1  UNL     1      27.747  62.941  11.592  1.00  0.00     0.320 S 
HETATM    8  O1  UNL     1      27.756  61.864  10.523  1.00  0.00    -0.183 OA
HETATM    9  O2  UNL     1      27.699  62.324  12.959  1.00  0.00    -0.183 OA
BRANCH   7  10
HETATM   10  N1  UNL     1      26.328  63.877  11.374  1.00  0.00    -0.311 N 
ATOM     11  H12 UNL     1      25.580  63.983  12.059  1.00  0.00     0.170 HD
ATOM     12  H11 UNL     1      26.375  64.297  10.446  1.00  0.00     0.170 HD
ENDBRANCH   7  10
ENDBRANCH   1   7
BRANCH   5  13
HETATM   13  C2  UNL     1      31.009  65.949   9.053  1.00  0.00     0.712 A 
HETATM   14  N4  UNL     1      32.284  66.107   8.669  1.00  0.00    -0.117 N 
HETATM   15  N5  UNL     1      32.293  66.772   7.517  1.00  0.00     0.006 NA
ATOM     16  H4  UNL     1      33.107  65.775   9.175  1.00  0.00     0.202 HD
HETATM   17  N6  UNL     1      31.054  67.045   7.148  1.00  0.00     0.006 NA
HETATM   18  N7  UNL     1      30.274  66.539   8.090  1.00  0.00    -0.117 N 
ATOM     19  H7  UNL     1      29.255  66.590   8.087  1.00  0.00     0.202 HD
ENDBRANCH   5  13
TORSDOF 3
ENDMDL
MODEL 2
REMARK VINA RESULT: -6.626626301      1.020      1.639
REMARK  3 active torsions:
REMARK  status: ('A' for Active; 'I' for Inactive)
REMARK    1  A    between atoms: N1_1  and  S1_4 
REMARK    2  A    between atoms: S1_4  and  N2_7 
REMARK       I    between atoms: N2_7  and  C1_9 
REMARK       I    between atoms: C1_9  and  N3_11 
REMARK    3  A    between atoms: N3_11  and  C2_13 
ROOT
HETATM    1  N2  UNL     1      29.277  63.962  11.518  1.00  0.00    -0.218 N 
ATOM      2  H2  UNL     1      30.004  64.037  12.229  1.00  0.00     0.185 HD
HETATM    3  C1  UNL     1      29.398  64.686  10.290  1.00  0.00     0.349 C 
HETATM    4  O3  UNL     1      28.537  64.633   9.389  1.00  0.00    -0.245 OA
HETATM    5  N3  UNL     1      30.533  65.477  10.117  1.00  0.00    -0.138 N 
ATOM      6  H3  UNL     1      31.117  65.636  10.938  1.00  0.00     0.189 HD
ENDROOT
BRANCH   1   7
HETATM    7  S1  UNL     1      27.899  62.962  11.792  1.00  0.00     0.320 S 
HETATM    8  O1  UNL     1      26.696  63.882  11.902  1.00  0.00    -0.183 OA
HETATM    9  O2  UNL     1      27.720  61.998  10.657  1.00  0.00    -0.183 OA
BRANCH   7  10
HETATM   10  N1  UNL     1      28.002  62.067  13.249  1.00  0.00    -0.311 N 
ATOM     11  H12 UNL     1      27.540  62.310  14.125  1.00  0.00     0.170 HD
ATOM     12  H11 UNL     1      28.603  61.262  13.075  1.00  0.00     0.170 HD
ENDBRANCH   7  10
ENDBRANCH   1   7
BRANCH   5  13
HETATM   13  C2  UNL     1      30.911  66.025   9.020  1.00  0.00     0.712 A 
HETATM   14  N4  UNL     1      30.139  66.556   8.060  1.00  0.00    -0.117 N 
HETATM   15  N5  UNL     1      30.931  67.011   7.094  1.00  0.00     0.006 NA
ATOM     16  H4  UNL     1      29.120  66.603   8.070  1.00  0.00     0.202 HD
HETATM   17  N6  UNL     1      32.195  66.787   7.407  1.00  0.00     0.006 NA
HETATM   18  N7  UNL     1      32.177  66.185   8.585  1.00  0.00    -0.117 N 
ATOM     19  H7  UNL     1      33.007  65.882   9.094  1.00  0.00     0.202 HD
ENDBRANCH   5  13
TORSDOF 3
ENDMDL
MODEL 3
REMARK VINA RESULT: -6.537847199      1.246      1.940
REMARK  3 active torsions:
REMARK  status: ('A' for Active; 'I' for Inactive)
REMARK    1  A    between atoms: N1_1  and  S1_4 
REMARK    2  A    between atoms: S1_4  and  N2_7 
REMARK       I    between atoms: N2_7  and  C1_9 
REMARK       I    between atoms: C1_9  and  N3_11 
REMARK    3  A    between atoms: N3_11  and  C2_13 
ROOT
HETATM    1  N2  UNL     1      27.925  64.718  10.879  1.00  0.00    -0.218 N 
ATOM      2  H2  UNL     1      27.182  65.416  10.852  1.00  0.00     0.185 HD
HETATM    3  C1  UNL     1      29.035  64.818   9.982  1.00  0.00     0.349 C 
HETATM    4  O3  UNL     1      29.969  63.991   9.971  1.00  0.00    -0.245 OA
HETATM    5  N3  UNL     1      29.053  65.893   9.094  1.00  0.00    -0.138 N 
ATOM      6  H3  UNL     1      28.194  66.438   9.010  1.00  0.00     0.189 HD
ENDROOT
BRANCH   1   7
HETATM    7  S1  UNL     1      27.847  63.415  12.005  1.00  0.00     0.320 S 
HETATM    8  O1  UNL     1      26.682  63.700  12.936  1.00  0.00    -0.183 OA
HETATM    9  O2  UNL     1      27.638  62.115  11.285  1.00  0.00    -0.183 OA
BRANCH   7  10
HETATM   10  N1  UNL     1      29.258  63.277  12.966  1.00  0.00    -0.311 N 
ATOM     11  H12 UNL     1      30.157  63.712  12.761  1.00  0.00     0.170 HD
ATOM     12  H11 UNL     1      29.029  62.688  13.767  1.00  0.00     0.170 HD
ENDBRANCH   7  10
ENDBRANCH   1   7
BRANCH   5  13
HETATM   13  C2  UNL     1      30.048  66.259   8.371  1.00  0.00     0.712 A 
HETATM   14  N4  UNL     1      30.013  66.828   7.157  1.00  0.00    -0.117 N 
HETATM   15  N5  UNL     1      31.266  67.042   6.763  1.00  0.00     0.006 NA
ATOM     16  H4  UNL     1      29.172  67.056   6.627  1.00  0.00     0.202 HD
HETATM   17  N6  UNL     1      32.106  66.626   7.694  1.00  0.00     0.006 NA
HETATM   18  N7  UNL     1      31.356  66.150   8.674  1.00  0.00    -0.117 N 
ATOM     19  H7  UNL     1      31.720  65.753   9.541  1.00  0.00     0.202 HD
ENDBRANCH   5  13
TORSDOF 3
ENDMDL
MODEL 4
REMARK VINA RESULT: -6.536749258      0.237      1.013
REMARK  3 active torsions:
REMARK  status: ('A' for Active; 'I' for Inactive)
REMARK    1  A    between atoms: N1_1  and  S1_4 
REMARK    2  A    between atoms: S1_4  and  N2_7 
REMARK       I    between atoms: N2_7  and  C1_9 
REMARK       I    between atoms: C1_9  and  N3_11 
REMARK    3  A    between atoms: N3_11  and  C2_13 
ROOT
HETATM    1  N2  UNL     1      28.980  63.724  11.354  1.00  0.00    -0.218 N 
ATOM      2  H2  UNL     1      29.707  63.636  12.063  1.00  0.00     0.185 HD
HETATM    3  C1  UNL     1      29.186  64.565  10.215  1.00  0.00     0.349 C 
HETATM    4  O3  UNL     1      28.329  64.711   9.321  1.00  0.00    -0.245 OA
HETATM    5  N3  UNL     1      30.402  65.242  10.125  1.00  0.00    -0.138 N 
ATOM      6  H3  UNL     1      30.996  65.241  10.955  1.00  0.00     0.189 HD
ENDROOT
BRANCH   1   7
HETATM    7  S1  UNL     1      27.500  62.856  11.522  1.00  0.00     0.320 S 
HETATM    8  O1  UNL     1      27.558  61.684  10.560  1.00  0.00    -0.183 OA
HETATM    9  O2  UNL     1      27.338  62.371  12.933  1.00  0.00    -0.183 OA
BRANCH   7  10
HETATM   10  N1  UNL     1      26.126  63.795  11.114  1.00  0.00    -0.311 N 
ATOM     11  H12 UNL     1      25.336  63.473  10.554  1.00  0.00     0.170 HD
ATOM     12  H11 UNL     1      26.248  64.718  11.530  1.00  0.00     0.170 HD
ENDBRANCH   7  10
ENDBRANCH   1   7
BRANCH   5  13
HETATM   13  C2  UNL     1      30.843  65.867   9.094  1.00  0.00     0.712 A 
HETATM   14  N4  UNL     1      30.130  66.508   8.157  1.00  0.00    -0.117 N 
HETATM   15  N5  UNL     1      30.976  67.013   7.264  1.00  0.00     0.006 NA
ATOM     16  H4  UNL     1      29.113  66.593   8.133  1.00  0.00     0.202 HD
HETATM   17  N6  UNL     1      32.218  66.714   7.603  1.00  0.00     0.006 NA
HETATM   18  N7  UNL     1      32.130  66.014   8.723  1.00  0.00    -0.117 N 
ATOM     19  H7  UNL     1      32.929  65.637   9.234  1.00  0.00     0.202 HD
ENDBRANCH   5  13
TORSDOF 3
ENDMDL
MODEL 5
REMARK VINA RESULT: -6.501902457      1.077      1.540
REMARK  3 active torsions:
REMARK  status: ('A' for Active; 'I' for Inactive)
REMARK    1  A    between atoms: N1_1  and  S1_4 
REMARK    2  A    between atoms: S1_4  and  N2_7 
REMARK       I    between atoms: N2_7  and  C1_9 
REMARK       I    between atoms: C1_9  and  N3_11 
REMARK    3  A    between atoms: N3_11  and  C2_13 
ROOT
HETATM    1  N2  UNL     1      29.145  63.824  11.687  1.00  0.00    -0.218 N 
ATOM      2  H2  UNL     1      29.902  63.882  12.368  1.00  0.00     0.185 HD
HETATM    3  C1  UNL     1      29.218  64.568  10.468  1.00  0.00     0.349 C 
HETATM    4  O3  UNL     1      28.319  64.537   9.604  1.00  0.00    -0.245 OA
HETATM    5  N3  UNL     1      30.351  65.355  10.259  1.00  0.00    -0.138 N 
ATOM      6  H3  UNL     1      30.971  65.495  11.057  1.00  0.00     0.189 HD
ENDROOT
BRANCH   1   7
HETATM    7  S1  UNL     1      27.772  62.829  12.004  1.00  0.00     0.320 S 
HETATM    8  O1  UNL     1      28.115  61.968  13.206  1.00  0.00    -0.183 OA
HETATM    9  O2  UNL     1      26.569  63.678  12.291  1.00  0.00    -0.183 OA
BRANCH   7  10
HETATM   10  N1  UNL     1      27.394  61.780  10.704  1.00  0.00    -0.311 N 
ATOM     11  H12 UNL     1      27.305  60.766  10.771  1.00  0.00     0.170 HD
ATOM     12  H11 UNL     1      27.280  62.352   9.868  1.00  0.00     0.170 HD
ENDBRANCH   7  10
ENDBRANCH   1   7
BRANCH   5  13
HETATM   13  C2  UNL     1      30.685  65.918   9.156  1.00  0.00     0.712 A 
HETATM   14  N4  UNL     1      29.874  66.427   8.217  1.00  0.00    -0.117 N 
HETATM   15  N5  UNL     1      30.629  66.912   7.234  1.00  0.00     0.006 NA
ATOM     16  H4  UNL     1      28.854  66.441   8.250  1.00  0.00     0.202 HD
HETATM   17  N6  UNL     1      31.906  66.728   7.517  1.00  0.00     0.006 NA
HETATM   18  N7  UNL     1      31.935  66.121   8.693  1.00  0.00    -0.117 N 
ATOM     19  H7  UNL     1      32.786  65.845   9.182  1.00  0.00     0.202 HD
ENDBRANCH   5  13
TORSDOF 3
ENDMDL
