MODEL 1
REMARK VINA RESULT: -5.616857247      0.000      0.000
REMARK  2 active torsions:
REMARK  status: ('A' for Active; 'I' for Inactive)
REMARK    1  A    between atoms: N1_1  and  N2_4 
REMARK    2  A    between atoms: N2_4  and  C1_6 
ROOT
HETATM    1  C1  UNL     1      30.560  65.743   9.285  1.00  0.00     0.704 A 
HETATM    2  N3  UNL     1      29.601  66.177   8.462  1.00  0.00    -0.139 N 
ATOM      3  H3  UNL     1      28.633  65.923   8.661  1.00  0.00     0.189 HD
HETATM    4  C2  UNL     1      29.858  66.936   7.380  1.00  0.00     0.342 A 
HETATM    5  O1  UNL     1      28.942  67.337   6.614  1.00  0.00    -0.246 OA
HETATM    6  N4  UNL     1      31.134  67.266   7.122  1.00  0.00    -0.260 N 
ATOM      7  H4  UNL     1      31.360  67.839   6.310  1.00  0.00     0.175 HD
HETATM    8  C3  UNL     1      32.103  66.841   7.931  1.00  0.00     0.342 A 
HETATM    9  O2  UNL     1      33.297  67.150   7.692  1.00  0.00    -0.246 OA
HETATM   10  N5  UNL     1      31.827  66.076   9.021  1.00  0.00    -0.139 N 
ATOM     11  H5  UNL     1      32.580  65.759   9.631  1.00  0.00     0.189 HD
ENDROOT
BRANCH   1  12
HETATM   12  N2  UNL     1      30.286  65.028  10.299  1.00  0.00    -0.138 N 
ATOM     13  H2  UNL     1      30.977  64.987  11.048  1.00  0.00     0.205 HD
BRANCH  12  14
HETATM   14  N1  UNL     1      29.117  64.301  10.464  1.00  0.00    -0.331 N 
ATOM     15  H12 UNL     1      28.286  64.830  10.726  1.00  0.00     0.177 HD
ATOM     16  H11 UNL     1      29.036  63.292  10.342  1.00  0.00     0.177 HD
ENDBRANCH  12  14
ENDBRANCH   1  12
TORSDOF 2
ENDMDL
MODEL 2
REMARK VINA RESULT: -5.576488632      0.033      2.482
REMARK  2 active torsions:
REMARK  status: ('A' for Active; 'I' for Inactive)
REMARK    1  A    between atoms: N1_1  and  N2_4 
REMARK    2  A    between atoms: N2_4  and  C1_6 
ROOT
HETATM    1  C1  UNL     1      30.538  65.766   9.292  1.00  0.00     0.704 A 
HETATM    2  N3  UNL     1      31.799  66.105   9.010  1.00  0.00    -0.139 N 
ATOM      3  H3  UNL     1      32.542  65.789   9.633  1.00  0.00     0.189 HD
HETATM    4  C2  UNL     1      32.131  66.847   7.936  1.00  0.00     0.342 A 
HETATM    5  O1  UNL     1      33.326  67.157   7.684  1.00  0.00    -0.246 OA
HETATM    6  N4  UNL     1      31.149  67.261   7.120  1.00  0.00    -0.260 N 
ATOM      7  H4  UNL     1      31.369  67.824   6.299  1.00  0.00     0.175 HD
HETATM    8  C3  UNL     1      29.886  66.933   7.387  1.00  0.00     0.342 A 
HETATM    9  O2  UNL     1      28.966  67.319   6.623  1.00  0.00    -0.246 OA
HETATM   10  N5  UNL     1      29.566  66.182   8.475  1.00  0.00    -0.139 N 
ATOM     11  H5  UNL     1      28.595  65.940   8.666  1.00  0.00     0.189 HD
ENDROOT
BRANCH   1  12
HETATM   12  N2  UNL     1      30.256  65.065  10.314  1.00  0.00    -0.138 N 
ATOM     13  H2  UNL     1      30.917  65.078  11.091  1.00  0.00     0.205 HD
BRANCH  12  14
HETATM   14  N1  UNL     1      29.119  64.284  10.451  1.00  0.00    -0.331 N 
ATOM     15  H12 UNL     1      29.267  63.280  10.550  1.00  0.00     0.177 HD
ATOM     16  H11 UNL     1      28.164  64.641  10.459  1.00  0.00     0.177 HD
ENDBRANCH  12  14
ENDBRANCH   1  12
TORSDOF 2
ENDMDL
MODEL 3
REMARK VINA RESULT: -5.566659466      2.166      3.712
REMARK  2 active torsions:
REMARK  status: ('A' for Active; 'I' for Inactive)
REMARK    1  A    between atoms: N1_1  and  N2_4 
REMARK    2  A    between atoms: N2_4  and  C1_6 
ROOT
HETATM    1  C1  UNL     1      31.283  67.002   7.418  1.00  0.00     0.704 A 
HETATM    2  N3  UNL     1      31.018  66.779   8.709  1.00  0.00    -0.139 N 
ATOM      3  H3  UNL     1      31.798  66.688   9.360  1.00  0.00     0.189 HD
HETATM    4  C2  UNL     1      29.764  66.670   9.187  1.00  0.00     0.342 A 
HETATM    5  O1  UNL     1      29.532  66.460  10.407  1.00  0.00    -0.246 OA
HETATM    6  N4  UNL     1      28.742  66.791   8.325  1.00  0.00    -0.260 N 
ATOM      7  H4  UNL     1      27.781  66.713   8.658  1.00  0.00     0.175 HD
HETATM    8  C3  UNL     1      28.987  67.012   7.035  1.00  0.00     0.342 A 
HETATM    9  O2  UNL     1      28.031  67.125   6.228  1.00  0.00    -0.246 OA
HETATM   10  N5  UNL     1      30.259  67.120   6.567  1.00  0.00    -0.139 N 
ATOM     11  H5  UNL     1      30.431  67.290   5.577  1.00  0.00     0.189 HD
ENDROOT
BRANCH   1  12
HETATM   12  N2  UNL     1      32.478  67.100   6.997  1.00  0.00    -0.138 N 
ATOM     13  H2  UNL     1      32.619  67.494   6.067  1.00  0.00     0.205 HD
BRANCH  12  14
HETATM   14  N1  UNL     1      33.603  66.712   7.707  1.00  0.00    -0.331 N 
ATOM     15  H12 UNL     1      33.442  66.319   8.634  1.00  0.00     0.177 HD
ATOM     16  H11 UNL     1      34.562  66.791   7.370  1.00  0.00     0.177 HD
ENDBRANCH  12  14
ENDBRANCH   1  12
TORSDOF 2
ENDMDL
MODEL 4
REMARK VINA RESULT: -5.550659589      1.999      3.262
REMARK  2 active torsions:
REMARK  status: ('A' for Active; 'I' for Inactive)
REMARK    1  A    between atoms: N1_1  and  N2_4 
REMARK    2  A    between atoms: N2_4  and  C1_6 
ROOT
HETATM    1  C1  UNL     1      31.590  66.282   8.856  1.00  0.00     0.704 A 
HETATM    2  N3  UNL     1      30.716  66.837   8.012  1.00  0.00    -0.139 N 
ATOM      3  H3  UNL     1      31.066  67.465   7.288  1.00  0.00     0.189 HD
HETATM    4  C2  UNL     1      29.392  66.602   8.077  1.00  0.00     0.342 A 
HETATM    5  O1  UNL     1      28.581  67.133   7.273  1.00  0.00    -0.246 OA
HETATM    6  N4  UNL     1      28.937  65.775   9.032  1.00  0.00    -0.260 N 
ATOM      7  H4  UNL     1      27.940  65.578   9.106  1.00  0.00     0.175 HD
HETATM    8  C3  UNL     1      29.795  65.214   9.882  1.00  0.00     0.342 A 
HETATM    9  O2  UNL     1      29.371  64.439  10.777  1.00  0.00    -0.246 OA
HETATM   10  N5  UNL     1      31.130  65.460   9.804  1.00  0.00    -0.139 N 
ATOM     11  H5  UNL     1      31.774  65.022  10.463  1.00  0.00     0.189 HD
ENDROOT
BRANCH   1  12
HETATM   12  N2  UNL     1      32.835  66.523   8.770  1.00  0.00    -0.138 N 
ATOM     13  H2  UNL     1      33.406  66.353   9.597  1.00  0.00     0.205 HD
BRANCH  12  14
HETATM   14  N1  UNL     1      33.474  66.999   7.635  1.00  0.00    -0.331 N 
ATOM     15  H12 UNL     1      33.185  66.591   6.746  1.00  0.00     0.177 HD
ATOM     16  H11 UNL     1      34.198  67.717   7.631  1.00  0.00     0.177 HD
ENDBRANCH  12  14
ENDBRANCH   1  12
TORSDOF 2
ENDMDL
MODEL 5
REMARK VINA RESULT: -5.543078573      2.163      3.214
REMARK  2 active torsions:
REMARK  status: ('A' for Active; 'I' for Inactive)
REMARK    1  A    between atoms: N1_1  and  N2_4 
REMARK    2  A    between atoms: N2_4  and  C1_6 
ROOT
HETATM    1  C1  UNL     1      31.285  67.006   7.420  1.00  0.00     0.704 A 
HETATM    2  N3  UNL     1      30.244  67.123   6.590  1.00  0.00    -0.139 N 
ATOM      3  H3  UNL     1      30.423  67.298   5.601  1.00  0.00     0.189 HD
HETATM    4  C2  UNL     1      28.967  67.019   7.005  1.00  0.00     0.342 A 
HETATM    5  O1  UNL     1      27.997  67.131   6.210  1.00  0.00    -0.246 OA
HETATM    6  N4  UNL     1      28.738  66.790   8.308  1.00  0.00    -0.260 N 
ATOM      7  H4  UNL     1      27.781  66.706   8.652  1.00  0.00     0.175 HD
HETATM    8  C3  UNL     1      29.764  66.672   9.149  1.00  0.00     0.342 A 
HETATM    9  O2  UNL     1      29.550  66.457  10.368  1.00  0.00    -0.246 OA
HETATM   10  N5  UNL     1      31.048  66.778   8.715  1.00  0.00    -0.139 N 
ATOM     11  H5  UNL     1      31.823  66.685   9.371  1.00  0.00     0.189 HD
ENDROOT
BRANCH   1  12
HETATM   12  N2  UNL     1      32.479  67.109   6.998  1.00  0.00    -0.138 N 
ATOM     13  H2  UNL     1      32.620  67.520   6.075  1.00  0.00     0.205 HD
BRANCH  12  14
HETATM   14  N1  UNL     1      33.605  66.704   7.697  1.00  0.00    -0.331 N 
ATOM     15  H12 UNL     1      33.935  65.755   7.518  1.00  0.00     0.177 HD
ATOM     16  H11 UNL     1      34.116  67.280   8.366  1.00  0.00     0.177 HD
ENDBRANCH  12  14
ENDBRANCH   1  12
TORSDOF 2
ENDMDL
