MODEL 1
REMARK VINA RESULT: -5.572245812      0.000      0.000
REMARK  3 active torsions:
REMARK  status: ('A' for Active; 'I' for Inactive)
REMARK    1  A    between atoms: N1_1  and  N2_4 
REMARK    2  A    between atoms: N2_4  and  N3_5 
REMARK    3  A    between atoms: N2_4  and  N4_8 
ROOT
HETATM    1  N4  UNL     1      31.086  66.856   8.768  1.00  0.00    -0.193 N 
HETATM    2  C1  UNL     1      30.216  66.608   9.852  1.00  0.00     0.193 C 
HETATM    3  C2  UNL     1      28.948  65.896   9.502  1.00  0.00     0.148 C 
HETATM    4  N5  UNL     1      28.297  66.662   8.441  1.00  0.00    -0.340 N 
ATOM      5  H5  UNL     1      27.326  66.971   8.496  1.00  0.00     0.164 HD
HETATM    6  C3  UNL     1      29.142  66.941   7.317  1.00  0.00     0.336 C 
HETATM    7  O1  UNL     1      28.601  67.272   6.233  1.00  0.00    -0.246 OA
HETATM    8  N6  UNL     1      30.526  66.820   7.515  1.00  0.00    -0.232 N 
ATOM      9  H6  UNL     1      31.134  66.703   6.705  1.00  0.00     0.193 HD
ENDROOT
BRANCH   1  10
HETATM   10  N2  UNL     1      32.359  66.440   8.857  1.00  0.00    -0.127 N 
BRANCH  10  11
HETATM   11  N1  UNL     1      32.684  65.479   9.763  1.00  0.00    -0.308 N 
ATOM     12  H12 UNL     1      33.629  65.095   9.767  1.00  0.00     0.180 HD
ATOM     13  H11 UNL     1      32.069  65.329  10.563  1.00  0.00     0.180 HD
ENDBRANCH  10  11
BRANCH  10  14
HETATM   14  N3  UNL     1      33.231  66.724   7.869  1.00  0.00    -0.308 N 
ATOM     15  H32 UNL     1      34.220  66.853   8.084  1.00  0.00     0.180 HD
ATOM     16  H31 UNL     1      32.870  67.041   6.969  1.00  0.00     0.180 HD
ENDBRANCH  10  14
ENDBRANCH   1  10
TORSDOF 3
ENDMDL
MODEL 2
REMARK VINA RESULT: -5.492568437      0.109      1.047
REMARK  3 active torsions:
REMARK  status: ('A' for Active; 'I' for Inactive)
REMARK    1  A    between atoms: N1_1  and  N2_4 
REMARK    2  A    between atoms: N2_4  and  N3_5 
REMARK    3  A    between atoms: N2_4  and  N4_8 
ROOT
HETATM    1  N4  UNL     1      31.074  66.808   8.689  1.00  0.00    -0.193 N 
HETATM    2  C1  UNL     1      30.230  66.603   9.803  1.00  0.00     0.193 C 
HETATM    3  C2  UNL     1      28.928  65.933   9.499  1.00  0.00     0.148 C 
HETATM    4  N5  UNL     1      28.272  66.709   8.449  1.00  0.00    -0.340 N 
ATOM      5  H5  UNL     1      27.314  67.052   8.529  1.00  0.00     0.164 HD
HETATM    6  C3  UNL     1      29.092  66.945   7.297  1.00  0.00     0.336 C 
HETATM    7  O1  UNL     1      28.530  67.282   6.226  1.00  0.00    -0.246 OA
HETATM    8  N6  UNL     1      30.476  66.778   7.454  1.00  0.00    -0.232 N 
ATOM      9  H6  UNL     1      31.055  66.631   6.628  1.00  0.00     0.193 HD
ENDROOT
BRANCH   1  10
HETATM   10  N2  UNL     1      32.334  66.349   8.745  1.00  0.00    -0.127 N 
BRANCH  10  11
HETATM   11  N1  UNL     1      33.291  66.933   7.976  1.00  0.00    -0.308 N 
ATOM     12  H12 UNL     1      34.150  66.422   7.772  1.00  0.00     0.180 HD
ATOM     13  H11 UNL     1      33.045  67.756   7.425  1.00  0.00     0.180 HD
ENDBRANCH  10  11
BRANCH  10  14
HETATM   14  N3  UNL     1      32.716  65.550   9.762  1.00  0.00    -0.308 N 
ATOM     15  H32 UNL     1      32.662  64.536   9.662  1.00  0.00     0.180 HD
ATOM     16  H31 UNL     1      32.826  65.955  10.692  1.00  0.00     0.180 HD
ENDBRANCH  10  14
ENDBRANCH   1  10
TORSDOF 3
ENDMDL
MODEL 3
REMARK VINA RESULT: -5.344936965      1.230      1.366
REMARK  3 active torsions:
REMARK  status: ('A' for Active; 'I' for Inactive)
REMARK    1  A    between atoms: N1_1  and  N2_4 
REMARK    2  A    between atoms: N2_4  and  N3_5 
REMARK    3  A    between atoms: N2_4  and  N4_8 
ROOT
HETATM    1  N4  UNL     1      31.220  66.942   7.960  1.00  0.00    -0.193 N 
HETATM    2  C1  UNL     1      31.101  66.481   9.289  1.00  0.00     0.193 C 
HETATM    3  C2  UNL     1      30.007  65.488   9.523  1.00  0.00     0.148 C 
HETATM    4  N5  UNL     1      28.765  66.085   9.038  1.00  0.00    -0.340 N 
ATOM      5  H5  UNL     1      27.921  66.150   9.607  1.00  0.00     0.164 HD
HETATM    6  C3  UNL     1      28.837  66.571   7.690  1.00  0.00     0.336 C 
HETATM    7  O1  UNL     1      27.762  66.773   7.073  1.00  0.00    -0.246 OA
HETATM    8  N6  UNL     1      30.117  66.785   7.158  1.00  0.00    -0.232 N 
ATOM      9  H6  UNL     1      30.232  66.827   6.145  1.00  0.00     0.193 HD
ENDROOT
BRANCH   1  10
HETATM   10  N2  UNL     1      32.412  66.844   7.350  1.00  0.00    -0.127 N 
BRANCH  10  11
HETATM   11  N1  UNL     1      33.546  67.079   8.062  1.00  0.00    -0.308 N 
ATOM     12  H12 UNL     1      34.289  66.380   8.063  1.00  0.00     0.180 HD
ATOM     13  H11 UNL     1      33.738  68.028   8.383  1.00  0.00     0.180 HD
ENDBRANCH  10  11
BRANCH  10  14
HETATM   14  N3  UNL     1      32.509  66.223   6.158  1.00  0.00    -0.308 N 
ATOM     15  H32 UNL     1      33.072  66.634   5.413  1.00  0.00     0.180 HD
ATOM     16  H31 UNL     1      31.841  65.486   5.931  1.00  0.00     0.180 HD
ENDBRANCH  10  14
ENDBRANCH   1  10
TORSDOF 3
ENDMDL
MODEL 4
REMARK VINA RESULT: -5.287592582      1.529      2.060
REMARK  3 active torsions:
REMARK  status: ('A' for Active; 'I' for Inactive)
REMARK    1  A    between atoms: N1_1  and  N2_4 
REMARK    2  A    between atoms: N2_4  and  N3_5 
REMARK    3  A    between atoms: N2_4  and  N4_8 
ROOT
HETATM    1  N4  UNL     1      30.842  66.252   8.262  1.00  0.00    -0.193 N 
HETATM    2  C1  UNL     1      30.303  66.225   6.957  1.00  0.00     0.193 C 
HETATM    3  C2  UNL     1      29.078  67.059   6.757  1.00  0.00     0.148 C 
HETATM    4  N5  UNL     1      28.101  66.647   7.762  1.00  0.00    -0.340 N 
ATOM      5  H5  UNL     1      27.145  66.376   7.528  1.00  0.00     0.164 HD
HETATM    6  C3  UNL     1      28.603  66.656   9.105  1.00  0.00     0.336 C 
HETATM    7  O1  UNL     1      27.775  66.663  10.049  1.00  0.00    -0.246 OA
HETATM    8  N6  UNL     1      29.997  66.659   9.264  1.00  0.00    -0.232 N 
ATOM      9  H6  UNL     1      30.394  66.971  10.150  1.00  0.00     0.193 HD
ENDROOT
BRANCH   1  10
HETATM   10  N2  UNL     1      32.136  66.573   8.417  1.00  0.00    -0.127 N 
BRANCH  10  11
HETATM   11  N1  UNL     1      32.819  66.090   9.489  1.00  0.00    -0.308 N 
ATOM     12  H12 UNL     1      32.842  66.633  10.353  1.00  0.00     0.180 HD
ATOM     13  H11 UNL     1      33.091  65.107   9.497  1.00  0.00     0.180 HD
ENDBRANCH  10  11
BRANCH  10  14
HETATM   14  N3  UNL     1      32.831  67.091   7.384  1.00  0.00    -0.308 N 
ATOM     15  H32 UNL     1      33.058  66.507   6.578  1.00  0.00     0.180 HD
ATOM     16  H31 UNL     1      33.323  67.974   7.515  1.00  0.00     0.180 HD
ENDBRANCH  10  14
ENDBRANCH   1  10
TORSDOF 3
ENDMDL
MODEL 5
REMARK VINA RESULT: -5.150485719      2.064      2.609
REMARK  3 active torsions:
REMARK  status: ('A' for Active; 'I' for Inactive)
REMARK    1  A    between atoms: N1_1  and  N2_4 
REMARK    2  A    between atoms: N2_4  and  N3_5 
REMARK    3  A    between atoms: N2_4  and  N4_8 
ROOT
HETATM    1  N4  UNL     1      30.820  66.190   7.830  1.00  0.00    -0.193 N 
HETATM    2  C1  UNL     1      29.540  66.572   7.372  1.00  0.00     0.193 C 
HETATM    3  C2  UNL     1      28.549  66.893   8.445  1.00  0.00     0.148 C 
HETATM    4  N5  UNL     1      28.488  65.741   9.341  1.00  0.00    -0.340 N 
ATOM      5  H5  UNL     1      27.613  65.281   9.595  1.00  0.00     0.164 HD
HETATM    6  C3  UNL     1      29.766  65.312   9.832  1.00  0.00     0.336 C 
HETATM    7  O1  UNL     1      29.796  64.581  10.853  1.00  0.00    -0.246 OA
HETATM    8  N6  UNL     1      30.898  65.748   9.128  1.00  0.00    -0.232 N 
ATOM      9  H6  UNL     1      31.805  65.737   9.593  1.00  0.00     0.193 HD
ENDROOT
BRANCH   1  10
HETATM   10  N2  UNL     1      31.893  66.849   7.367  1.00  0.00    -0.127 N 
BRANCH  10  11
HETATM   11  N1  UNL     1      33.110  66.620   7.928  1.00  0.00    -0.308 N 
ATOM     12  H12 UNL     1      33.228  65.825   8.556  1.00  0.00     0.180 HD
ATOM     13  H11 UNL     1      33.928  67.089   7.539  1.00  0.00     0.180 HD
ENDBRANCH  10  11
BRANCH  10  14
HETATM   14  N3  UNL     1      31.834  67.479   6.176  1.00  0.00    -0.308 N 
ATOM     15  H32 UNL     1      32.613  67.405   5.521  1.00  0.00     0.180 HD
ATOM     16  H31 UNL     1      31.133  68.207   6.038  1.00  0.00     0.180 HD
ENDBRANCH  10  14
ENDBRANCH   1  10
TORSDOF 3
ENDMDL
