MODEL 1
REMARK VINA RESULT: -6.182185351      0.000      0.000
REMARK  3 active torsions:
REMARK  status: ('A' for Active; 'I' for Inactive)
REMARK    1  A    between atoms: N1_1  and  C1_5 
REMARK    2  A    between atoms: C1_5  and  N2_6 
REMARK    3  A    between atoms: C1_5  and  C2_10 
REMARK       I    between atoms: C2_10  and  N3_12 
ROOT
HETATM    1  C2  UNL     1      30.858  66.473   7.998  1.00  0.00     0.282 C 
HETATM    2  O1  UNL     1      29.858  67.062   7.554  1.00  0.00    -0.269 OA
HETATM    3  N3  UNL     1      30.754  65.430   8.956  1.00  0.00    -0.296 N 
ATOM      4  H3  UNL     1      31.511  64.748   9.008  1.00  0.00     0.172 HD
HETATM    5  C3  UNL     1      29.768  65.295   9.758  1.00  0.00     0.177 C 
HETATM    6  N4  UNL     1      29.695  64.230  10.712  1.00  0.00    -0.361 N 
ATOM      7  H4  UNL     1      30.456  63.593  10.948  1.00  0.00     0.162 HD
HETATM    8  C4  UNL     1      28.371  64.205  11.286  1.00  0.00     0.142 C 
HETATM    9  C5  UNL     1      27.600  65.223  10.494  1.00  0.00     0.142 C 
HETATM   10  N5  UNL     1      28.617  66.089   9.884  1.00  0.00    -0.361 N 
ATOM     11  H5  UNL     1      28.510  67.065   9.610  1.00  0.00     0.162 HD
ENDROOT
BRANCH   1  12
HETATM   12  C1  UNL     1      32.201  66.871   7.512  1.00  0.00     0.468 C 
BRANCH  12  13
HETATM   13  N1  UNL     1      33.202  66.558   8.514  1.00  0.00    -0.042 N 
ATOM     14  H13 UNL     1      33.343  65.556   8.638  1.00  0.00     0.277 HD
ATOM     15  H12 UNL     1      34.150  66.788   8.219  1.00  0.00     0.277 HD
ATOM     16  H11 UNL     1      32.924  67.033   9.373  1.00  0.00     0.277 HD
ENDBRANCH  12  13
BRANCH  12  17
HETATM   17  N2  UNL     1      32.517  66.080   6.331  1.00  0.00    -0.042 N 
ATOM     18  H23 UNL     1      31.692  65.820   5.792  1.00  0.00     0.277 HD
ATOM     19  H22 UNL     1      32.985  66.618   5.603  1.00  0.00     0.277 HD
ATOM     20  H21 UNL     1      33.060  65.276   6.646  1.00  0.00     0.277 HD
ENDBRANCH  12  17
ENDBRANCH   1  12
TORSDOF 3
ENDMDL
MODEL 2
REMARK VINA RESULT: -5.945663681      1.823      2.146
REMARK  3 active torsions:
REMARK  status: ('A' for Active; 'I' for Inactive)
REMARK    1  A    between atoms: N1_1  and  C1_5 
REMARK    2  A    between atoms: C1_5  and  N2_6 
REMARK    3  A    between atoms: C1_5  and  C2_10 
REMARK       I    between atoms: C2_10  and  N3_12 
ROOT
HETATM    1  C2  UNL     1      30.761  66.250   8.001  1.00  0.00     0.282 C 
HETATM    2  O1  UNL     1      30.495  65.735   6.902  1.00  0.00    -0.269 OA
HETATM    3  N3  UNL     1      29.779  66.410   9.014  1.00  0.00    -0.296 N 
ATOM      4  H3  UNL     1      30.094  66.475   9.982  1.00  0.00     0.172 HD
HETATM    5  C3  UNL     1      28.523  66.477   8.785  1.00  0.00     0.177 C 
HETATM    6  N4  UNL     1      27.560  66.639   9.832  1.00  0.00    -0.361 N 
ATOM      7  H4  UNL     1      27.773  66.865  10.804  1.00  0.00     0.162 HD
HETATM    8  C4  UNL     1      26.238  66.432   9.289  1.00  0.00     0.142 C 
HETATM    9  C5  UNL     1      26.481  65.973   7.878  1.00  0.00     0.142 C 
HETATM   10  N5  UNL     1      27.844  66.414   7.558  1.00  0.00    -0.361 N 
ATOM     11  H5  UNL     1      28.220  66.629   6.635  1.00  0.00     0.162 HD
ENDROOT
BRANCH   1  12
HETATM   12  C1  UNL     1      32.145  66.710   8.263  1.00  0.00     0.468 C 
BRANCH  12  13
HETATM   13  N1  UNL     1      32.708  65.973   9.379  1.00  0.00    -0.042 N 
ATOM     14  H13 UNL     1      33.497  65.386   9.112  1.00  0.00     0.277 HD
ATOM     15  H12 UNL     1      33.204  66.568  10.041  1.00  0.00     0.277 HD
ATOM     16  H11 UNL     1      31.945  65.449   9.806  1.00  0.00     0.277 HD
ENDBRANCH  12  13
BRANCH  12  17
HETATM   17  N2  UNL     1      32.960  66.406   7.096  1.00  0.00    -0.042 N 
ATOM     18  H23 UNL     1      33.530  65.569   7.213  1.00  0.00     0.277 HD
ATOM     19  H22 UNL     1      32.413  66.081   6.299  1.00  0.00     0.277 HD
ATOM     20  H21 UNL     1      33.510  67.239   6.890  1.00  0.00     0.277 HD
ENDBRANCH  12  17
ENDBRANCH   1  12
TORSDOF 3
ENDMDL
MODEL 3
REMARK VINA RESULT: -5.873614532      1.256      1.314
REMARK  3 active torsions:
REMARK  status: ('A' for Active; 'I' for Inactive)
REMARK    1  A    between atoms: N1_1  and  C1_5 
REMARK    2  A    between atoms: C1_5  and  N2_6 
REMARK    3  A    between atoms: C1_5  and  C2_10 
REMARK       I    between atoms: C2_10  and  N3_12 
ROOT
HETATM    1  C2  UNL     1      30.414  65.712   8.912  1.00  0.00     0.282 C 
HETATM    2  O1  UNL     1      29.463  65.726   8.111  1.00  0.00    -0.269 OA
HETATM    3  N3  UNL     1      30.371  64.963  10.117  1.00  0.00    -0.296 N 
ATOM      4  H3  UNL     1      31.257  64.679  10.537  1.00  0.00     0.172 HD
HETATM    5  C3  UNL     1      29.289  64.622  10.708  1.00  0.00     0.177 C 
HETATM    6  N4  UNL     1      29.284  63.866  11.923  1.00  0.00    -0.361 N 
ATOM      7  H4  UNL     1      30.101  63.665  12.500  1.00  0.00     0.162 HD
HETATM    8  C4  UNL     1      27.934  63.434  12.200  1.00  0.00     0.142 C 
HETATM    9  C5  UNL     1      27.153  63.844  10.982  1.00  0.00     0.142 C 
HETATM   10  N5  UNL     1      27.961  64.886  10.338  1.00  0.00    -0.361 N 
ATOM     11  H5  UNL     1      27.626  65.645   9.744  1.00  0.00     0.162 HD
ENDROOT
BRANCH   1  12
HETATM   12  C1  UNL     1      31.629  66.500   8.599  1.00  0.00     0.468 C 
BRANCH  12  13
HETATM   13  N1  UNL     1      32.739  66.041   9.410  1.00  0.00    -0.042 N 
ATOM     14  H13 UNL     1      33.628  66.469   9.151  1.00  0.00     0.277 HD
ATOM     15  H12 UNL     1      32.703  66.386  10.369  1.00  0.00     0.277 HD
ATOM     16  H11 UNL     1      32.752  65.023   9.351  1.00  0.00     0.277 HD
ENDBRANCH  12  13
BRANCH  12  17
HETATM   17  N2  UNL     1      31.988  66.261   7.208  1.00  0.00    -0.042 N 
ATOM     18  H23 UNL     1      32.560  67.004   6.809  1.00  0.00     0.277 HD
ATOM     19  H22 UNL     1      32.660  65.503   7.093  1.00  0.00     0.277 HD
ATOM     20  H21 UNL     1      31.119  66.105   6.697  1.00  0.00     0.277 HD
ENDBRANCH  12  17
ENDBRANCH   1  12
TORSDOF 3
ENDMDL
MODEL 4
REMARK VINA RESULT: -5.768864823      1.685      2.224
REMARK  3 active torsions:
REMARK  status: ('A' for Active; 'I' for Inactive)
REMARK    1  A    between atoms: N1_1  and  C1_5 
REMARK    2  A    between atoms: C1_5  and  N2_6 
REMARK    3  A    between atoms: C1_5  and  C2_10 
REMARK       I    between atoms: C2_10  and  N3_12 
ROOT
HETATM    1  C2  UNL     1      31.149  66.806   8.178  1.00  0.00     0.282 C 
HETATM    2  O1  UNL     1      31.302  66.539   9.383  1.00  0.00    -0.269 OA
HETATM    3  N3  UNL     1      29.862  66.939   7.594  1.00  0.00    -0.296 N 
ATOM      4  H3  UNL     1      29.775  67.503   6.749  1.00  0.00     0.172 HD
HETATM    5  C3  UNL     1      28.806  66.393   8.064  1.00  0.00     0.177 C 
HETATM    6  N4  UNL     1      27.523  66.549   7.449  1.00  0.00    -0.361 N 
ATOM      7  H4  UNL     1      27.352  66.959   6.531  1.00  0.00     0.162 HD
HETATM    8  C4  UNL     1      26.511  66.030   8.338  1.00  0.00     0.142 C 
HETATM    9  C5  UNL     1      27.256  65.700   9.601  1.00  0.00     0.142 C 
HETATM   10  N5  UNL     1      28.662  65.580   9.200  1.00  0.00    -0.361 N 
ATOM     11  H5  UNL     1      29.386  65.021   9.652  1.00  0.00     0.162 HD
ENDROOT
BRANCH   1  12
HETATM   12  C1  UNL     1      32.348  66.991   7.326  1.00  0.00     0.468 C 
BRANCH  12  13
HETATM   13  N1  UNL     1      33.549  66.842   8.124  1.00  0.00    -0.042 N 
ATOM     14  H13 UNL     1      34.385  66.686   7.563  1.00  0.00     0.277 HD
ATOM     15  H12 UNL     1      33.848  67.712   8.564  1.00  0.00     0.277 HD
ATOM     16  H11 UNL     1      33.372  66.095   8.795  1.00  0.00     0.277 HD
ENDBRANCH  12  13
BRANCH  12  17
HETATM   17  N2  UNL     1      32.368  65.937   6.323  1.00  0.00    -0.042 N 
ATOM     18  H23 UNL     1      33.197  65.347   6.379  1.00  0.00     0.277 HD
ATOM     19  H22 UNL     1      31.677  65.207   6.495  1.00  0.00     0.277 HD
ATOM     20  H21 UNL     1      32.256  66.386   5.414  1.00  0.00     0.277 HD
ENDBRANCH  12  17
ENDBRANCH   1  12
TORSDOF 3
ENDMDL
MODEL 5
REMARK VINA RESULT: -5.751009977      1.584      4.660
REMARK  3 active torsions:
REMARK  status: ('A' for Active; 'I' for Inactive)
REMARK    1  A    between atoms: N1_1  and  C1_5 
REMARK    2  A    between atoms: C1_5  and  N2_6 
REMARK    3  A    between atoms: C1_5  and  C2_10 
REMARK       I    between atoms: C2_10  and  N3_12 
ROOT
HETATM    1  C2  UNL     1      28.973  64.994  10.193  1.00  0.00     0.282 C 
HETATM    2  O1  UNL     1      28.223  65.310   9.253  1.00  0.00    -0.269 OA
HETATM    3  N3  UNL     1      30.326  65.420  10.252  1.00  0.00    -0.296 N 
ATOM      4  H3  UNL     1      30.775  65.466  11.167  1.00  0.00     0.172 HD
HETATM    5  C3  UNL     1      31.015  65.749   9.227  1.00  0.00     0.177 C 
HETATM    6  N4  UNL     1      32.379  66.174   9.323  1.00  0.00    -0.361 N 
ATOM      7  H4  UNL     1      32.961  66.112  10.158  1.00  0.00     0.162 HD
HETATM    8  C4  UNL     1      32.795  66.706   8.047  1.00  0.00     0.142 C 
HETATM    9  C5  UNL     1      31.539  66.722   7.221  1.00  0.00     0.142 C 
HETATM   10  N5  UNL     1      30.633  65.771   7.876  1.00  0.00    -0.361 N 
ATOM     11  H5  UNL     1      29.882  65.236   7.440  1.00  0.00     0.162 HD
ENDROOT
BRANCH   1  12
HETATM   12  C1  UNL     1      28.438  64.147  11.286  1.00  0.00     0.468 C 
BRANCH  12  13
HETATM   13  N1  UNL     1      28.115  62.829  10.777  1.00  0.00    -0.042 N 
ATOM     14  H13 UNL     1      27.942  62.147  11.514  1.00  0.00     0.277 HD
ATOM     15  H12 UNL     1      27.196  62.783  10.339  1.00  0.00     0.277 HD
ATOM     16  H11 UNL     1      28.871  62.557  10.149  1.00  0.00     0.277 HD
ENDBRANCH  12  13
BRANCH  12  17
HETATM   17  N2  UNL     1      29.480  63.976  12.288  1.00  0.00    -0.042 N 
ATOM     18  H23 UNL     1      29.360  63.133  12.849  1.00  0.00     0.277 HD
ATOM     19  H22 UNL     1      30.386  63.738  11.886  1.00  0.00     0.277 HD
ATOM     20  H21 UNL     1      29.501  64.828  12.847  1.00  0.00     0.277 HD
ENDBRANCH  12  17
ENDBRANCH   1  12
TORSDOF 3
ENDMDL
