MODEL 1
REMARK VINA RESULT: -5.459159699      0.000      0.000
REMARK  2 active torsions:
REMARK  status: ('A' for Active; 'I' for Inactive)
REMARK    1  A    between atoms: C1_2  and  N2_4 
REMARK    2  A    between atoms: N4_9  and  N5_10 
ROOT
HETATM    1  N2  UNL     1      30.198  66.045   9.201  1.00  0.00    -0.104 N 
HETATM    2  N3  UNL     1      31.569  66.008   9.497  1.00  0.00    -0.218 N 
ATOM      3  H3  UNL     1      32.011  65.664  10.350  1.00  0.00     0.194 HD
HETATM    4  C2  UNL     1      32.208  66.554   8.349  1.00  0.00     0.384 C 
HETATM    5  O1  UNL     1      33.426  66.720   8.156  1.00  0.00    -0.241 OA
HETATM    6  N4  UNL     1      31.151  66.882   7.440  1.00  0.00    -0.083 N 
HETATM    7  O2  UNL     1      30.040  66.943   8.179  1.00  0.00    -0.104 OA
ENDROOT
BRANCH   1   8
HETATM    8  C1  UNL     1      29.160  65.306   9.827  1.00  0.00     0.232 C 
HETATM    9  N1  UNL     1      29.430  63.982  10.238  1.00  0.00    -0.066 NA
HETATM   10  S1  UNL     1      27.699  65.990  10.056  1.00  0.00    -0.040 SA
ENDBRANCH   1   8
BRANCH   6  11
HETATM   11  N5  UNL     1      31.257  67.098   6.049  1.00  0.00    -0.312 N 
ATOM     12  H52 UNL     1      31.361  67.994   5.574  1.00  0.00     0.179 HD
ATOM     13  H51 UNL     1      31.244  66.392   5.313  1.00  0.00     0.179 HD
ENDBRANCH   6  11
TORSDOF 2
ENDMDL
MODEL 2
REMARK VINA RESULT: -5.234187317      2.629      4.106
REMARK  2 active torsions:
REMARK  status: ('A' for Active; 'I' for Inactive)
REMARK    1  A    between atoms: C1_2  and  N2_4 
REMARK    2  A    between atoms: N4_9  and  N5_10 
ROOT
HETATM    1  N2  UNL     1      30.245  65.676   8.520  1.00  0.00    -0.104 N 
HETATM    2  N3  UNL     1      30.607  64.765   9.523  1.00  0.00    -0.218 N 
ATOM      3  H3  UNL     1      31.502  64.288   9.636  1.00  0.00     0.194 HD
HETATM    4  C2  UNL     1      29.454  64.650  10.349  1.00  0.00     0.384 C 
HETATM    5  O1  UNL     1      29.308  63.951  11.368  1.00  0.00    -0.241 OA
HETATM    6  N4  UNL     1      28.475  65.516   9.765  1.00  0.00    -0.083 N 
HETATM    7  O2  UNL     1      28.877  65.726   8.508  1.00  0.00    -0.104 OA
ENDROOT
BRANCH   1   8
HETATM    8  C1  UNL     1      31.112  66.412   7.670  1.00  0.00     0.232 C 
HETATM    9  N1  UNL     1      30.610  66.873   6.433  1.00  0.00    -0.066 NA
HETATM   10  S1  UNL     1      32.647  66.708   8.133  1.00  0.00    -0.040 SA
ENDBRANCH   1   8
BRANCH   6  11
HETATM   11  N5  UNL     1      27.321  66.042  10.385  1.00  0.00    -0.312 N 
ATOM     12  H52 UNL     1      26.777  65.612  11.132  1.00  0.00     0.179 HD
ATOM     13  H51 UNL     1      26.860  66.928  10.180  1.00  0.00     0.179 HD
ENDBRANCH   6  11
TORSDOF 2
ENDMDL
MODEL 3
REMARK VINA RESULT: -5.115987268      1.561      1.562
REMARK  2 active torsions:
REMARK  status: ('A' for Active; 'I' for Inactive)
REMARK    1  A    between atoms: C1_2  and  N2_4 
REMARK    2  A    between atoms: N4_9  and  N5_10 
ROOT
HETATM    1  N2  UNL     1      29.701  65.590   9.994  1.00  0.00    -0.104 N 
HETATM    2  N3  UNL     1      31.042  65.578   9.583  1.00  0.00    -0.218 N 
ATOM      3  H3  UNL     1      31.817  65.066  10.005  1.00  0.00     0.194 HD
HETATM    4  C2  UNL     1      31.086  66.436   8.448  1.00  0.00     0.384 C 
HETATM    5  O1  UNL     1      32.072  66.731   7.749  1.00  0.00    -0.241 OA
HETATM    6  N4  UNL     1      29.745  66.903   8.267  1.00  0.00    -0.083 N 
HETATM    7  O2  UNL     1      29.126  66.699   9.433  1.00  0.00    -0.104 OA
ENDROOT
BRANCH   1   8
HETATM    8  C1  UNL     1      29.046  64.646  10.829  1.00  0.00     0.232 C 
HETATM    9  N1  UNL     1      28.839  63.340  10.335  1.00  0.00    -0.066 NA
HETATM   10  S1  UNL     1      28.555  65.083  12.320  1.00  0.00    -0.040 SA
ENDBRANCH   1   8
BRANCH   6  11
HETATM   11  N5  UNL     1      29.186  67.464   7.098  1.00  0.00    -0.312 N 
ATOM     12  H52 UNL     1      29.268  68.431   6.783  1.00  0.00     0.179 HD
ATOM     13  H51 UNL     1      28.620  66.989   6.396  1.00  0.00     0.179 HD
ENDBRANCH   6  11
TORSDOF 2
ENDMDL
MODEL 4
REMARK VINA RESULT: -5.039465610      2.002      2.517
REMARK  2 active torsions:
REMARK  status: ('A' for Active; 'I' for Inactive)
REMARK    1  A    between atoms: C1_2  and  N2_4 
REMARK    2  A    between atoms: N4_9  and  N5_10 
ROOT
HETATM    1  N2  UNL     1      28.853  66.157   8.147  1.00  0.00    -0.104 N 
HETATM    2  N3  UNL     1      29.369  67.026   7.174  1.00  0.00    -0.218 N 
ATOM      3  H3  UNL     1      28.847  67.568   6.485  1.00  0.00     0.194 HD
HETATM    4  C2  UNL     1      30.780  66.984   7.355  1.00  0.00     0.384 C 
HETATM    5  O1  UNL     1      31.653  67.598   6.715  1.00  0.00    -0.241 OA
HETATM    6  N4  UNL     1      31.002  66.078   8.442  1.00  0.00    -0.083 N 
HETATM    7  O2  UNL     1      29.886  65.350   8.543  1.00  0.00    -0.104 OA
ENDROOT
BRANCH   1   8
HETATM    8  C1  UNL     1      27.523  66.107   8.640  1.00  0.00     0.232 C 
HETATM    9  N1  UNL     1      26.484  65.780   7.741  1.00  0.00    -0.066 NA
HETATM   10  S1  UNL     1      27.224  66.423  10.211  1.00  0.00    -0.040 SA
ENDBRANCH   1   8
BRANCH   6  11
HETATM   11  N5  UNL     1      32.159  65.972   9.243  1.00  0.00    -0.312 N 
ATOM     12  H52 UNL     1      32.261  66.268  10.213  1.00  0.00     0.179 HD
ATOM     13  H51 UNL     1      33.063  65.585   8.973  1.00  0.00     0.179 HD
ENDBRANCH   6  11
TORSDOF 2
ENDMDL
MODEL 5
REMARK VINA RESULT: -4.924197892      2.023      2.458
REMARK  2 active torsions:
REMARK  status: ('A' for Active; 'I' for Inactive)
REMARK    1  A    between atoms: C1_2  and  N2_4 
REMARK    2  A    between atoms: N4_9  and  N5_10 
ROOT
HETATM    1  N2  UNL     1      28.696  66.086   8.658  1.00  0.00    -0.104 N 
HETATM    2  N3  UNL     1      29.093  66.887   7.577  1.00  0.00    -0.218 N 
ATOM      3  H3  UNL     1      28.493  67.416   6.943  1.00  0.00     0.194 HD
HETATM    4  C2  UNL     1      30.513  66.802   7.558  1.00  0.00     0.384 C 
HETATM    5  O1  UNL     1      31.303  67.353   6.770  1.00  0.00    -0.241 OA
HETATM    6  N4  UNL     1      30.861  65.941   8.648  1.00  0.00    -0.083 N 
HETATM    7  O2  UNL     1      29.750  65.261   8.945  1.00  0.00    -0.104 OA
ENDROOT
BRANCH   1   8
HETATM    8  C1  UNL     1      27.449  66.108   9.337  1.00  0.00     0.232 C 
HETATM    9  N1  UNL     1      27.450  66.226  10.744  1.00  0.00    -0.066 NA
HETATM   10  S1  UNL     1      26.060  66.000   8.490  1.00  0.00    -0.040 SA
ENDBRANCH   1   8
BRANCH   6  11
HETATM   11  N5  UNL     1      32.118  65.830   9.281  1.00  0.00    -0.312 N 
ATOM     12  H52 UNL     1      32.972  66.332   9.039  1.00  0.00     0.179 HD
ATOM     13  H51 UNL     1      32.359  65.234  10.073  1.00  0.00     0.179 HD
ENDBRANCH   6  11
TORSDOF 2
ENDMDL
