MODEL 1
REMARK VINA RESULT: -6.671943253      0.000      0.000
REMARK  3 active torsions:
REMARK  status: ('A' for Active; 'I' for Inactive)
REMARK    1  A    between atoms: N1_1  and  N2_4 
REMARK       I    between atoms: N2_4  and  C1_5 
REMARK    2  A    between atoms: C1_5  and  C2_7 
REMARK       I    between atoms: C2_7  and  N3_9 
REMARK    3  A    between atoms: N3_9  and  C3_11 
ROOT
HETATM    1  C2  UNL     1      28.571  66.344   7.623  1.00  0.00     0.344 C 
HETATM    2  O2  UNL     1      27.962  65.752   6.696  1.00  0.00    -0.260 OA
HETATM    3  N3  UNL     1      29.518  67.349   7.342  1.00  0.00    -0.149 N 
ATOM      4  H3  UNL     1      29.227  68.313   7.181  1.00  0.00     0.188 HD
ENDROOT
BRANCH   3   5
HETATM    5  C3  UNL     1      30.762  67.017   7.296  1.00  0.00     0.700 A 
HETATM    6  N4  UNL     1      31.532  66.893   8.414  1.00  0.00    -0.185 N 
HETATM    7  C4  UNL     1      32.777  66.543   8.056  1.00  0.00     0.215 A 
ATOM      8  H4  UNL     1      31.213  67.043   9.371  1.00  0.00     0.185 HD
HETATM    9  N5  UNL     1      32.749  66.457   6.709  1.00  0.00    -0.281 N 
HETATM   10  N6  UNL     1      31.543  66.740   6.238  1.00  0.00    -0.131 N 
ATOM     11  H5  UNL     1      33.550  66.208   6.130  1.00  0.00     0.188 HD
ATOM     12  H6  UNL     1      31.261  66.747   5.259  1.00  0.00     0.205 HD
ENDBRANCH   3   5
BRANCH   1  13
HETATM   13  C1  UNL     1      28.250  65.936   9.039  1.00  0.00     0.403 C 
HETATM   14  N2  UNL     1      29.101  65.191   9.759  1.00  0.00    -0.284 NA
HETATM   15  O1  UNL     1      27.103  66.400   9.386  1.00  0.00    -0.244 OA
BRANCH  14  16
HETATM   16  N1  UNL     1      29.950  64.448  10.477  1.00  0.00    -0.276 N 
ATOM     17  H12 UNL     1      29.268  64.990   9.946  1.00  0.00     0.191 HD
ATOM     18  H11 UNL     1      30.599  63.882  11.023  1.00  0.00     0.191 HD
ENDBRANCH  14  16
ENDBRANCH   1  13
TORSDOF 3
ENDMDL
MODEL 2
REMARK VINA RESULT: -6.603853482      1.436      1.574
REMARK  3 active torsions:
REMARK  status: ('A' for Active; 'I' for Inactive)
REMARK    1  A    between atoms: N1_1  and  N2_4 
REMARK       I    between atoms: N2_4  and  C1_5 
REMARK    2  A    between atoms: C1_5  and  C2_7 
REMARK       I    between atoms: C2_7  and  N3_9 
REMARK    3  A    between atoms: N3_9  and  C3_11 
ROOT
HETATM    1  C2  UNL     1      29.175  66.178   6.847  1.00  0.00     0.344 C 
HETATM    2  O2  UNL     1      29.042  65.266   5.993  1.00  0.00    -0.260 OA
HETATM    3  N3  UNL     1      30.217  67.123   6.744  1.00  0.00    -0.149 N 
ATOM      4  H3  UNL     1      30.116  67.952   6.159  1.00  0.00     0.188 HD
ENDROOT
BRANCH   3   5
HETATM    5  C3  UNL     1      31.299  66.909   7.411  1.00  0.00     0.700 A 
HETATM    6  N4  UNL     1      31.299  66.349   8.652  1.00  0.00    -0.185 N 
HETATM    7  C4  UNL     1      32.562  66.256   9.095  1.00  0.00     0.215 A 
ATOM      8  H4  UNL     1      30.470  66.048   9.165  1.00  0.00     0.185 HD
HETATM    9  N5  UNL     1      33.324  66.768   8.105  1.00  0.00    -0.281 N 
HETATM   10  N6  UNL     1      32.577  67.165   7.086  1.00  0.00    -0.131 N 
ATOM     11  H5  UNL     1      34.341  66.839   8.138  1.00  0.00     0.188 HD
ATOM     12  H6  UNL     1      32.909  67.585   6.218  1.00  0.00     0.205 HD
ENDBRANCH   3   5
BRANCH   1  13
HETATM   13  C1  UNL     1      28.181  66.221   7.981  1.00  0.00     0.403 C 
HETATM   14  N2  UNL     1      28.448  66.881   9.117  1.00  0.00    -0.284 NA
HETATM   15  O1  UNL     1      27.124  65.559   7.671  1.00  0.00    -0.244 OA
BRANCH  14  16
HETATM   16  N1  UNL     1      28.716  67.540  10.250  1.00  0.00    -0.276 N 
ATOM     17  H12 UNL     1      28.545  67.009   9.396  1.00  0.00     0.191 HD
ATOM     18  H11 UNL     1      28.919  68.043  11.113  1.00  0.00     0.191 HD
ENDBRANCH  14  16
ENDBRANCH   1  13
TORSDOF 3
ENDMDL
MODEL 3
REMARK VINA RESULT: -6.557387908      1.881      2.449
REMARK  3 active torsions:
REMARK  status: ('A' for Active; 'I' for Inactive)
REMARK    1  A    between atoms: N1_1  and  N2_4 
REMARK       I    between atoms: N2_4  and  C1_5 
REMARK    2  A    between atoms: C1_5  and  C2_7 
REMARK       I    between atoms: C2_7  and  N3_9 
REMARK    3  A    between atoms: N3_9  and  C3_11 
ROOT
HETATM    1  C2  UNL     1      29.898  66.301  10.198  1.00  0.00     0.344 C 
HETATM    2  O2  UNL     1      29.025  67.203  10.245  1.00  0.00    -0.260 OA
HETATM    3  N3  UNL     1      31.257  66.615   9.992  1.00  0.00    -0.149 N 
ATOM      4  H3  UNL     1      31.856  66.885  10.772  1.00  0.00     0.188 HD
ENDROOT
BRANCH   3   5
HETATM    5  C3  UNL     1      31.720  66.552   8.791  1.00  0.00     0.700 A 
HETATM    6  N4  UNL     1      30.920  66.612   7.691  1.00  0.00    -0.185 N 
HETATM    7  C4  UNL     1      31.678  66.517   6.587  1.00  0.00     0.215 A 
ATOM      8  H4  UNL     1      29.905  66.712   7.703  1.00  0.00     0.185 HD
HETATM    9  N5  UNL     1      32.946  66.399   7.036  1.00  0.00    -0.281 N 
HETATM   10  N6  UNL     1      32.986  66.419   8.360  1.00  0.00    -0.131 N 
ATOM     11  H5  UNL     1      33.765  66.307   6.435  1.00  0.00     0.188 HD
ATOM     12  H6  UNL     1      33.820  66.346   8.942  1.00  0.00     0.205 HD
ENDBRANCH   3   5
BRANCH   1  13
HETATM   13  C1  UNL     1      29.437  64.875  10.369  1.00  0.00     0.403 C 
HETATM   14  N2  UNL     1      29.433  64.283  11.572  1.00  0.00    -0.284 NA
HETATM   15  O1  UNL     1      29.082  64.384   9.236  1.00  0.00    -0.244 OA
BRANCH  14  16
HETATM   16  N1  UNL     1      29.430  63.693  12.772  1.00  0.00    -0.276 N 
ATOM     17  H12 UNL     1      29.467  64.168  11.871  1.00  0.00     0.191 HD
ATOM     18  H11 UNL     1      29.426  63.243  13.687  1.00  0.00     0.191 HD
ENDBRANCH  14  16
ENDBRANCH   1  13
TORSDOF 3
ENDMDL
MODEL 4
REMARK VINA RESULT: -6.503511608      1.433      1.678
REMARK  3 active torsions:
REMARK  status: ('A' for Active; 'I' for Inactive)
REMARK    1  A    between atoms: N1_1  and  N2_4 
REMARK       I    between atoms: N2_4  and  C1_5 
REMARK    2  A    between atoms: C1_5  and  C2_7 
REMARK       I    between atoms: C2_7  and  N3_9 
REMARK    3  A    between atoms: N3_9  and  C3_11 
ROOT
HETATM    1  C2  UNL     1      28.546  66.365   7.663  1.00  0.00     0.344 C 
HETATM    2  O2  UNL     1      27.970  65.685   6.778  1.00  0.00    -0.260 OA
HETATM    3  N3  UNL     1      29.490  67.355   7.318  1.00  0.00    -0.149 N 
ATOM      4  H3  UNL     1      29.192  68.296   7.064  1.00  0.00     0.188 HD
ENDROOT
BRANCH   3   5
HETATM    5  C3  UNL     1      30.738  67.037   7.335  1.00  0.00     0.700 A 
HETATM    6  N4  UNL     1      31.432  66.844   8.491  1.00  0.00    -0.185 N 
HETATM    7  C4  UNL     1      32.703  66.529   8.196  1.00  0.00     0.215 A 
ATOM      8  H4  UNL     1      31.047  66.926   9.432  1.00  0.00     0.185 HD
HETATM    9  N5  UNL     1      32.767  66.536   6.848  1.00  0.00    -0.281 N 
HETATM   10  N6  UNL     1      31.592  66.840   6.317  1.00  0.00    -0.131 N 
ATOM     11  H5  UNL     1      33.609  66.333   6.309  1.00  0.00     0.188 HD
ATOM     12  H6  UNL     1      31.377  66.911   5.323  1.00  0.00     0.205 HD
ENDBRANCH   3   5
BRANCH   1  13
HETATM   13  C1  UNL     1      28.192  66.081   9.101  1.00  0.00     0.403 C 
HETATM   14  N2  UNL     1      27.218  66.758   9.726  1.00  0.00    -0.284 NA
HETATM   15  O1  UNL     1      28.942  65.147   9.567  1.00  0.00    -0.244 OA
BRANCH  14  16
HETATM   16  N1  UNL     1      26.246  67.433  10.348  1.00  0.00    -0.276 N 
ATOM     17  H12 UNL     1      27.017  66.938   9.901  1.00  0.00     0.191 HD
ATOM     18  H11 UNL     1      25.504  67.948  10.821  1.00  0.00     0.191 HD
ENDBRANCH  14  16
ENDBRANCH   1  13
TORSDOF 3
ENDMDL
MODEL 5
REMARK VINA RESULT: -6.431409963      1.517      2.768
REMARK  3 active torsions:
REMARK  status: ('A' for Active; 'I' for Inactive)
REMARK    1  A    between atoms: N1_1  and  N2_4 
REMARK       I    between atoms: N2_4  and  C1_5 
REMARK    2  A    between atoms: C1_5  and  C2_7 
REMARK       I    between atoms: C2_7  and  N3_9 
REMARK    3  A    between atoms: N3_9  and  C3_11 
ROOT
HETATM    1  C2  UNL     1      29.267  66.377   9.940  1.00  0.00     0.344 C 
HETATM    2  O2  UNL     1      29.020  67.282  10.776  1.00  0.00    -0.260 OA
HETATM    3  N3  UNL     1      30.497  65.687   9.958  1.00  0.00    -0.149 N 
ATOM      4  H3  UNL     1      30.640  64.888  10.575  1.00  0.00     0.188 HD
ENDROOT
BRANCH   3   5
HETATM    5  C3  UNL     1      31.434  66.095   9.174  1.00  0.00     0.700 A 
HETATM    6  N4  UNL     1      31.183  66.660   7.960  1.00  0.00    -0.185 N 
HETATM    7  C4  UNL     1      32.346  66.979   7.372  1.00  0.00     0.215 A 
ATOM      8  H4  UNL     1      30.257  66.815   7.560  1.00  0.00     0.185 HD
HETATM    9  N5  UNL     1      33.302  66.599   8.246  1.00  0.00    -0.281 N 
HETATM   10  N6  UNL     1      32.768  66.066   9.334  1.00  0.00    -0.131 N 
ATOM     11  H5  UNL     1      34.304  66.708   8.089  1.00  0.00     0.188 HD
ATOM     12  H6  UNL     1      33.273  65.701  10.141  1.00  0.00     0.205 HD
ENDBRANCH   3   5
BRANCH   1  13
HETATM   13  C1  UNL     1      28.201  66.061   8.921  1.00  0.00     0.403 C 
HETATM   14  N2  UNL     1      28.199  66.641   7.712  1.00  0.00    -0.284 NA
HETATM   15  O1  UNL     1      27.370  65.205   9.397  1.00  0.00    -0.244 OA
BRANCH  14  16
HETATM   16  N1  UNL     1      28.198  67.220   6.506  1.00  0.00    -0.276 N 
ATOM     17  H12 UNL     1      28.155  66.789   7.430  1.00  0.00     0.191 HD
ATOM     18  H11 UNL     1      28.199  67.661   5.587  1.00  0.00     0.191 HD
ENDBRANCH  14  16
ENDBRANCH   1  13
TORSDOF 3
ENDMDL
