MODEL 1
REMARK VINA RESULT: -7.081263602      0.000      0.000
REMARK  4 active torsions:
REMARK  status: ('A' for Active; 'I' for Inactive)
REMARK    1  A    between atoms: C5_14  and  C6_15 
REMARK    2  A    between atoms: C6_15  and  N5_16 
REMARK    3  A    between atoms: N6_20  and  C7_21 
REMARK    4  A    between atoms: C7_21  and  C8_22 
ROOT
HETATM    1  N1  UNL     1     -10.914 -29.684 -25.228  1.00  0.00    -0.383 N 
ATOM      2  H11 UNL     1     -11.199 -29.895 -24.271  1.00  0.00     0.157 HD
ATOM      3  H12 UNL     1      -9.970 -29.890 -25.553  1.00  0.00     0.157 HD
HETATM    4  C1  UNL     1     -11.718 -29.149 -26.077  1.00  0.00     0.131 A 
HETATM    5  N2  UNL     1     -11.343 -28.870 -27.338  1.00  0.00    -0.337 N 
ATOM      6  H2  UNL     1     -10.397 -29.081 -27.655  1.00  0.00     0.168 HD
HETATM    7  C2  UNL     1     -12.243 -28.305 -28.183  1.00  0.00     0.183 A 
HETATM    8  N3  UNL     1     -13.489 -28.030 -27.759  1.00  0.00    -0.336 N 
ATOM      9  H3  UNL     1     -14.147 -27.605 -28.413  1.00  0.00     0.168 HD
HETATM   10  C3  UNL     1     -13.904 -28.295 -26.499  1.00  0.00     0.141 A 
HETATM   11  C4  UNL     1     -13.008 -28.866 -25.632  1.00  0.00     0.122 A 
HETATM   12  N4  UNL     1     -13.650 -29.024 -24.474  1.00  0.00    -0.338 N 
ATOM     13  H4  UNL     1     -13.243 -29.427 -23.630  1.00  0.00     0.167 HD
HETATM   14  C5  UNL     1     -14.927 -28.569 -24.584  1.00  0.00     0.111 A 
HETATM   15  N6  UNL     1     -15.076 -28.121 -25.835  1.00  0.00    -0.314 N 
ENDROOT
BRANCH  15  16
HETATM   16  C7  UNL     1     -16.275 -27.566 -26.368  1.00  0.00     0.190 C 
BRANCH  16  17
HETATM   17  C8  UNL     1     -17.154 -28.478 -27.086  1.00  0.00     0.044 A 
HETATM   18  C9  UNL     1     -18.193 -29.194 -26.544  1.00  0.00     0.115 A 
HETATM   19  N7  UNL     1     -18.760 -29.908 -27.514  1.00  0.00    -0.360 N 
HETATM   20  C10 UNL     1     -18.120 -29.676 -28.663  1.00  0.00     0.180 A 
ATOM     21  H7  UNL     1     -19.558 -30.534 -27.397  1.00  0.00     0.166 HD
HETATM   22  N8  UNL     1     -17.144 -28.800 -28.381  1.00  0.00    -0.353 N 
ATOM     23  H8  UNL     1     -16.482 -28.430 -29.064  1.00  0.00     0.166 HD
ENDBRANCH  16  17
ENDBRANCH  15  16
BRANCH  14  24
HETATM   24  C6  UNL     1     -15.912 -28.618 -23.447  1.00  0.00     0.306 C 
BRANCH  24  25
HETATM   25  N5  UNL     1     -15.202 -28.231 -22.246  1.00  0.00    -0.073 N 
ATOM     26  H53 UNL     1     -14.254 -27.902 -22.431  1.00  0.00     0.274 HD
ATOM     27  H52 UNL     1     -15.560 -27.371 -21.830  1.00  0.00     0.274 HD
ATOM     28  H51 UNL     1     -15.230 -29.025 -21.607  1.00  0.00     0.274 HD
ENDBRANCH  24  25
ENDBRANCH  14  24
TORSDOF 4
ENDMDL
MODEL 2
REMARK VINA RESULT: -6.691240907      1.756      5.937
REMARK  4 active torsions:
REMARK  status: ('A' for Active; 'I' for Inactive)
REMARK    1  A    between atoms: C5_14  and  C6_15 
REMARK    2  A    between atoms: C6_15  and  N5_16 
REMARK    3  A    between atoms: N6_20  and  C7_21 
REMARK    4  A    between atoms: C7_21  and  C8_22 
ROOT
HETATM    1  N1  UNL     1     -17.928 -29.212 -28.215  1.00  0.00    -0.383 N 
ATOM      2  H11 UNL     1     -17.560 -29.681 -29.042  1.00  0.00     0.157 HD
ATOM      3  H12 UNL     1     -18.920 -29.257 -27.984  1.00  0.00     0.157 HD
HETATM    4  C1  UNL     1     -17.176 -28.540 -27.418  1.00  0.00     0.131 A 
HETATM    5  N2  UNL     1     -17.661 -27.922 -26.327  1.00  0.00    -0.337 N 
ATOM      6  H2  UNL     1     -18.655 -27.973 -26.103  1.00  0.00     0.168 HD
HETATM    7  C2  UNL     1     -16.810 -27.229 -25.528  1.00  0.00     0.183 A 
HETATM    8  N3  UNL     1     -15.501 -27.166 -25.829  1.00  0.00    -0.336 N 
ATOM      9  H3  UNL     1     -14.881 -26.639 -25.214  1.00  0.00     0.168 HD
HETATM   10  C3  UNL     1     -14.973 -27.774 -26.917  1.00  0.00     0.141 A 
HETATM   11  C4  UNL     1     -15.819 -28.479 -27.735  1.00  0.00     0.122 A 
HETATM   12  N4  UNL     1     -15.069 -28.974 -28.719  1.00  0.00    -0.338 N 
ATOM     13  H4  UNL     1     -15.416 -29.547 -29.488  1.00  0.00     0.167 HD
HETATM   14  C5  UNL     1     -13.771 -28.603 -28.546  1.00  0.00     0.111 A 
HETATM   15  N6  UNL     1     -13.721 -27.864 -27.433  1.00  0.00    -0.314 N 
ENDROOT
BRANCH  15  16
HETATM   16  C7  UNL     1     -12.539 -27.283 -26.891  1.00  0.00     0.190 C 
BRANCH  16  17
HETATM   17  C8  UNL     1     -11.566 -28.200 -26.315  1.00  0.00     0.044 A 
HETATM   18  C9  UNL     1     -11.851 -29.333 -25.593  1.00  0.00     0.115 A 
HETATM   19  N7  UNL     1     -10.701 -29.906 -25.243  1.00  0.00    -0.360 N 
HETATM   20  C10 UNL     1      -9.685 -29.181 -25.717  1.00  0.00     0.180 A 
ATOM     21  H7  UNL     1     -10.611 -30.765 -24.699  1.00  0.00     0.166 HD
HETATM   22  N8  UNL     1     -10.233 -28.144 -26.369  1.00  0.00    -0.353 N 
ATOM     23  H8  UNL     1      -9.704 -27.411 -26.841  1.00  0.00     0.166 HD
ENDBRANCH  16  17
ENDBRANCH  15  16
BRANCH  14  24
HETATM   24  C6  UNL     1     -12.673 -29.014 -29.489  1.00  0.00     0.306 C 
BRANCH  24  25
HETATM   25  N5  UNL     1     -13.180 -30.109 -30.290  1.00  0.00    -0.073 N 
ATOM     26  H53 UNL     1     -12.843 -31.020 -29.980  1.00  0.00     0.274 HD
ATOM     27  H52 UNL     1     -14.176 -30.281 -30.146  1.00  0.00     0.274 HD
ATOM     28  H51 UNL     1     -12.947 -29.907 -31.263  1.00  0.00     0.274 HD
ENDBRANCH  24  25
ENDBRANCH  14  24
TORSDOF 4
ENDMDL
MODEL 3
REMARK VINA RESULT: -6.653247798      2.459      3.501
REMARK  4 active torsions:
REMARK  status: ('A' for Active; 'I' for Inactive)
REMARK    1  A    between atoms: C5_14  and  C6_15 
REMARK    2  A    between atoms: C6_15  and  N5_16 
REMARK    3  A    between atoms: N6_20  and  C7_21 
REMARK    4  A    between atoms: C7_21  and  C8_22 
ROOT
HETATM    1  N1  UNL     1     -12.181 -30.111 -25.365  1.00  0.00    -0.383 N 
ATOM      2  H11 UNL     1     -12.181 -30.291 -24.361  1.00  0.00     0.157 HD
ATOM      3  H12 UNL     1     -11.436 -30.465 -25.963  1.00  0.00     0.157 HD
HETATM    4  C1  UNL     1     -13.111 -29.431 -25.936  1.00  0.00     0.131 A 
HETATM    5  N2  UNL     1     -13.112 -29.193 -27.259  1.00  0.00    -0.337 N 
ATOM      6  H2  UNL     1     -12.362 -29.552 -27.850  1.00  0.00     0.168 HD
HETATM    7  C2  UNL     1     -14.125 -28.467 -27.798  1.00  0.00     0.183 A 
HETATM    8  N3  UNL     1     -15.111 -27.996 -27.014  1.00  0.00    -0.336 N 
ATOM      9  H3  UNL     1     -15.861 -27.454 -27.442  1.00  0.00     0.168 HD
HETATM   10  C3  UNL     1     -15.146 -28.214 -25.679  1.00  0.00     0.141 A 
HETATM   11  C4  UNL     1     -14.131 -28.946 -25.118  1.00  0.00     0.122 A 
HETATM   12  N4  UNL     1     -14.392 -29.019 -23.814  1.00  0.00    -0.338 N 
ATOM     13  H4  UNL     1     -13.813 -29.501 -23.127  1.00  0.00     0.167 HD
HETATM   14  C5  UNL     1     -15.545 -28.353 -23.532  1.00  0.00     0.111 A 
HETATM   15  N6  UNL     1     -16.004 -27.861 -24.688  1.00  0.00    -0.314 N 
ENDROOT
BRANCH  15  16
HETATM   16  C7  UNL     1     -17.200 -27.102 -24.835  1.00  0.00     0.190 C 
BRANCH  16  17
HETATM   17  C8  UNL     1     -17.194 -25.759 -24.273  1.00  0.00     0.044 A 
HETATM   18  C9  UNL     1     -18.255 -25.131 -23.668  1.00  0.00     0.115 A 
HETATM   19  N7  UNL     1     -17.859 -23.920 -23.281  1.00  0.00    -0.360 N 
HETATM   20  C10 UNL     1     -16.578 -23.748 -23.617  1.00  0.00     0.180 A 
ATOM     21  H7  UNL     1     -18.443 -23.233 -22.803  1.00  0.00     0.166 HD
HETATM   22  N8  UNL     1     -16.190 -24.881 -24.220  1.00  0.00    -0.353 N 
ATOM     23  H8  UNL     1     -15.254 -25.050 -24.590  1.00  0.00     0.166 HD
ENDBRANCH  16  17
ENDBRANCH  15  16
BRANCH  14  24
HETATM   24  C6  UNL     1     -16.116 -28.261 -22.143  1.00  0.00     0.306 C 
BRANCH  24  25
HETATM   25  N5  UNL     1     -15.318 -27.296 -21.414  1.00  0.00    -0.073 N 
ATOM     26  H53 UNL     1     -15.256 -27.503 -20.417  1.00  0.00     0.274 HD
ATOM     27  H52 UNL     1     -14.322 -27.362 -21.624  1.00  0.00     0.274 HD
ATOM     28  H51 UNL     1     -15.707 -26.373 -21.606  1.00  0.00     0.274 HD
ENDBRANCH  24  25
ENDBRANCH  14  24
TORSDOF 4
ENDMDL
MODEL 4
REMARK VINA RESULT: -6.525190474      1.772      4.546
REMARK  4 active torsions:
REMARK  status: ('A' for Active; 'I' for Inactive)
REMARK    1  A    between atoms: C5_14  and  C6_15 
REMARK    2  A    between atoms: C6_15  and  N5_16 
REMARK    3  A    between atoms: N6_20  and  C7_21 
REMARK    4  A    between atoms: C7_21  and  C8_22 
ROOT
HETATM    1  N1  UNL     1     -13.441 -28.701 -28.490  1.00  0.00    -0.383 N 
ATOM      2  H11 UNL     1     -14.253 -28.274 -28.937  1.00  0.00     0.157 HD
ATOM      3  H12 UNL     1     -12.621 -28.968 -29.034  1.00  0.00     0.157 HD
HETATM    4  C1  UNL     1     -13.398 -28.928 -27.225  1.00  0.00     0.131 A 
HETATM    5  N2  UNL     1     -12.329 -29.490 -26.636  1.00  0.00    -0.337 N 
ATOM      6  H2  UNL     1     -11.513 -29.754 -27.188  1.00  0.00     0.168 HD
HETATM    7  C2  UNL     1     -12.350 -29.701 -25.295  1.00  0.00     0.183 A 
HETATM    8  N3  UNL     1     -13.429 -29.352 -24.572  1.00  0.00    -0.336 N 
ATOM      9  H3  UNL     1     -13.422 -29.521 -23.567  1.00  0.00     0.168 HD
HETATM   10  C3  UNL     1     -14.525 -28.784 -25.128  1.00  0.00     0.141 A 
HETATM   11  C4  UNL     1     -14.519 -28.562 -26.481  1.00  0.00     0.122 A 
HETATM   12  N4  UNL     1     -15.692 -28.004 -26.778  1.00  0.00    -0.338 N 
ATOM     13  H4  UNL     1     -15.987 -27.722 -27.713  1.00  0.00     0.167 HD
HETATM   14  C5  UNL     1     -16.440 -27.864 -25.650  1.00  0.00     0.111 A 
HETATM   15  N6  UNL     1     -15.713 -28.347 -24.637  1.00  0.00    -0.314 N 
ENDROOT
BRANCH  15  16
HETATM   16  C7  UNL     1     -16.129 -28.382 -23.275  1.00  0.00     0.190 C 
BRANCH  16  17
HETATM   17  C8  UNL     1     -15.821 -27.210 -22.469  1.00  0.00     0.044 A 
HETATM   18  C9  UNL     1     -16.127 -27.039 -21.141  1.00  0.00     0.115 A 
HETATM   19  N7  UNL     1     -15.680 -25.844 -20.759  1.00  0.00    -0.360 N 
HETATM   20  C10 UNL     1     -15.096 -25.241 -21.797  1.00  0.00     0.180 A 
ATOM     21  H7  UNL     1     -15.769 -25.453 -19.821  1.00  0.00     0.166 HD
HETATM   22  N8  UNL     1     -15.192 -26.090 -22.831  1.00  0.00    -0.353 N 
ATOM     23  H8  UNL     1     -14.832 -25.905 -23.768  1.00  0.00     0.166 HD
ENDBRANCH  16  17
ENDBRANCH  15  16
BRANCH  14  24
HETATM   24  C6  UNL     1     -17.816 -27.255 -25.653  1.00  0.00     0.306 C 
BRANCH  24  25
HETATM   25  N5  UNL     1     -18.605 -27.978 -26.629  1.00  0.00    -0.073 N 
ATOM     26  H53 UNL     1     -18.709 -27.475 -27.509  1.00  0.00     0.274 HD
ATOM     27  H52 UNL     1     -18.125 -28.798 -27.001  1.00  0.00     0.274 HD
ATOM     28  H51 UNL     1     -19.499 -28.203 -26.190  1.00  0.00     0.274 HD
ENDBRANCH  24  25
ENDBRANCH  14  24
TORSDOF 4
ENDMDL
MODEL 5
REMARK VINA RESULT: -6.473494710      1.116      1.420
REMARK  4 active torsions:
REMARK  status: ('A' for Active; 'I' for Inactive)
REMARK    1  A    between atoms: C5_14  and  C6_15 
REMARK    2  A    between atoms: C6_15  and  N5_16 
REMARK    3  A    between atoms: N6_20  and  C7_21 
REMARK    4  A    between atoms: C7_21  and  C8_22 
ROOT
HETATM    1  N1  UNL     1     -11.499 -29.668 -25.304  1.00  0.00    -0.383 N 
ATOM      2  H11 UNL     1     -11.579 -29.773 -24.292  1.00  0.00     0.157 HD
ATOM      3  H12 UNL     1     -10.636 -29.908 -25.791  1.00  0.00     0.157 HD
HETATM    4  C1  UNL     1     -12.471 -29.232 -26.023  1.00  0.00     0.131 A 
HETATM    5  N2  UNL     1     -12.368 -29.093 -27.357  1.00  0.00    -0.337 N 
ATOM      6  H2  UNL     1     -11.500 -29.336 -27.836  1.00  0.00     0.168 HD
HETATM    7  C2  UNL     1     -13.433 -28.626 -28.056  1.00  0.00     0.183 A 
HETATM    8  N3  UNL     1     -14.574 -28.308 -27.419  1.00  0.00    -0.336 N 
ATOM      9  H3  UNL     1     -15.360 -27.959 -27.965  1.00  0.00     0.168 HD
HETATM   10  C3  UNL     1     -14.718 -28.433 -26.079  1.00  0.00     0.141 A 
HETATM   11  C4  UNL     1     -13.651 -28.904 -25.357  1.00  0.00     0.122 A 
HETATM   12  N4  UNL     1     -14.040 -28.934 -24.083  1.00  0.00    -0.338 N 
ATOM     13  H4  UNL     1     -13.461 -29.241 -23.301  1.00  0.00     0.167 HD
HETATM   14  C5  UNL     1     -15.324 -28.496 -23.977  1.00  0.00     0.111 A 
HETATM   15  N6  UNL     1     -15.734 -28.189 -25.212  1.00  0.00    -0.314 N 
ENDROOT
BRANCH  15  16
HETATM   16  C7  UNL     1     -17.029 -27.698 -25.545  1.00  0.00     0.190 C 
BRANCH  16  17
HETATM   17  C8  UNL     1     -18.013 -28.685 -25.970  1.00  0.00     0.044 A 
HETATM   18  C9  UNL     1     -18.282 -29.052 -27.265  1.00  0.00     0.115 A 
HETATM   19  N7  UNL     1     -19.236 -29.981 -27.247  1.00  0.00    -0.360 N 
HETATM   20  C10 UNL     1     -19.589 -30.224 -25.982  1.00  0.00     0.180 A 
ATOM     21  H7  UNL     1     -19.634 -30.435 -28.070  1.00  0.00     0.166 HD
HETATM   22  N8  UNL     1     -18.831 -29.423 -25.218  1.00  0.00    -0.353 N 
ATOM     23  H8  UNL     1     -18.874 -29.384 -24.199  1.00  0.00     0.166 HD
ENDBRANCH  16  17
ENDBRANCH  15  16
BRANCH  14  24
HETATM   24  C6  UNL     1     -16.056 -28.420 -22.665  1.00  0.00     0.306 C 
BRANCH  24  25
HETATM   25  N5  UNL     1     -15.282 -27.565 -21.789  1.00  0.00    -0.073 N 
ATOM     26  H53 UNL     1     -15.733 -27.403 -20.889  1.00  0.00     0.274 HD
ATOM     27  H52 UNL     1     -14.438 -28.016 -21.434  1.00  0.00     0.274 HD
ATOM     28  H51 UNL     1     -15.089 -26.703 -22.299  1.00  0.00     0.274 HD
ENDBRANCH  24  25
ENDBRANCH  14  24
TORSDOF 4
ENDMDL
