MODEL 1
REMARK VINA RESULT: -7.269378960      0.000      0.000
REMARK  4 active torsions:
REMARK  status: ('A' for Active; 'I' for Inactive)
REMARK    1  A    between atoms: C1_2  and  C2_4 
REMARK    2  A    between atoms: C5_7  and  C6_8 
REMARK    3  A    between atoms: N2_9  and  N3_11 
REMARK    4  A    between atoms: N3_11  and  C7_13 
ROOT
HETATM    1  C6  UNL     1     -14.365 -27.508 -25.246  1.00  0.00     0.118 C 
HETATM    2  N2  UNL     1     -14.202 -28.511 -24.449  1.00  0.00    -0.308 N 
ATOM      3  H2  UNL     1     -14.642 -28.537 -23.529  1.00  0.00     0.186 HD
ENDROOT
BRANCH   1   4
HETATM    4  C5  UNL     1     -15.202 -26.413 -24.782  1.00  0.00    -0.018 A 
HETATM    5  C4  UNL     1     -14.607 -25.233 -24.416  1.00  0.00     0.014 A 
HETATM    6  C3  UNL     1     -15.346 -24.163 -23.970  1.00  0.00     0.019 A 
HETATM    7  C2  UNL     1     -16.732 -24.282 -23.887  1.00  0.00     0.053 A 
HETATM    8  C11 UNL     1     -17.310 -25.471 -24.257  1.00  0.00     0.062 A 
HETATM    9  C10 UNL     1     -16.562 -26.538 -24.703  1.00  0.00     0.040 A 
HETATM   10  N6  UNL     1     -18.736 -25.595 -24.172  1.00  0.00    -0.101 NA
BRANCH   7  11
HETATM   11  C1  UNL     1     -17.558 -23.183 -23.421  1.00  0.00     0.266 C 
HETATM   12  N1  UNL     1     -18.223 -22.301 -24.337  1.00  0.00    -0.057 NA
HETATM   13  O1  UNL     1     -17.679 -23.018 -22.182  1.00  0.00    -0.271 OA
ENDBRANCH   7  11
ENDBRANCH   1   4
BRANCH   2  14
HETATM   14  N3  UNL     1     -13.397 -29.559 -24.903  1.00  0.00    -0.272 N 
ATOM     15  H3  UNL     1     -13.638 -30.521 -24.666  1.00  0.00     0.190 HD
BRANCH  14  16
HETATM   16  C7  UNL     1     -12.233 -29.293 -25.701  1.00  0.00     0.190 C 
HETATM   17  N4  UNL     1     -11.028 -29.094 -25.316  1.00  0.00    -0.360 N 
HETATM   18  C8  UNL     1     -10.150 -28.862 -26.437  1.00  0.00     0.142 C 
ATOM     19  H4  UNL     1     -10.727 -29.098 -24.341  1.00  0.00     0.162 HD
HETATM   20  C9  UNL     1     -11.081 -28.534 -27.559  1.00  0.00     0.142 C 
HETATM   21  N5  UNL     1     -12.297 -29.215 -27.122  1.00  0.00    -0.360 N 
ATOM     22  H5  UNL     1     -13.047 -29.566 -27.719  1.00  0.00     0.162 HD
ENDBRANCH  14  16
ENDBRANCH   2  14
TORSDOF 4
ENDMDL
MODEL 2
REMARK VINA RESULT: -7.203349610      0.968      1.575
REMARK  4 active torsions:
REMARK  status: ('A' for Active; 'I' for Inactive)
REMARK    1  A    between atoms: C1_2  and  C2_4 
REMARK    2  A    between atoms: C5_7  and  C6_8 
REMARK    3  A    between atoms: N2_9  and  N3_11 
REMARK    4  A    between atoms: N3_11  and  C7_13 
ROOT
HETATM    1  C6  UNL     1     -14.463 -27.809 -25.175  1.00  0.00     0.118 C 
HETATM    2  N2  UNL     1     -14.182 -28.781 -24.374  1.00  0.00    -0.308 N 
ATOM      3  H2  UNL     1     -14.581 -28.832 -23.437  1.00  0.00     0.186 HD
ENDROOT
BRANCH   1   4
HETATM    4  C5  UNL     1     -15.374 -26.783 -24.689  1.00  0.00    -0.018 A 
HETATM    5  C4  UNL     1     -16.724 -26.971 -24.840  1.00  0.00     0.014 A 
HETATM    6  C3  UNL     1     -17.633 -26.038 -24.402  1.00  0.00     0.019 A 
HETATM    7  C2  UNL     1     -17.171 -24.874 -23.790  1.00  0.00     0.053 A 
HETATM    8  C11 UNL     1     -15.816 -24.703 -23.648  1.00  0.00     0.062 A 
HETATM    9  C10 UNL     1     -14.912 -25.643 -24.090  1.00  0.00     0.040 A 
HETATM   10  N6  UNL     1     -15.338 -23.507 -23.019  1.00  0.00    -0.101 NA
BRANCH   7  11
HETATM   11  C1  UNL     1     -18.089 -23.857 -23.310  1.00  0.00     0.266 C 
HETATM   12  N1  UNL     1     -18.497 -22.759 -24.138  1.00  0.00    -0.057 NA
HETATM   13  O1  UNL     1     -18.522 -23.961 -22.135  1.00  0.00    -0.271 OA
ENDBRANCH   7  11
ENDBRANCH   1   4
BRANCH   2  14
HETATM   14  N3  UNL     1     -13.307 -29.762 -24.849  1.00  0.00    -0.272 N 
ATOM     15  H3  UNL     1     -13.473 -30.742 -24.621  1.00  0.00     0.190 HD
BRANCH  14  16
HETATM   16  C7  UNL     1     -12.176 -29.402 -25.657  1.00  0.00     0.190 C 
HETATM   17  N4  UNL     1     -10.976 -29.151 -25.285  1.00  0.00    -0.360 N 
HETATM   18  C8  UNL     1     -10.134 -28.829 -26.412  1.00  0.00     0.142 C 
ATOM     19  H4  UNL     1     -10.656 -29.176 -24.317  1.00  0.00     0.162 HD
HETATM   20  C9  UNL     1     -11.103 -28.511 -27.504  1.00  0.00     0.142 C 
HETATM   21  N5  UNL     1     -12.272 -29.274 -27.072  1.00  0.00    -0.360 N 
ATOM     22  H5  UNL     1     -13.012 -29.643 -27.669  1.00  0.00     0.162 HD
ENDBRANCH  14  16
ENDBRANCH   2  14
TORSDOF 4
ENDMDL
MODEL 3
REMARK VINA RESULT: -7.121323838      3.002      7.309
REMARK  4 active torsions:
REMARK  status: ('A' for Active; 'I' for Inactive)
REMARK    1  A    between atoms: C1_2  and  C2_4 
REMARK    2  A    between atoms: C5_7  and  C6_8 
REMARK    3  A    between atoms: N2_9  and  N3_11 
REMARK    4  A    between atoms: N3_11  and  C7_13 
ROOT
HETATM    1  C6  UNL     1     -16.622 -26.737 -24.989  1.00  0.00     0.118 C 
HETATM    2  N2  UNL     1     -16.559 -26.072 -23.884  1.00  0.00    -0.308 N 
ATOM      3  H2  UNL     1     -15.665 -25.783 -23.487  1.00  0.00     0.186 HD
ENDROOT
BRANCH   1   4
HETATM    4  C5  UNL     1     -15.367 -27.058 -25.649  1.00  0.00    -0.018 A 
HETATM    5  C4  UNL     1     -14.217 -26.444 -25.223  1.00  0.00     0.014 A 
HETATM    6  C3  UNL     1     -13.002 -26.707 -25.808  1.00  0.00     0.019 A 
HETATM    7  C2  UNL     1     -12.938 -27.619 -26.860  1.00  0.00     0.053 A 
HETATM    8  C11 UNL     1     -14.098 -28.224 -27.274  1.00  0.00     0.062 A 
HETATM    9  C10 UNL     1     -15.312 -27.955 -26.682  1.00  0.00     0.040 A 
HETATM   10  N6  UNL     1     -14.034 -29.163 -28.356  1.00  0.00    -0.101 NA
BRANCH   7  11
HETATM   11  C1  UNL     1     -11.679 -27.932 -27.513  1.00  0.00     0.266 C 
HETATM   12  N1  UNL     1     -10.754 -28.875 -26.953  1.00  0.00    -0.057 NA
HETATM   13  O1  UNL     1     -11.414 -27.349 -28.594  1.00  0.00    -0.271 OA
ENDBRANCH   7  11
ENDBRANCH   1   4
BRANCH   2  14
HETATM   14  N3  UNL     1     -17.770 -25.767 -23.256  1.00  0.00    -0.272 N 
ATOM     15  H3  UNL     1     -18.215 -26.458 -22.652  1.00  0.00     0.190 HD
BRANCH  14  16
HETATM   16  C7  UNL     1     -18.395 -24.490 -23.455  1.00  0.00     0.190 C 
HETATM   17  N4  UNL     1     -19.583 -24.235 -23.858  1.00  0.00    -0.360 N 
HETATM   18  C8  UNL     1     -19.823 -22.814 -23.922  1.00  0.00     0.142 C 
ATOM     19  H4  UNL     1     -20.273 -24.946 -24.102  1.00  0.00     0.162 HD
HETATM   20  C9  UNL     1     -18.452 -22.218 -23.894  1.00  0.00     0.142 C 
HETATM   21  N5  UNL     1     -17.705 -23.269 -23.207  1.00  0.00    -0.360 N 
ATOM     22  H5  UNL     1     -16.854 -23.150 -22.656  1.00  0.00     0.162 HD
ENDBRANCH  14  16
ENDBRANCH   2  14
TORSDOF 4
ENDMDL
MODEL 4
REMARK VINA RESULT: -7.014074070      1.962      2.288
REMARK  4 active torsions:
REMARK  status: ('A' for Active; 'I' for Inactive)
REMARK    1  A    between atoms: C1_2  and  C2_4 
REMARK    2  A    between atoms: C5_7  and  C6_8 
REMARK    3  A    between atoms: N2_9  and  N3_11 
REMARK    4  A    between atoms: N3_11  and  C7_13 
ROOT
HETATM    1  C6  UNL     1     -14.903 -28.810 -24.898  1.00  0.00     0.118 C 
HETATM    2  N2  UNL     1     -13.930 -29.307 -24.210  1.00  0.00    -0.308 N 
ATOM      3  H2  UNL     1     -13.837 -29.125 -23.211  1.00  0.00     0.186 HD
ENDROOT
BRANCH   1   4
HETATM    4  C5  UNL     1     -15.866 -27.979 -24.193  1.00  0.00    -0.018 A 
HETATM    5  C4  UNL     1     -16.621 -27.086 -24.909  1.00  0.00     0.014 A 
HETATM    6  C3  UNL     1     -17.546 -26.274 -24.298  1.00  0.00     0.019 A 
HETATM    7  C2  UNL     1     -17.720 -26.361 -22.918  1.00  0.00     0.053 A 
HETATM    8  C11 UNL     1     -16.956 -27.261 -22.217  1.00  0.00     0.062 A 
HETATM    9  C10 UNL     1     -16.031 -28.070 -22.837  1.00  0.00     0.040 A 
HETATM   10  N6  UNL     1     -17.134 -27.352 -20.797  1.00  0.00    -0.101 NA
BRANCH   7  11
HETATM   11  C1  UNL     1     -18.684 -25.526 -22.223  1.00  0.00     0.266 C 
HETATM   12  N1  UNL     1     -20.005 -25.996 -21.917  1.00  0.00    -0.057 NA
HETATM   13  O1  UNL     1     -18.331 -24.367 -21.893  1.00  0.00    -0.271 OA
ENDBRANCH   7  11
ENDBRANCH   1   4
BRANCH   2  14
HETATM   14  N3  UNL     1     -13.010 -30.105 -24.896  1.00  0.00    -0.272 N 
ATOM     15  H3  UNL     1     -13.090 -31.120 -24.852  1.00  0.00     0.190 HD
BRANCH  14  16
HETATM   16  C7  UNL     1     -11.953 -29.507 -25.662  1.00  0.00     0.190 C 
HETATM   17  N4  UNL     1     -10.768 -29.199 -25.286  1.00  0.00    -0.360 N 
HETATM   18  C8  UNL     1     -10.009 -28.616 -26.365  1.00  0.00     0.142 C 
ATOM     19  H4  UNL     1     -10.407 -29.348 -24.343  1.00  0.00     0.162 HD
HETATM   20  C9  UNL     1     -11.049 -28.225 -27.364  1.00  0.00     0.142 C 
HETATM   21  N5  UNL     1     -12.120 -29.162 -27.034  1.00  0.00    -0.360 N 
ATOM     22  H5  UNL     1     -12.847 -29.502 -27.664  1.00  0.00     0.162 HD
ENDBRANCH  14  16
ENDBRANCH   2  14
TORSDOF 4
ENDMDL
MODEL 5
REMARK VINA RESULT: -6.975798905      1.974      2.229
REMARK  4 active torsions:
REMARK  status: ('A' for Active; 'I' for Inactive)
REMARK    1  A    between atoms: C1_2  and  C2_4 
REMARK    2  A    between atoms: C5_7  and  C6_8 
REMARK    3  A    between atoms: N2_9  and  N3_11 
REMARK    4  A    between atoms: N3_11  and  C7_13 
ROOT
HETATM    1  C6  UNL     1     -14.978 -28.939 -24.814  1.00  0.00     0.118 C 
HETATM    2  N2  UNL     1     -13.947 -29.347 -24.153  1.00  0.00    -0.308 N 
ATOM      3  H2  UNL     1     -13.818 -29.112 -23.169  1.00  0.00     0.186 HD
ENDROOT
BRANCH   1   4
HETATM    4  C5  UNL     1     -15.953 -28.129 -24.099  1.00  0.00    -0.018 A 
HETATM    5  C4  UNL     1     -15.861 -28.031 -22.735  1.00  0.00     0.014 A 
HETATM    6  C3  UNL     1     -16.753 -27.282 -22.006  1.00  0.00     0.019 A 
HETATM    7  C2  UNL     1     -17.775 -26.607 -22.670  1.00  0.00     0.053 A 
HETATM    8  C11 UNL     1     -17.852 -26.716 -24.037  1.00  0.00     0.062 A 
HETATM    9  C10 UNL     1     -16.954 -27.469 -24.759  1.00  0.00     0.040 A 
HETATM   10  N6  UNL     1     -18.903 -26.022 -24.722  1.00  0.00    -0.101 NA
BRANCH   7  11
HETATM   11  C1  UNL     1     -18.744 -25.802 -21.947  1.00  0.00     0.266 C 
HETATM   12  N1  UNL     1     -19.925 -26.379 -21.374  1.00  0.00    -0.057 NA
HETATM   13  O1  UNL     1     -18.521 -24.570 -21.834  1.00  0.00    -0.271 OA
ENDBRANCH   7  11
ENDBRANCH   1   4
BRANCH   2  14
HETATM   14  N3  UNL     1     -13.015 -30.125 -24.847  1.00  0.00    -0.272 N 
ATOM     15  H3  UNL     1     -13.050 -31.141 -24.772  1.00  0.00     0.190 HD
BRANCH  14  16
HETATM   16  C7  UNL     1     -12.010 -29.505 -25.664  1.00  0.00     0.190 C 
HETATM   17  N4  UNL     1     -10.824 -29.149 -25.339  1.00  0.00    -0.360 N 
HETATM   18  C8  UNL     1     -10.128 -28.561 -26.457  1.00  0.00     0.142 C 
ATOM     19  H4  UNL     1     -10.422 -29.267 -24.409  1.00  0.00     0.162 HD
HETATM   20  C9  UNL     1     -11.218 -28.225 -27.422  1.00  0.00     0.142 C 
HETATM   21  N5  UNL     1     -12.242 -29.192 -27.034  1.00  0.00    -0.360 N 
ATOM     22  H5  UNL     1     -12.980 -29.570 -27.629  1.00  0.00     0.162 HD
ENDBRANCH  14  16
ENDBRANCH   2  14
TORSDOF 4
ENDMDL
