MODEL 1
REMARK VINA RESULT: -8.239145661      0.000      0.000
REMARK  17 active torsions:
REMARK  status: ('A' for Active; 'I' for Inactive)
REMARK    1  A    between atoms: C3_3  and  C4_4 
REMARK    2  A    between atoms: C4_4  and  C5_5 
REMARK    3  A    between atoms: C5_5  and  C6_6 
REMARK    4  A    between atoms: C6_6  and  C7_7 
REMARK    5  A    between atoms: C7_7  and  C8_8 
REMARK    6  A    between atoms: C8_8  and  C9_9 
REMARK    7  A    between atoms: C9_9  and  C10_10 
REMARK    8  A    between atoms: C10_10  and  C11_11 
REMARK    9  A    between atoms: C11_11  and  C12_12 
REMARK   10  A    between atoms: C12_12  and  C13_13 
REMARK   11  A    between atoms: C13_13  and  C14_14 
REMARK   12  A    between atoms: C14_14  and  C15_15 
REMARK   13  A    between atoms: C15_15  and  C16_16 
REMARK   14  A    between atoms: C16_16  and  C17_17 
REMARK   15  A    between atoms: C17_17  and  C18_18 
REMARK   16  A    between atoms: C18_18  and  N1_19 
REMARK   17  A    between atoms: N1_19  and  C19_21 
ROOT
HETATM    1  C1  UNL     1     -10.485   1.961  -0.230  1.00  0.00     0.012 C 
HETATM    2  C2  UNL     1     -10.749   2.245  -1.372  1.00  0.00    -0.117 C 
HETATM    3  C3  UNL     1     -11.080   2.618  -2.769  1.00  0.00     0.093 C 
ENDROOT
BRANCH   3   4
HETATM    4  C4  UNL     1     -11.889   3.894  -2.702  1.00  0.00     0.012 C 
BRANCH   4   5
HETATM    5  C5  UNL     1     -13.366   3.646  -2.594  1.00  0.00     0.001 C 
BRANCH   5   6
HETATM    6  C6  UNL     1     -14.150   4.921  -2.379  1.00  0.00     0.000 C 
BRANCH   6   7
HETATM    7  C7  UNL     1     -13.550   5.714  -1.238  1.00  0.00     0.000 C 
BRANCH   7   8
HETATM    8  C8  UNL     1     -14.616   6.185  -0.269  1.00  0.00     0.000 C 
BRANCH   8   9
HETATM    9  C9  UNL     1     -15.255   4.964   0.302  1.00  0.00     0.000 C 
BRANCH   9  10
HETATM   10  C10 UNL     1     -14.351   4.019   0.987  1.00  0.00     0.000 C 
BRANCH  10  11
HETATM   11  C11 UNL     1     -14.772   2.600   1.043  1.00  0.00     0.000 C 
BRANCH  11  12
HETATM   12  C12 UNL     1     -16.218   2.410   1.416  1.00  0.00     0.000 C 
BRANCH  12  13
HETATM   13  C13 UNL     1     -16.439   2.322   2.897  1.00  0.00     0.000 C 
BRANCH  13  14
HETATM   14  C14 UNL     1     -15.748   1.139   3.523  1.00  0.00     0.000 C 
BRANCH  14  15
HETATM   15  C15 UNL     1     -16.665   0.308   4.377  1.00  0.00     0.000 C 
BRANCH  15  16
HETATM   16  C16 UNL     1     -15.866  -0.541   5.360  1.00  0.00     0.002 C 
BRANCH  16  17
HETATM   17  C17 UNL     1     -15.907  -1.990   5.005  1.00  0.00     0.020 C 
BRANCH  17  18
HETATM   18  C18 UNL     1     -14.700  -2.781   5.324  1.00  0.00     0.121 C 
BRANCH  18  19
HETATM   19  N1  UNL     1     -14.563  -3.329   6.621  1.00  0.00    -0.380 N 
ATOM     20  H1  UNL     1     -15.324  -3.190   7.286  1.00  0.00     0.160 HD
BRANCH  19  21
HETATM   21  C19 UNL     1     -13.417  -4.066   7.049  1.00  0.00     0.072 C 
HETATM   22  N2  UNL     1     -12.208  -3.683   6.853  1.00  0.00    -0.380 N 
HETATM   23  C20 UNL     1     -11.235  -4.618   7.391  1.00  0.00     0.121 C 
ATOM     24  H2  UNL     1     -11.958  -2.818   6.373  1.00  0.00     0.160 HD
HETATM   25  C21 UNL     1     -12.052  -5.310   8.507  1.00  0.00     0.027 C 
HETATM   26  C22 UNL     1     -13.401  -5.339   7.785  1.00  0.00     0.077 C 
ENDBRANCH  19  21
ENDBRANCH  18  19
ENDBRANCH  17  18
ENDBRANCH  16  17
ENDBRANCH  15  16
ENDBRANCH  14  15
ENDBRANCH  13  14
ENDBRANCH  12  13
ENDBRANCH  11  12
ENDBRANCH  10  11
ENDBRANCH   9  10
ENDBRANCH   8   9
ENDBRANCH   7   8
ENDBRANCH   6   7
ENDBRANCH   5   6
ENDBRANCH   4   5
ENDBRANCH   3   4
TORSDOF 17
ENDMDL
MODEL 2
REMARK VINA RESULT: -8.003944446      1.585      1.791
REMARK  17 active torsions:
REMARK  status: ('A' for Active; 'I' for Inactive)
REMARK    1  A    between atoms: C3_3  and  C4_4 
REMARK    2  A    between atoms: C4_4  and  C5_5 
REMARK    3  A    between atoms: C5_5  and  C6_6 
REMARK    4  A    between atoms: C6_6  and  C7_7 
REMARK    5  A    between atoms: C7_7  and  C8_8 
REMARK    6  A    between atoms: C8_8  and  C9_9 
REMARK    7  A    between atoms: C9_9  and  C10_10 
REMARK    8  A    between atoms: C10_10  and  C11_11 
REMARK    9  A    between atoms: C11_11  and  C12_12 
REMARK   10  A    between atoms: C12_12  and  C13_13 
REMARK   11  A    between atoms: C13_13  and  C14_14 
REMARK   12  A    between atoms: C14_14  and  C15_15 
REMARK   13  A    between atoms: C15_15  and  C16_16 
REMARK   14  A    between atoms: C16_16  and  C17_17 
REMARK   15  A    between atoms: C17_17  and  C18_18 
REMARK   16  A    between atoms: C18_18  and  N1_19 
REMARK   17  A    between atoms: N1_19  and  C19_21 
ROOT
HETATM    1  C1  UNL     1     -10.257   2.143  -0.682  1.00  0.00     0.012 C 
HETATM    2  C2  UNL     1     -10.893   2.198  -1.705  1.00  0.00    -0.117 C 
HETATM    3  C3  UNL     1     -11.682   2.289  -2.958  1.00  0.00     0.093 C 
ENDROOT
BRANCH   3   4
HETATM    4  C4  UNL     1     -12.558   3.516  -2.836  1.00  0.00     0.012 C 
BRANCH   4   5
HETATM    5  C5  UNL     1     -11.784   4.757  -2.497  1.00  0.00     0.001 C 
BRANCH   5   6
HETATM    6  C6  UNL     1     -12.627   5.780  -1.769  1.00  0.00     0.000 C 
BRANCH   6   7
HETATM    7  C7  UNL     1     -14.009   5.223  -1.504  1.00  0.00     0.000 C 
BRANCH   7   8
HETATM    8  C8  UNL     1     -14.613   5.814  -0.246  1.00  0.00     0.000 C 
BRANCH   8   9
HETATM    9  C9  UNL     1     -15.029   4.669   0.615  1.00  0.00     0.000 C 
BRANCH   9  10
HETATM   10  C10 UNL     1     -15.965   3.705   0.004  1.00  0.00     0.000 C 
BRANCH  10  11
HETATM   11  C11 UNL     1     -16.452   2.599   0.860  1.00  0.00     0.000 C 
BRANCH  11  12
HETATM   12  C12 UNL     1     -15.528   2.263   2.000  1.00  0.00     0.000 C 
BRANCH  12  13
HETATM   13  C13 UNL     1     -16.253   1.873   3.254  1.00  0.00     0.000 C 
BRANCH  13  14
HETATM   14  C14 UNL     1     -15.672   0.647   3.909  1.00  0.00     0.000 C 
BRANCH  14  15
HETATM   15  C15 UNL     1     -16.676  -0.110   4.733  1.00  0.00     0.000 C 
BRANCH  15  16
HETATM   16  C16 UNL     1     -16.071  -0.534   6.067  1.00  0.00     0.002 C 
BRANCH  16  17
HETATM   17  C17 UNL     1     -15.383  -1.855   5.971  1.00  0.00     0.020 C 
BRANCH  17  18
HETATM   18  C18 UNL     1     -15.730  -2.696   4.807  1.00  0.00     0.121 C 
BRANCH  18  19
HETATM   19  N1  UNL     1     -16.313  -3.966   5.028  1.00  0.00    -0.380 N 
ATOM     20  H1  UNL     1     -17.270  -4.119   4.712  1.00  0.00     0.160 HD
BRANCH  19  21
HETATM   21  C19 UNL     1     -15.632  -5.045   5.670  1.00  0.00     0.072 C 
HETATM   22  N2  UNL     1     -14.519  -5.532   5.257  1.00  0.00    -0.380 N 
HETATM   23  C20 UNL     1     -14.045  -6.622   6.093  1.00  0.00     0.121 C 
ATOM     24  H2  UNL     1     -14.022  -5.193   4.433  1.00  0.00     0.160 HD
HETATM   25  C21 UNL     1     -14.722  -6.294   7.444  1.00  0.00     0.027 C 
HETATM   26  C22 UNL     1     -16.044  -5.760   6.887  1.00  0.00     0.077 C 
ENDBRANCH  19  21
ENDBRANCH  18  19
ENDBRANCH  17  18
ENDBRANCH  16  17
ENDBRANCH  15  16
ENDBRANCH  14  15
ENDBRANCH  13  14
ENDBRANCH  12  13
ENDBRANCH  11  12
ENDBRANCH  10  11
ENDBRANCH   9  10
ENDBRANCH   8   9
ENDBRANCH   7   8
ENDBRANCH   6   7
ENDBRANCH   5   6
ENDBRANCH   4   5
ENDBRANCH   3   4
TORSDOF 17
ENDMDL
MODEL 3
REMARK VINA RESULT: -7.739465765      3.441     10.173
REMARK  17 active torsions:
REMARK  status: ('A' for Active; 'I' for Inactive)
REMARK    1  A    between atoms: C3_3  and  C4_4 
REMARK    2  A    between atoms: C4_4  and  C5_5 
REMARK    3  A    between atoms: C5_5  and  C6_6 
REMARK    4  A    between atoms: C6_6  and  C7_7 
REMARK    5  A    between atoms: C7_7  and  C8_8 
REMARK    6  A    between atoms: C8_8  and  C9_9 
REMARK    7  A    between atoms: C9_9  and  C10_10 
REMARK    8  A    between atoms: C10_10  and  C11_11 
REMARK    9  A    between atoms: C11_11  and  C12_12 
REMARK   10  A    between atoms: C12_12  and  C13_13 
REMARK   11  A    between atoms: C13_13  and  C14_14 
REMARK   12  A    between atoms: C14_14  and  C15_15 
REMARK   13  A    between atoms: C15_15  and  C16_16 
REMARK   14  A    between atoms: C16_16  and  C17_17 
REMARK   15  A    between atoms: C17_17  and  C18_18 
REMARK   16  A    between atoms: C18_18  and  N1_19 
REMARK   17  A    between atoms: N1_19  and  C19_21 
ROOT
HETATM    1  C1  UNL     1     -11.240  -3.383   6.573  1.00  0.00     0.012 C 
HETATM    2  C2  UNL     1     -11.599  -4.227   7.357  1.00  0.00    -0.117 C 
HETATM    3  C3  UNL     1     -12.059  -5.268   8.307  1.00  0.00     0.093 C 
ENDROOT
BRANCH   3   4
HETATM    4  C4  UNL     1     -13.505  -5.561   7.970  1.00  0.00     0.012 C 
BRANCH   4   5
HETATM    5  C5  UNL     1     -13.669  -6.254   6.649  1.00  0.00     0.001 C 
BRANCH   5   6
HETATM    6  C6  UNL     1     -14.666  -5.556   5.752  1.00  0.00     0.000 C 
BRANCH   6   7
HETATM    7  C7  UNL     1     -15.195  -4.312   6.432  1.00  0.00     0.000 C 
BRANCH   7   8
HETATM    8  C8  UNL     1     -14.848  -3.062   5.649  1.00  0.00     0.000 C 
BRANCH   8   9
HETATM    9  C9  UNL     1     -14.992  -1.908   6.584  1.00  0.00     0.000 C 
BRANCH   9  10
HETATM   10  C10 UNL     1     -15.741  -0.745   6.069  1.00  0.00     0.000 C 
BRANCH  10  11
HETATM   11  C11 UNL     1     -15.726  -0.525   4.605  1.00  0.00     0.000 C 
BRANCH  11  12
HETATM   12  C12 UNL     1     -16.398   0.752   4.177  1.00  0.00     0.000 C 
BRANCH  12  13
HETATM   13  C13 UNL     1     -15.625   1.505   3.135  1.00  0.00     0.000 C 
BRANCH  13  14
HETATM   14  C14 UNL     1     -16.501   2.373   2.270  1.00  0.00     0.000 C 
BRANCH  14  15
HETATM   15  C15 UNL     1     -15.900   2.654   0.921  1.00  0.00     0.000 C 
BRANCH  15  16
HETATM   16  C16 UNL     1     -14.634   3.495   1.058  1.00  0.00     0.002 C 
BRANCH  16  17
HETATM   17  C17 UNL     1     -14.734   4.778   0.304  1.00  0.00     0.020 C 
BRANCH  17  18
HETATM   18  C18 UNL     1     -13.828   4.934  -0.854  1.00  0.00     0.121 C 
BRANCH  18  19
HETATM   19  N1  UNL     1     -13.669   3.850  -1.749  1.00  0.00    -0.380 N 
ATOM     20  H1  UNL     1     -14.472   3.566  -2.310  1.00  0.00     0.160 HD
BRANCH  19  21
HETATM   21  C19 UNL     1     -12.445   3.133  -1.911  1.00  0.00     0.072 C 
HETATM   22  N2  UNL     1     -11.967   2.786  -3.050  1.00  0.00    -0.380 N 
HETATM   23  C20 UNL     1     -10.709   2.069  -2.929  1.00  0.00     0.121 C 
ATOM     24  H2  UNL     1     -12.420   2.990  -3.941  1.00  0.00     0.160 HD
HETATM   25  C21 UNL     1     -10.178   2.597  -1.576  1.00  0.00     0.027 C 
HETATM   26  C22 UNL     1     -11.523   2.694  -0.852  1.00  0.00     0.077 C 
ENDBRANCH  19  21
ENDBRANCH  18  19
ENDBRANCH  17  18
ENDBRANCH  16  17
ENDBRANCH  15  16
ENDBRANCH  14  15
ENDBRANCH  13  14
ENDBRANCH  12  13
ENDBRANCH  11  12
ENDBRANCH  10  11
ENDBRANCH   9  10
ENDBRANCH   8   9
ENDBRANCH   7   8
ENDBRANCH   6   7
ENDBRANCH   5   6
ENDBRANCH   4   5
ENDBRANCH   3   4
TORSDOF 17
ENDMDL
MODEL 4
REMARK VINA RESULT: -7.696228216      1.478      1.727
REMARK  17 active torsions:
REMARK  status: ('A' for Active; 'I' for Inactive)
REMARK    1  A    between atoms: C3_3  and  C4_4 
REMARK    2  A    between atoms: C4_4  and  C5_5 
REMARK    3  A    between atoms: C5_5  and  C6_6 
REMARK    4  A    between atoms: C6_6  and  C7_7 
REMARK    5  A    between atoms: C7_7  and  C8_8 
REMARK    6  A    between atoms: C8_8  and  C9_9 
REMARK    7  A    between atoms: C9_9  and  C10_10 
REMARK    8  A    between atoms: C10_10  and  C11_11 
REMARK    9  A    between atoms: C11_11  and  C12_12 
REMARK   10  A    between atoms: C12_12  and  C13_13 
REMARK   11  A    between atoms: C13_13  and  C14_14 
REMARK   12  A    between atoms: C14_14  and  C15_15 
REMARK   13  A    between atoms: C15_15  and  C16_16 
REMARK   14  A    between atoms: C16_16  and  C17_17 
REMARK   15  A    between atoms: C17_17  and  C18_18 
REMARK   16  A    between atoms: C18_18  and  N1_19 
REMARK   17  A    between atoms: N1_19  and  C19_21 
ROOT
HETATM    1  C1  UNL     1      -9.750   2.249  -0.345  1.00  0.00     0.012 C 
HETATM    2  C2  UNL     1     -10.145   2.206  -1.483  1.00  0.00    -0.117 C 
HETATM    3  C3  UNL     1     -10.651   2.165  -2.877  1.00  0.00     0.093 C 
ENDROOT
BRANCH   3   4
HETATM    4  C4  UNL     1     -12.129   2.484  -2.816  1.00  0.00     0.012 C 
BRANCH   4   5
HETATM    5  C5  UNL     1     -12.439   3.648  -1.920  1.00  0.00     0.001 C 
BRANCH   5   6
HETATM    6  C6  UNL     1     -12.181   4.977  -2.592  1.00  0.00     0.000 C 
BRANCH   6   7
HETATM    7  C7  UNL     1     -12.926   6.079  -1.870  1.00  0.00     0.000 C 
BRANCH   7   8
HETATM    8  C8  UNL     1     -14.355   5.676  -1.566  1.00  0.00     0.000 C 
BRANCH   8   9
HETATM    9  C9  UNL     1     -14.619   6.049  -0.146  1.00  0.00     0.000 C 
BRANCH   9  10
HETATM   10  C10 UNL     1     -15.296   5.029   0.678  1.00  0.00     0.000 C 
BRANCH  10  11
HETATM   11  C11 UNL     1     -15.445   3.677   0.093  1.00  0.00     0.000 C 
BRANCH  11  12
HETATM   12  C12 UNL     1     -15.024   2.566   1.017  1.00  0.00     0.000 C 
BRANCH  12  13
HETATM   13  C13 UNL     1     -16.091   2.173   1.994  1.00  0.00     0.000 C 
BRANCH  13  14
HETATM   14  C14 UNL     1     -15.551   1.409   3.175  1.00  0.00     0.000 C 
BRANCH  14  15
HETATM   15  C15 UNL     1     -16.633   0.811   4.031  1.00  0.00     0.000 C 
BRANCH  15  16
HETATM   16  C16 UNL     1     -16.031   0.024   5.191  1.00  0.00     0.002 C 
BRANCH  16  17
HETATM   17  C17 UNL     1     -16.301  -1.439   5.071  1.00  0.00     0.020 C 
BRANCH  17  18
HETATM   18  C18 UNL     1     -15.163  -2.288   4.661  1.00  0.00     0.121 C 
BRANCH  18  19
HETATM   19  N1  UNL     1     -14.474  -3.033   5.646  1.00  0.00    -0.380 N 
ATOM     20  H1  UNL     1     -13.839  -2.536   6.270  1.00  0.00     0.160 HD
BRANCH  19  21
HETATM   21  C19 UNL     1     -14.621  -4.443   5.815  1.00  0.00     0.072 C 
HETATM   22  N2  UNL     1     -13.635  -5.263   5.852  1.00  0.00    -0.380 N 
HETATM   23  C20 UNL     1     -14.064  -6.640   6.036  1.00  0.00     0.121 C 
ATOM     24  H2  UNL     1     -12.659  -4.981   5.761  1.00  0.00     0.160 HD
HETATM   25  C21 UNL     1     -15.424  -6.449   6.747  1.00  0.00     0.027 C 
HETATM   26  C22 UNL     1     -15.873  -5.193   5.997  1.00  0.00     0.077 C 
ENDBRANCH  19  21
ENDBRANCH  18  19
ENDBRANCH  17  18
ENDBRANCH  16  17
ENDBRANCH  15  16
ENDBRANCH  14  15
ENDBRANCH  13  14
ENDBRANCH  12  13
ENDBRANCH  11  12
ENDBRANCH  10  11
ENDBRANCH   9  10
ENDBRANCH   8   9
ENDBRANCH   7   8
ENDBRANCH   6   7
ENDBRANCH   5   6
ENDBRANCH   4   5
ENDBRANCH   3   4
TORSDOF 17
ENDMDL
MODEL 5
REMARK VINA RESULT: -7.500094393      4.479     10.809
REMARK  17 active torsions:
REMARK  status: ('A' for Active; 'I' for Inactive)
REMARK    1  A    between atoms: C3_3  and  C4_4 
REMARK    2  A    between atoms: C4_4  and  C5_5 
REMARK    3  A    between atoms: C5_5  and  C6_6 
REMARK    4  A    between atoms: C6_6  and  C7_7 
REMARK    5  A    between atoms: C7_7  and  C8_8 
REMARK    6  A    between atoms: C8_8  and  C9_9 
REMARK    7  A    between atoms: C9_9  and  C10_10 
REMARK    8  A    between atoms: C10_10  and  C11_11 
REMARK    9  A    between atoms: C11_11  and  C12_12 
REMARK   10  A    between atoms: C12_12  and  C13_13 
REMARK   11  A    between atoms: C13_13  and  C14_14 
REMARK   12  A    between atoms: C14_14  and  C15_15 
REMARK   13  A    between atoms: C15_15  and  C16_16 
REMARK   14  A    between atoms: C16_16  and  C17_17 
REMARK   15  A    between atoms: C17_17  and  C18_18 
REMARK   16  A    between atoms: C18_18  and  N1_19 
REMARK   17  A    between atoms: N1_19  and  C19_21 
ROOT
HETATM    1  C1  UNL     1     -15.655  -2.541  13.158  1.00  0.00     0.012 C 
HETATM    2  C2  UNL     1     -16.043  -2.337  12.034  1.00  0.00    -0.117 C 
HETATM    3  C3  UNL     1     -16.525  -2.062  10.658  1.00  0.00     0.093 C 
ENDROOT
BRANCH   3   4
HETATM    4  C4  UNL     1     -17.291  -0.759  10.715  1.00  0.00     0.012 C 
BRANCH   4   5
HETATM    5  C5  UNL     1     -17.253  -0.001   9.419  1.00  0.00     0.001 C 
BRANCH   5   6
HETATM    6  C6  UNL     1     -15.959  -0.210   8.667  1.00  0.00     0.000 C 
BRANCH   6   7
HETATM    7  C7  UNL     1     -16.136   0.163   7.211  1.00  0.00     0.000 C 
BRANCH   7   8
HETATM    8  C8  UNL     1     -17.093  -0.780   6.510  1.00  0.00     0.000 C 
BRANCH   8   9
HETATM    9  C9  UNL     1     -16.680  -0.832   5.077  1.00  0.00     0.000 C 
BRANCH   9  10
HETATM   10  C10 UNL     1     -16.949   0.380   4.280  1.00  0.00     0.000 C 
BRANCH  10  11
HETATM   11  C11 UNL     1     -15.788   1.041   3.640  1.00  0.00     0.000 C 
BRANCH  11  12
HETATM   12  C12 UNL     1     -16.162   2.193   2.747  1.00  0.00     0.000 C 
BRANCH  12  13
HETATM   13  C13 UNL     1     -15.264   2.332   1.554  1.00  0.00     0.000 C 
BRANCH  13  14
HETATM   14  C14 UNL     1     -14.732   3.731   1.381  1.00  0.00     0.000 C 
BRANCH  14  15
HETATM   15  C15 UNL     1     -15.368   4.463   0.233  1.00  0.00     0.000 C 
BRANCH  15  16
HETATM   16  C16 UNL     1     -14.685   5.807   0.004  1.00  0.00     0.002 C 
BRANCH  16  17
HETATM   17  C17 UNL     1     -14.205   5.956  -1.401  1.00  0.00     0.020 C 
BRANCH  17  18
HETATM   18  C18 UNL     1     -12.751   5.799  -1.620  1.00  0.00     0.121 C 
BRANCH  18  19
HETATM   19  N1  UNL     1     -12.303   4.920  -2.633  1.00  0.00    -0.380 N 
ATOM     20  H1  UNL     1     -12.347   5.237  -3.601  1.00  0.00     0.160 HD
BRANCH  19  21
HETATM   21  C19 UNL     1     -11.792   3.612  -2.373  1.00  0.00     0.072 C 
HETATM   22  N2  UNL     1     -11.322   2.837  -3.282  1.00  0.00    -0.380 N 
HETATM   23  C20 UNL     1     -10.867   1.565  -2.745  1.00  0.00     0.121 C 
ATOM     24  H2  UNL     1     -11.273   3.085  -4.270  1.00  0.00     0.160 HD
HETATM   25  C21 UNL     1     -10.545   1.942  -1.281  1.00  0.00     0.027 C 
HETATM   26  C22 UNL     1     -11.687   2.938  -1.070  1.00  0.00     0.077 C 
ENDBRANCH  19  21
ENDBRANCH  18  19
ENDBRANCH  17  18
ENDBRANCH  16  17
ENDBRANCH  15  16
ENDBRANCH  14  15
ENDBRANCH  13  14
ENDBRANCH  12  13
ENDBRANCH  11  12
ENDBRANCH  10  11
ENDBRANCH   9  10
ENDBRANCH   8   9
ENDBRANCH   7   8
ENDBRANCH   6   7
ENDBRANCH   5   6
ENDBRANCH   4   5
ENDBRANCH   3   4
TORSDOF 17
ENDMDL
