MODEL 1
REMARK VINA RESULT: -7.728913776      0.000      0.000
REMARK  18 active torsions:
REMARK  status: ('A' for Active; 'I' for Inactive)
REMARK    1  A    between atoms: N1_1  and  C1_5 
REMARK    2  A    between atoms: C1_5  and  C2_6 
REMARK    3  A    between atoms: C2_6  and  C3_7 
REMARK    4  A    between atoms: C3_7  and  C4_8 
REMARK    5  A    between atoms: C4_8  and  C5_9 
REMARK    6  A    between atoms: C5_9  and  C6_10 
REMARK    7  A    between atoms: C6_10  and  C7_11 
REMARK    8  A    between atoms: C7_11  and  C8_12 
REMARK    9  A    between atoms: C8_12  and  C9_13 
REMARK   10  A    between atoms: C9_13  and  C10_14 
REMARK   11  A    between atoms: C10_14  and  C11_15 
REMARK   12  A    between atoms: C11_15  and  C12_16 
REMARK   13  A    between atoms: C12_16  and  C13_17 
REMARK   14  A    between atoms: C13_17  and  C14_18 
REMARK   15  A    between atoms: C14_18  and  C15_19 
REMARK   16  A    between atoms: C15_19  and  C16_20 
REMARK   17  A    between atoms: C19_23  and  C20_24 
REMARK   18  A    between atoms: C20_24  and  N2_25 
ROOT
HETATM    1  C11 UNL     1     -16.313   2.668   0.889  1.00  0.00     0.000 C 
ENDROOT
BRANCH   1   2
HETATM    2  C10 UNL     1     -15.679   3.549  -0.101  1.00  0.00     0.000 C 
BRANCH   2   3
HETATM    3  C9  UNL     1     -14.746   4.530   0.614  1.00  0.00     0.000 C 
BRANCH   3   4
HETATM    4  C8  UNL     1     -14.792   5.862  -0.018  1.00  0.00     0.000 C 
BRANCH   4   5
HETATM    5  C7  UNL     1     -14.324   5.736  -1.471  1.00  0.00     0.000 C 
BRANCH   5   6
HETATM    6  C6  UNL     1     -12.995   6.385  -1.645  1.00  0.00     0.000 C 
BRANCH   6   7
HETATM    7  C5  UNL     1     -12.022   5.297  -2.070  1.00  0.00     0.000 C 
BRANCH   7   8
HETATM    8  C4  UNL     1     -12.705   4.034  -2.512  1.00  0.00     0.000 C 
BRANCH   8   9
HETATM    9  C3  UNL     1     -11.846   2.841  -2.193  1.00  0.00     0.002 C 
BRANCH   9  10
HETATM   10  C2  UNL     1     -11.676   2.674  -0.695  1.00  0.00     0.027 C 
BRANCH  10  11
HETATM   11  C1  UNL     1     -10.292   2.160  -0.355  1.00  0.00     0.229 C 
BRANCH  11  12
HETATM   12  N1  UNL     1      -9.405   2.536  -1.427  1.00  0.00    -0.079 N 
ATOM     13  H13 UNL     1      -9.736   2.228  -2.341  1.00  0.00     0.274 HD
ATOM     14  H12 UNL     1      -9.412   3.539  -1.612  1.00  0.00     0.274 HD
ATOM     15  H11 UNL     1      -8.475   2.182  -1.203  1.00  0.00     0.274 HD
ENDBRANCH  11  12
ENDBRANCH  10  11
ENDBRANCH   9  10
ENDBRANCH   8   9
ENDBRANCH   7   8
ENDBRANCH   6   7
ENDBRANCH   5   6
ENDBRANCH   4   5
ENDBRANCH   3   4
ENDBRANCH   2   3
ENDBRANCH   1   2
BRANCH   1  16
HETATM   16  C12 UNL     1     -15.464   2.262   2.032  1.00  0.00     0.000 C 
BRANCH  16  17
HETATM   17  C13 UNL     1     -16.046   1.936   3.322  1.00  0.00     0.000 C 
BRANCH  17  18
HETATM   18  C14 UNL     1     -15.842   0.670   4.021  1.00  0.00     0.000 C 
BRANCH  18  19
HETATM   19  C15 UNL     1     -17.042  -0.013   4.593  1.00  0.00     0.005 C 
BRANCH  19  20
HETATM   20  C16 UNL     1     -16.695  -1.203   5.451  1.00  0.00    -0.014 C 
HETATM   21  C17 UNL     1     -16.348  -0.687   6.833  1.00  0.00     0.005 C 
HETATM   22  C18 UNL     1     -15.144  -1.444   7.290  1.00  0.00     0.007 C 
HETATM   23  C19 UNL     1     -14.689  -2.358   6.203  1.00  0.00     0.011 C 
HETATM   24  C21 UNL     1     -15.474  -1.943   4.979  1.00  0.00     0.011 C 
BRANCH  23  25
HETATM   25  C20 UNL     1     -15.037  -3.812   6.482  1.00  0.00     0.234 C 
BRANCH  25  26
HETATM   26  N2  UNL     1     -14.307  -4.628   5.560  1.00  0.00    -0.079 N 
ATOM     27  H23 UNL     1     -14.475  -4.371   4.587  1.00  0.00     0.274 HD
ATOM     28  H22 UNL     1     -13.304  -4.444   5.579  1.00  0.00     0.274 HD
ATOM     29  H21 UNL     1     -14.533  -5.604   5.754  1.00  0.00     0.274 HD
ENDBRANCH  25  26
ENDBRANCH  23  25
ENDBRANCH  19  20
ENDBRANCH  18  19
ENDBRANCH  17  18
ENDBRANCH  16  17
ENDBRANCH   1  16
TORSDOF 18
ENDMDL
MODEL 2
REMARK VINA RESULT: -7.613650775      0.992      1.601
REMARK  18 active torsions:
REMARK  status: ('A' for Active; 'I' for Inactive)
REMARK    1  A    between atoms: N1_1  and  C1_5 
REMARK    2  A    between atoms: C1_5  and  C2_6 
REMARK    3  A    between atoms: C2_6  and  C3_7 
REMARK    4  A    between atoms: C3_7  and  C4_8 
REMARK    5  A    between atoms: C4_8  and  C5_9 
REMARK    6  A    between atoms: C5_9  and  C6_10 
REMARK    7  A    between atoms: C6_10  and  C7_11 
REMARK    8  A    between atoms: C7_11  and  C8_12 
REMARK    9  A    between atoms: C8_12  and  C9_13 
REMARK   10  A    between atoms: C9_13  and  C10_14 
REMARK   11  A    between atoms: C10_14  and  C11_15 
REMARK   12  A    between atoms: C11_15  and  C12_16 
REMARK   13  A    between atoms: C12_16  and  C13_17 
REMARK   14  A    between atoms: C13_17  and  C14_18 
REMARK   15  A    between atoms: C14_18  and  C15_19 
REMARK   16  A    between atoms: C15_19  and  C16_20 
REMARK   17  A    between atoms: C19_23  and  C20_24 
REMARK   18  A    between atoms: C20_24  and  N2_25 
ROOT
HETATM    1  C11 UNL     1     -15.503   2.266   2.084  1.00  0.00     0.000 C 
ENDROOT
BRANCH   1   2
HETATM    2  C10 UNL     1     -16.438   2.611   1.005  1.00  0.00     0.000 C 
BRANCH   2   3
HETATM    3  C9  UNL     1     -15.759   3.580   0.034  1.00  0.00     0.000 C 
BRANCH   3   4
HETATM    4  C8  UNL     1     -14.860   4.505   0.749  1.00  0.00     0.000 C 
BRANCH   4   5
HETATM    5  C7  UNL     1     -14.877   5.860   0.034  1.00  0.00     0.000 C 
BRANCH   5   6
HETATM    6  C6  UNL     1     -14.496   5.696  -1.396  1.00  0.00     0.000 C 
BRANCH   6   7
HETATM    7  C5  UNL     1     -13.164   6.404  -1.586  1.00  0.00     0.000 C 
BRANCH   7   8
HETATM    8  C4  UNL     1     -12.024   5.456  -1.835  1.00  0.00     0.000 C 
BRANCH   8   9
HETATM    9  C3  UNL     1     -12.550   4.117  -2.272  1.00  0.00     0.002 C 
BRANCH   9  10
HETATM   10  C2  UNL     1     -12.012   3.004  -1.393  1.00  0.00     0.027 C 
BRANCH  10  11
HETATM   11  C1  UNL     1     -10.942   2.207  -2.112  1.00  0.00     0.229 C 
BRANCH  11  12
HETATM   12  N1  UNL     1     -11.118   2.408  -3.528  1.00  0.00    -0.079 N 
ATOM     13  H13 UNL     1     -12.017   2.067  -3.867  1.00  0.00     0.274 HD
ATOM     14  H12 UNL     1     -11.245   3.389  -3.776  1.00  0.00     0.274 HD
ATOM     15  H11 UNL     1     -10.326   1.979  -4.006  1.00  0.00     0.274 HD
ENDBRANCH  11  12
ENDBRANCH  10  11
ENDBRANCH   9  10
ENDBRANCH   8   9
ENDBRANCH   7   8
ENDBRANCH   6   7
ENDBRANCH   5   6
ENDBRANCH   4   5
ENDBRANCH   3   4
ENDBRANCH   2   3
ENDBRANCH   1   2
BRANCH   1  16
HETATM   16  C12 UNL     1     -16.116   1.798   3.348  1.00  0.00     0.000 C 
BRANCH  16  17
HETATM   17  C13 UNL     1     -15.742   0.527   3.939  1.00  0.00     0.000 C 
BRANCH  17  18
HETATM   18  C14 UNL     1     -16.029   0.145   5.320  1.00  0.00     0.000 C 
BRANCH  18  19
HETATM   19  C15 UNL     1     -17.059  -0.913   5.551  1.00  0.00     0.005 C 
BRANCH  19  20
HETATM   20  C16 UNL     1     -16.471  -2.222   6.016  1.00  0.00    -0.014 C 
HETATM   21  C17 UNL     1     -15.264  -1.903   6.875  1.00  0.00     0.005 C 
HETATM   22  C18 UNL     1     -14.189  -2.866   6.488  1.00  0.00     0.007 C 
HETATM   23  C19 UNL     1     -14.668  -3.720   5.363  1.00  0.00     0.011 C 
HETATM   24  C21 UNL     1     -15.952  -3.076   4.893  1.00  0.00     0.011 C 
BRANCH  23  25
HETATM   25  C20 UNL     1     -15.017  -5.130   5.813  1.00  0.00     0.234 C 
BRANCH  25  26
HETATM   26  N2  UNL     1     -13.959  -6.003   5.397  1.00  0.00    -0.079 N 
ATOM     27  H23 UNL     1     -13.111  -5.499   5.138  1.00  0.00     0.274 HD
ATOM     28  H22 UNL     1     -13.567  -6.542   6.169  1.00  0.00     0.274 HD
ATOM     29  H21 UNL     1     -14.314  -6.592   4.644  1.00  0.00     0.274 HD
ENDBRANCH  25  26
ENDBRANCH  23  25
ENDBRANCH  19  20
ENDBRANCH  18  19
ENDBRANCH  17  18
ENDBRANCH  16  17
ENDBRANCH   1  16
TORSDOF 18
ENDMDL
MODEL 3
REMARK VINA RESULT: -7.497801819      0.948      8.406
REMARK  18 active torsions:
REMARK  status: ('A' for Active; 'I' for Inactive)
REMARK    1  A    between atoms: N1_1  and  C1_5 
REMARK    2  A    between atoms: C1_5  and  C2_6 
REMARK    3  A    between atoms: C2_6  and  C3_7 
REMARK    4  A    between atoms: C3_7  and  C4_8 
REMARK    5  A    between atoms: C4_8  and  C5_9 
REMARK    6  A    between atoms: C5_9  and  C6_10 
REMARK    7  A    between atoms: C6_10  and  C7_11 
REMARK    8  A    between atoms: C7_11  and  C8_12 
REMARK    9  A    between atoms: C8_12  and  C9_13 
REMARK   10  A    between atoms: C9_13  and  C10_14 
REMARK   11  A    between atoms: C10_14  and  C11_15 
REMARK   12  A    between atoms: C11_15  and  C12_16 
REMARK   13  A    between atoms: C12_16  and  C13_17 
REMARK   14  A    between atoms: C13_17  and  C14_18 
REMARK   15  A    between atoms: C14_18  and  C15_19 
REMARK   16  A    between atoms: C15_19  and  C16_20 
REMARK   17  A    between atoms: C19_23  and  C20_24 
REMARK   18  A    between atoms: C20_24  and  N2_25 
ROOT
HETATM    1  C11 UNL     1     -15.354   5.800   0.237  1.00  0.00     0.000 C 
ENDROOT
BRANCH   1   2
HETATM    2  C10 UNL     1     -14.952   4.452   0.663  1.00  0.00     0.000 C 
BRANCH   2   3
HETATM    3  C9  UNL     1     -15.932   3.424   0.093  1.00  0.00     0.000 C 
BRANCH   3   4
HETATM    4  C8  UNL     1     -16.550   2.626   1.169  1.00  0.00     0.000 C 
BRANCH   4   5
HETATM    5  C7  UNL     1     -15.462   2.216   2.166  1.00  0.00     0.000 C 
BRANCH   5   6
HETATM    6  C6  UNL     1     -16.050   2.014   3.519  1.00  0.00     0.000 C 
BRANCH   6   7
HETATM    7  C5  UNL     1     -15.746   0.581   3.926  1.00  0.00     0.000 C 
BRANCH   7   8
HETATM    8  C4  UNL     1     -16.788  -0.007   4.836  1.00  0.00     0.000 C 
BRANCH   8   9
HETATM    9  C3  UNL     1     -16.592  -1.494   4.955  1.00  0.00     0.002 C 
BRANCH   9  10
HETATM   10  C2  UNL     1     -15.343  -1.818   5.751  1.00  0.00     0.027 C 
BRANCH  10  11
HETATM   11  C1  UNL     1     -14.760  -3.154   5.335  1.00  0.00     0.229 C 
BRANCH  11  12
HETATM   12  N1  UNL     1     -15.839  -3.973   4.843  1.00  0.00    -0.079 N 
ATOM     13  H13 UNL     1     -15.519  -4.865   4.469  1.00  0.00     0.274 HD
ATOM     14  H12 UNL     1     -16.426  -4.343   5.590  1.00  0.00     0.274 HD
ATOM     15  H11 UNL     1     -16.364  -3.423   4.163  1.00  0.00     0.274 HD
ENDBRANCH  11  12
ENDBRANCH  10  11
ENDBRANCH   9  10
ENDBRANCH   8   9
ENDBRANCH   7   8
ENDBRANCH   6   7
ENDBRANCH   5   6
ENDBRANCH   4   5
ENDBRANCH   3   4
ENDBRANCH   2   3
ENDBRANCH   1   2
BRANCH   1  16
HETATM   16  C12 UNL     1     -14.316   6.596  -0.456  1.00  0.00     0.000 C 
BRANCH  16  17
HETATM   17  C13 UNL     1     -13.462   6.001  -1.468  1.00  0.00     0.000 C 
BRANCH  17  18
HETATM   18  C14 UNL     1     -13.947   5.178  -2.573  1.00  0.00     0.000 C 
BRANCH  18  19
HETATM   19  C15 UNL     1     -13.557   3.736  -2.592  1.00  0.00     0.005 C 
BRANCH  19  20
HETATM   20  C16 UNL     1     -12.118   3.505  -2.203  1.00  0.00    -0.014 C 
HETATM   21  C17 UNL     1     -11.521   2.538  -3.205  1.00  0.00     0.005 C 
HETATM   22  C18 UNL     1     -10.698   1.562  -2.431  1.00  0.00     0.007 C 
HETATM   23  C19 UNL     1     -10.829   1.847  -0.973  1.00  0.00     0.011 C 
HETATM   24  C21 UNL     1     -11.962   2.842  -0.862  1.00  0.00     0.011 C 
BRANCH  23  25
HETATM   25  C20 UNL     1      -9.591   2.519  -0.398  1.00  0.00     0.234 C 
BRANCH  25  26
HETATM   26  N2  UNL     1      -8.626   2.643  -1.449  1.00  0.00    -0.079 N 
ATOM     27  H23 UNL     1      -9.022   2.467  -2.372  1.00  0.00     0.274 HD
ATOM     28  H22 UNL     1      -8.336   3.608  -1.607  1.00  0.00     0.274 HD
ATOM     29  H21 UNL     1      -7.842   2.027  -1.233  1.00  0.00     0.274 HD
ENDBRANCH  25  26
ENDBRANCH  23  25
ENDBRANCH  19  20
ENDBRANCH  18  19
ENDBRANCH  17  18
ENDBRANCH  16  17
ENDBRANCH   1  16
TORSDOF 18
ENDMDL
MODEL 4
REMARK VINA RESULT: -7.357610787      1.265      2.890
REMARK  18 active torsions:
REMARK  status: ('A' for Active; 'I' for Inactive)
REMARK    1  A    between atoms: N1_1  and  C1_5 
REMARK    2  A    between atoms: C1_5  and  C2_6 
REMARK    3  A    between atoms: C2_6  and  C3_7 
REMARK    4  A    between atoms: C3_7  and  C4_8 
REMARK    5  A    between atoms: C4_8  and  C5_9 
REMARK    6  A    between atoms: C5_9  and  C6_10 
REMARK    7  A    between atoms: C6_10  and  C7_11 
REMARK    8  A    between atoms: C7_11  and  C8_12 
REMARK    9  A    between atoms: C8_12  and  C9_13 
REMARK   10  A    between atoms: C9_13  and  C10_14 
REMARK   11  A    between atoms: C10_14  and  C11_15 
REMARK   12  A    between atoms: C11_15  and  C12_16 
REMARK   13  A    between atoms: C12_16  and  C13_17 
REMARK   14  A    between atoms: C13_17  and  C14_18 
REMARK   15  A    between atoms: C14_18  and  C15_19 
REMARK   16  A    between atoms: C15_19  and  C16_20 
REMARK   17  A    between atoms: C19_23  and  C20_24 
REMARK   18  A    between atoms: C20_24  and  N2_25 
ROOT
HETATM    1  C11 UNL     1     -15.852   0.689   4.020  1.00  0.00     0.000 C 
ENDROOT
BRANCH   1   2
HETATM    2  C10 UNL     1     -16.114   2.042   3.511  1.00  0.00     0.000 C 
BRANCH   2   3
HETATM    3  C9  UNL     1     -15.577   2.162   2.083  1.00  0.00     0.000 C 
BRANCH   3   4
HETATM    4  C8  UNL     1     -16.619   2.656   1.163  1.00  0.00     0.000 C 
BRANCH   4   5
HETATM    5  C7  UNL     1     -15.941   3.337  -0.030  1.00  0.00     0.000 C 
BRANCH   5   6
HETATM    6  C6  UNL     1     -14.652   3.953   0.389  1.00  0.00     0.000 C 
BRANCH   6   7
HETATM    7  C5  UNL     1     -13.587   3.458  -0.576  1.00  0.00     0.000 C 
BRANCH   7   8
HETATM    8  C4  UNL     1     -13.104   4.524  -1.518  1.00  0.00     0.000 C 
BRANCH   8   9
HETATM    9  C3  UNL     1     -11.713   4.204  -1.994  1.00  0.00     0.002 C 
BRANCH   9  10
HETATM   10  C2  UNL     1     -11.189   2.939  -1.341  1.00  0.00     0.027 C 
BRANCH  10  11
HETATM   11  C1  UNL     1     -10.703   1.948  -2.379  1.00  0.00     0.229 C 
BRANCH  11  12
HETATM   12  N1  UNL     1     -11.088   2.443  -3.676  1.00  0.00    -0.079 N 
ATOM     13  H13 UNL     1     -10.289   2.628  -4.282  1.00  0.00     0.274 HD
ATOM     14  H12 UNL     1     -11.534   1.731  -4.255  1.00  0.00     0.274 HD
ATOM     15  H11 UNL     1     -11.677   3.264  -3.536  1.00  0.00     0.274 HD
ENDBRANCH  11  12
ENDBRANCH  10  11
ENDBRANCH   9  10
ENDBRANCH   8   9
ENDBRANCH   7   8
ENDBRANCH   6   7
ENDBRANCH   5   6
ENDBRANCH   4   5
ENDBRANCH   3   4
ENDBRANCH   2   3
ENDBRANCH   1   2
BRANCH   1  16
HETATM   16  C12 UNL     1     -17.028  -0.049   4.535  1.00  0.00     0.000 C 
BRANCH  16  17
HETATM   17  C13 UNL     1     -17.085  -0.504   5.912  1.00  0.00     0.000 C 
BRANCH  17  18
HETATM   18  C14 UNL     1     -16.155  -0.084   6.957  1.00  0.00     0.000 C 
BRANCH  18  19
HETATM   19  C15 UNL     1     -15.092  -1.049   7.373  1.00  0.00     0.005 C 
BRANCH  19  20
HETATM   20  C16 UNL     1     -15.344  -2.455   6.890  1.00  0.00    -0.014 C 
HETATM   21  C17 UNL     1     -15.770  -3.282   8.087  1.00  0.00     0.005 C 
HETATM   22  C18 UNL     1     -15.059  -4.592   7.986  1.00  0.00     0.007 C 
HETATM   23  C19 UNL     1     -14.147  -4.573   6.806  1.00  0.00     0.011 C 
HETATM   24  C21 UNL     1     -14.114  -3.131   6.351  1.00  0.00     0.011 C 
BRANCH  23  25
HETATM   25  C20 UNL     1     -14.685  -5.392   5.643  1.00  0.00     0.234 C 
BRANCH  25  26
HETATM   26  N2  UNL     1     -13.683  -6.344   5.270  1.00  0.00    -0.079 N 
ATOM     27  H23 UNL     1     -14.009  -7.308   5.338  1.00  0.00     0.274 HD
ATOM     28  H22 UNL     1     -13.485  -6.338   4.270  1.00  0.00     0.274 HD
ATOM     29  H21 UNL     1     -12.853  -6.168   5.838  1.00  0.00     0.274 HD
ENDBRANCH  25  26
ENDBRANCH  23  25
ENDBRANCH  19  20
ENDBRANCH  18  19
ENDBRANCH  17  18
ENDBRANCH  16  17
ENDBRANCH   1  16
TORSDOF 18
ENDMDL
MODEL 5
REMARK VINA RESULT: -7.308336941      1.471      9.126
REMARK  18 active torsions:
REMARK  status: ('A' for Active; 'I' for Inactive)
REMARK    1  A    between atoms: N1_1  and  C1_5 
REMARK    2  A    between atoms: C1_5  and  C2_6 
REMARK    3  A    between atoms: C2_6  and  C3_7 
REMARK    4  A    between atoms: C3_7  and  C4_8 
REMARK    5  A    between atoms: C4_8  and  C5_9 
REMARK    6  A    between atoms: C5_9  and  C6_10 
REMARK    7  A    between atoms: C6_10  and  C7_11 
REMARK    8  A    between atoms: C7_11  and  C8_12 
REMARK    9  A    between atoms: C8_12  and  C9_13 
REMARK   10  A    between atoms: C9_13  and  C10_14 
REMARK   11  A    between atoms: C10_14  and  C11_15 
REMARK   12  A    between atoms: C11_15  and  C12_16 
REMARK   13  A    between atoms: C12_16  and  C13_17 
REMARK   14  A    between atoms: C13_17  and  C14_18 
REMARK   15  A    between atoms: C14_18  and  C15_19 
REMARK   16  A    between atoms: C15_19  and  C16_20 
REMARK   17  A    between atoms: C19_23  and  C20_24 
REMARK   18  A    between atoms: C20_24  and  N2_25 
ROOT
HETATM    1  C11 UNL     1     -15.411   2.537   1.954  1.00  0.00     0.000 C 
ENDROOT
BRANCH   1   2
HETATM    2  C10 UNL     1     -16.021   2.205   3.249  1.00  0.00     0.000 C 
BRANCH   2   3
HETATM    3  C9  UNL     1     -15.697   0.753   3.606  1.00  0.00     0.000 C 
BRANCH   3   4
HETATM    4  C8  UNL     1     -16.702   0.196   4.531  1.00  0.00     0.000 C 
BRANCH   4   5
HETATM    5  C7  UNL     1     -16.095  -1.011   5.252  1.00  0.00     0.000 C 
BRANCH   5   6
HETATM    6  C6  UNL     1     -16.074  -0.779   6.723  1.00  0.00     0.000 C 
BRANCH   6   7
HETATM    7  C5  UNL     1     -14.872  -1.527   7.275  1.00  0.00     0.000 C 
BRANCH   7   8
HETATM    8  C4  UNL     1     -14.564  -2.789   6.518  1.00  0.00     0.000 C 
BRANCH   8   9
HETATM    9  C3  UNL     1     -13.102  -3.121   6.637  1.00  0.00     0.002 C 
BRANCH   9  10
HETATM   10  C2  UNL     1     -12.900  -4.470   7.300  1.00  0.00     0.027 C 
BRANCH  10  11
HETATM   11  C1  UNL     1     -11.427  -4.784   7.467  1.00  0.00     0.229 C 
BRANCH  11  12
HETATM   12  N1  UNL     1     -10.682  -3.831   6.684  1.00  0.00    -0.079 N 
ATOM     13  H13 UNL     1     -10.671  -4.058   5.690  1.00  0.00     0.274 HD
ATOM     14  H12 UNL     1     -11.148  -2.927   6.611  1.00  0.00     0.274 HD
ATOM     15  H11 UNL     1      -9.745  -3.762   7.084  1.00  0.00     0.274 HD
ENDBRANCH  11  12
ENDBRANCH  10  11
ENDBRANCH   9  10
ENDBRANCH   8   9
ENDBRANCH   7   8
ENDBRANCH   6   7
ENDBRANCH   5   6
ENDBRANCH   4   5
ENDBRANCH   3   4
ENDBRANCH   2   3
ENDBRANCH   1   2
BRANCH   1  16
HETATM   16  C12 UNL     1     -16.348   2.927   0.877  1.00  0.00     0.000 C 
BRANCH  16  17
HETATM   17  C13 UNL     1     -15.864   3.349  -0.425  1.00  0.00     0.000 C 
BRANCH  17  18
HETATM   18  C14 UNL     1     -14.591   4.030  -0.648  1.00  0.00     0.000 C 
BRANCH  18  19
HETATM   19  C15 UNL     1     -13.882   3.778  -1.939  1.00  0.00     0.005 C 
BRANCH  19  20
HETATM   20  C16 UNL     1     -12.391   3.615  -1.776  1.00  0.00    -0.014 C 
HETATM   21  C17 UNL     1     -11.880   2.839  -2.973  1.00  0.00     0.005 C 
HETATM   22  C18 UNL     1     -10.897   1.840  -2.455  1.00  0.00     0.007 C 
HETATM   23  C19 UNL     1     -10.842   1.922  -0.967  1.00  0.00     0.011 C 
HETATM   24  C21 UNL     1     -12.008   2.799  -0.573  1.00  0.00     0.011 C 
BRANCH  23  25
HETATM   25  C20 UNL     1      -9.580   2.611  -0.470  1.00  0.00     0.234 C 
BRANCH  25  26
HETATM   26  N2  UNL     1      -8.634   2.633  -1.545  1.00  0.00    -0.079 N 
ATOM     27  H23 UNL     1      -8.761   3.430  -2.167  1.00  0.00     0.274 HD
ATOM     28  H22 UNL     1      -7.688   2.853  -1.233  1.00  0.00     0.274 HD
ATOM     29  H21 UNL     1      -8.690   1.739  -2.033  1.00  0.00     0.274 HD
ENDBRANCH  25  26
ENDBRANCH  23  25
ENDBRANCH  19  20
ENDBRANCH  18  19
ENDBRANCH  17  18
ENDBRANCH  16  17
ENDBRANCH   1  16
TORSDOF 18
ENDMDL
