MODEL 1
REMARK VINA RESULT: -7.855867411      0.000      0.000
REMARK  16 active torsions:
REMARK  status: ('A' for Active; 'I' for Inactive)
REMARK    1  A    between atoms: N1_1  and  C1_5 
REMARK    2  A    between atoms: C1_5  and  C2_6 
REMARK    3  A    between atoms: C2_6  and  C3_7 
REMARK    4  A    between atoms: C3_7  and  C4_8 
REMARK    5  A    between atoms: C4_8  and  C5_9 
REMARK    6  A    between atoms: C5_9  and  C6_10 
REMARK    7  A    between atoms: C6_10  and  C7_11 
REMARK    8  A    between atoms: C7_11  and  C8_12 
REMARK    9  A    between atoms: C8_12  and  C9_13 
REMARK   10  A    between atoms: C9_13  and  C10_14 
REMARK   11  A    between atoms: C10_14  and  C11_15 
REMARK   12  A    between atoms: C11_15  and  C12_16 
REMARK   13  A    between atoms: C12_16  and  N2_17 
REMARK   14  A    between atoms: N2_17  and  C13_19 
REMARK   15  A    between atoms: N3_20  and  O1_22 
REMARK   16  A    between atoms: O1_22  and  C14_23 
ROOT
HETATM    1  C11 UNL     1     -15.042   2.656   0.980  1.00  0.00     0.020 C 
ENDROOT
BRANCH   1   2
HETATM    2  C10 UNL     1     -14.443   4.041   0.999  1.00  0.00     0.002 C 
BRANCH   2   3
HETATM    3  C9  UNL     1     -15.126   4.814  -0.118  1.00  0.00     0.000 C 
BRANCH   3   4
HETATM    4  C8  UNL     1     -14.721   6.238  -0.145  1.00  0.00     0.000 C 
BRANCH   4   5
HETATM    5  C7  UNL     1     -13.679   6.506  -1.187  1.00  0.00     0.000 C 
BRANCH   5   6
HETATM    6  C6  UNL     1     -13.678   5.400  -2.189  1.00  0.00     0.000 C 
BRANCH   6   7
HETATM    7  C5  UNL     1     -12.305   4.769  -2.396  1.00  0.00     0.000 C 
BRANCH   7   8
HETATM    8  C4  UNL     1     -12.439   3.351  -2.827  1.00  0.00     0.000 C 
BRANCH   8   9
HETATM    9  C3  UNL     1     -11.408   2.439  -2.216  1.00  0.00     0.002 C 
BRANCH   9  10
HETATM   10  C2  UNL     1     -11.399   2.496  -0.704  1.00  0.00     0.027 C 
BRANCH  10  11
HETATM   11  C1  UNL     1      -9.946   2.289  -0.250  1.00  0.00     0.229 C 
BRANCH  11  12
HETATM   12  N1  UNL     1      -9.083   2.592  -1.403  1.00  0.00    -0.079 N 
ATOM     13  H13 UNL     1      -8.625   1.766  -1.787  1.00  0.00     0.274 HD
ATOM     14  H12 UNL     1      -9.608   2.851  -2.238  1.00  0.00     0.274 HD
ATOM     15  H11 UNL     1      -8.425   3.312  -1.106  1.00  0.00     0.274 HD
ENDBRANCH  11  12
ENDBRANCH  10  11
ENDBRANCH   9  10
ENDBRANCH   8   9
ENDBRANCH   7   8
ENDBRANCH   6   7
ENDBRANCH   5   6
ENDBRANCH   4   5
ENDBRANCH   3   4
ENDBRANCH   2   3
ENDBRANCH   1   2
BRANCH   1  16
HETATM   16  C12 UNL     1     -16.541   2.653   1.084  1.00  0.00     0.120 C 
BRANCH  16  17
HETATM   17  N2  UNL     1     -16.902   1.936   2.313  1.00  0.00    -0.385 N 
ATOM     18  H2  UNL     1     -17.845   1.564   2.421  1.00  0.00     0.160 HD
BRANCH  17  19
HETATM   19  C13 UNL     1     -15.954   1.756   3.354  1.00  0.00     0.199 C 
HETATM   20  N3  UNL     1     -15.775   0.782   4.040  1.00  0.00    -0.262 N 
ATOM     21  H3  UNL     1     -15.012   1.058   4.656  1.00  0.00     0.195 HD
BRANCH  20  22
HETATM   22  O1  UNL     1     -16.042  -0.425   4.405  1.00  0.00    -0.274 OA
BRANCH  22  23
HETATM   23  C14 UNL     1     -16.039  -0.769   5.801  1.00  0.00     0.155 C 
HETATM   24  C15 UNL     1     -17.426  -0.793   6.306  1.00  0.00     0.061 C 
HETATM   25  C16 UNL     1     -17.828  -2.039   6.991  1.00  0.00    -0.028 C 
HETATM   26  C17 UNL     1     -17.687  -3.296   6.602  1.00  0.00    -0.031 C 
HETATM   27  C18 UNL     1     -17.107  -3.941   5.403  1.00  0.00     0.027 C 
HETATM   28  C19 UNL     1     -16.179  -2.950   4.703  1.00  0.00     0.006 C 
HETATM   29  C20 UNL     1     -15.459  -2.210   5.793  1.00  0.00     0.035 C 
ENDBRANCH  22  23
ENDBRANCH  20  22
ENDBRANCH  17  19
ENDBRANCH  16  17
ENDBRANCH   1  16
TORSDOF 16
ENDMDL
MODEL 2
REMARK VINA RESULT: -7.797980847      2.807      4.152
REMARK  16 active torsions:
REMARK  status: ('A' for Active; 'I' for Inactive)
REMARK    1  A    between atoms: N1_1  and  C1_5 
REMARK    2  A    between atoms: C1_5  and  C2_6 
REMARK    3  A    between atoms: C2_6  and  C3_7 
REMARK    4  A    between atoms: C3_7  and  C4_8 
REMARK    5  A    between atoms: C4_8  and  C5_9 
REMARK    6  A    between atoms: C5_9  and  C6_10 
REMARK    7  A    between atoms: C6_10  and  C7_11 
REMARK    8  A    between atoms: C7_11  and  C8_12 
REMARK    9  A    between atoms: C8_12  and  C9_13 
REMARK   10  A    between atoms: C9_13  and  C10_14 
REMARK   11  A    between atoms: C10_14  and  C11_15 
REMARK   12  A    between atoms: C11_15  and  C12_16 
REMARK   13  A    between atoms: C12_16  and  N2_17 
REMARK   14  A    between atoms: N2_17  and  C13_19 
REMARK   15  A    between atoms: N3_20  and  O1_22 
REMARK   16  A    between atoms: O1_22  and  C14_23 
ROOT
HETATM    1  C11 UNL     1     -15.723   0.663   3.946  1.00  0.00     0.020 C 
ENDROOT
BRANCH   1   2
HETATM    2  C10 UNL     1     -16.112   2.053   3.506  1.00  0.00     0.002 C 
BRANCH   2   3
HETATM    3  C9  UNL     1     -15.642   2.190   2.067  1.00  0.00     0.000 C 
BRANCH   3   4
HETATM    4  C8  UNL     1     -16.744   2.565   1.150  1.00  0.00     0.000 C 
BRANCH   4   5
HETATM    5  C7  UNL     1     -16.246   3.313  -0.048  1.00  0.00     0.000 C 
BRANCH   5   6
HETATM    6  C6  UNL     1     -15.367   4.436   0.391  1.00  0.00     0.000 C 
BRANCH   6   7
HETATM    7  C5  UNL     1     -14.142   4.631  -0.495  1.00  0.00     0.000 C 
BRANCH   7   8
HETATM    8  C4  UNL     1     -13.373   3.362  -0.612  1.00  0.00     0.000 C 
BRANCH   8   9
HETATM    9  C3  UNL     1     -12.201   3.456  -1.552  1.00  0.00     0.002 C 
BRANCH   9  10
HETATM   10  C2  UNL     1     -11.091   2.489  -1.202  1.00  0.00     0.027 C 
BRANCH  10  11
HETATM   11  C1  UNL     1     -10.658   1.803  -2.507  1.00  0.00     0.229 C 
BRANCH  11  12
HETATM   12  N1  UNL     1     -11.208   2.595  -3.618  1.00  0.00    -0.079 N 
ATOM     13  H13 UNL     1     -11.610   2.021  -4.358  1.00  0.00     0.274 HD
ATOM     14  H12 UNL     1     -12.058   3.100  -3.367  1.00  0.00     0.274 HD
ATOM     15  H11 UNL     1     -10.463   3.208  -3.949  1.00  0.00     0.274 HD
ENDBRANCH  11  12
ENDBRANCH  10  11
ENDBRANCH   9  10
ENDBRANCH   8   9
ENDBRANCH   7   8
ENDBRANCH   6   7
ENDBRANCH   5   6
ENDBRANCH   4   5
ENDBRANCH   3   4
ENDBRANCH   2   3
ENDBRANCH   1   2
BRANCH   1  16
HETATM   16  C12 UNL     1     -16.799  -0.040   4.723  1.00  0.00     0.120 C 
BRANCH  16  17
HETATM   17  N2  UNL     1     -16.145  -0.925   5.694  1.00  0.00    -0.385 N 
ATOM     18  H2  UNL     1     -15.205  -0.705   6.022  1.00  0.00     0.160 HD
BRANCH  17  19
HETATM   19  C13 UNL     1     -16.805  -2.083   6.181  1.00  0.00     0.199 C 
HETATM   20  N3  UNL     1     -16.319  -3.057   6.697  1.00  0.00    -0.262 N 
ATOM     21  H3  UNL     1     -17.124  -3.649   6.899  1.00  0.00     0.195 HD
BRANCH  20  22
HETATM   22  O1  UNL     1     -15.317  -3.744   7.127  1.00  0.00    -0.274 OA
BRANCH  22  23
HETATM   23  C14 UNL     1     -14.188  -3.979   6.269  1.00  0.00     0.155 C 
HETATM   24  C15 UNL     1     -13.128  -2.996   6.569  1.00  0.00     0.061 C 
HETATM   25  C16 UNL     1     -11.798  -3.570   6.863  1.00  0.00    -0.028 C 
HETATM   26  C17 UNL     1     -11.469  -4.548   7.693  1.00  0.00    -0.031 C 
HETATM   27  C18 UNL     1     -12.236  -5.419   8.611  1.00  0.00     0.027 C 
HETATM   28  C19 UNL     1     -13.708  -5.401   8.201  1.00  0.00     0.006 C 
HETATM   29  C20 UNL     1     -13.725  -5.398   6.700  1.00  0.00     0.035 C 
ENDBRANCH  22  23
ENDBRANCH  20  22
ENDBRANCH  17  19
ENDBRANCH  16  17
ENDBRANCH   1  16
TORSDOF 16
ENDMDL
MODEL 3
REMARK VINA RESULT: -7.747637983      2.882      4.703
REMARK  16 active torsions:
REMARK  status: ('A' for Active; 'I' for Inactive)
REMARK    1  A    between atoms: N1_1  and  C1_5 
REMARK    2  A    between atoms: C1_5  and  C2_6 
REMARK    3  A    between atoms: C2_6  and  C3_7 
REMARK    4  A    between atoms: C3_7  and  C4_8 
REMARK    5  A    between atoms: C4_8  and  C5_9 
REMARK    6  A    between atoms: C5_9  and  C6_10 
REMARK    7  A    between atoms: C6_10  and  C7_11 
REMARK    8  A    between atoms: C7_11  and  C8_12 
REMARK    9  A    between atoms: C8_12  and  C9_13 
REMARK   10  A    between atoms: C9_13  and  C10_14 
REMARK   11  A    between atoms: C10_14  and  C11_15 
REMARK   12  A    between atoms: C11_15  and  C12_16 
REMARK   13  A    between atoms: C12_16  and  N2_17 
REMARK   14  A    between atoms: N2_17  and  C13_19 
REMARK   15  A    between atoms: N3_20  and  O1_22 
REMARK   16  A    between atoms: O1_22  and  C14_23 
ROOT
HETATM    1  C11 UNL     1     -16.922  -0.014   4.693  1.00  0.00     0.020 C 
ENDROOT
BRANCH   1   2
HETATM    2  C10 UNL     1     -15.728   0.515   3.936  1.00  0.00     0.002 C 
BRANCH   2   3
HETATM    3  C9  UNL     1     -16.101   1.918   3.485  1.00  0.00     0.000 C 
BRANCH   3   4
HETATM    4  C8  UNL     1     -15.620   2.214   2.115  1.00  0.00     0.000 C 
BRANCH   4   5
HETATM    5  C7  UNL     1     -16.740   2.592   1.196  1.00  0.00     0.000 C 
BRANCH   5   6
HETATM    6  C6  UNL     1     -16.186   3.232  -0.033  1.00  0.00     0.000 C 
BRANCH   6   7
HETATM    7  C5  UNL     1     -15.434   4.529   0.245  1.00  0.00     0.000 C 
BRANCH   7   8
HETATM    8  C4  UNL     1     -14.184   4.591  -0.561  1.00  0.00     0.000 C 
BRANCH   8   9
HETATM    9  C3  UNL     1     -13.379   3.320  -0.517  1.00  0.00     0.002 C 
BRANCH   9  10
HETATM   10  C2  UNL     1     -12.149   3.375  -1.397  1.00  0.00     0.027 C 
BRANCH  10  11
HETATM   11  C1  UNL     1     -12.630   3.296  -2.855  1.00  0.00     0.229 C 
BRANCH  11  12
HETATM   12  N1  UNL     1     -11.586   2.593  -3.619  1.00  0.00    -0.079 N 
ATOM     13  H13 UNL     1     -10.642   2.820  -3.307  1.00  0.00     0.274 HD
ATOM     14  H12 UNL     1     -11.552   1.593  -3.423  1.00  0.00     0.274 HD
ATOM     15  H11 UNL     1     -11.742   2.802  -4.604  1.00  0.00     0.274 HD
ENDBRANCH  11  12
ENDBRANCH  10  11
ENDBRANCH   9  10
ENDBRANCH   8   9
ENDBRANCH   7   8
ENDBRANCH   6   7
ENDBRANCH   5   6
ENDBRANCH   4   5
ENDBRANCH   3   4
ENDBRANCH   2   3
ENDBRANCH   1   2
BRANCH   1  16
HETATM   16  C12 UNL     1     -16.549  -0.851   5.884  1.00  0.00     0.120 C 
BRANCH  16  17
HETATM   17  N2  UNL     1     -17.697  -1.708   6.205  1.00  0.00    -0.385 N 
ATOM     18  H2  UNL     1     -18.592  -1.282   6.446  1.00  0.00     0.160 HD
BRANCH  17  19
HETATM   19  C13 UNL     1     -17.576  -3.122   6.185  1.00  0.00     0.199 C 
HETATM   20  N3  UNL     1     -16.652  -3.797   6.559  1.00  0.00    -0.262 N 
ATOM     21  H3  UNL     1     -16.959  -4.751   6.374  1.00  0.00     0.195 HD
BRANCH  20  22
HETATM   22  O1  UNL     1     -15.478  -3.948   7.072  1.00  0.00    -0.274 OA
BRANCH  22  23
HETATM   23  C14 UNL     1     -14.329  -4.048   6.213  1.00  0.00     0.155 C 
HETATM   24  C15 UNL     1     -13.354  -2.999   6.571  1.00  0.00     0.061 C 
HETATM   25  C16 UNL     1     -11.983  -3.477   6.849  1.00  0.00    -0.028 C 
HETATM   26  C17 UNL     1     -11.580  -4.465   7.632  1.00  0.00    -0.031 C 
HETATM   27  C18 UNL     1     -12.279  -5.439   8.500  1.00  0.00     0.027 C 
HETATM   28  C19 UNL     1     -13.746  -5.520   8.078  1.00  0.00     0.006 C 
HETATM   29  C20 UNL     1     -13.755  -5.444   6.578  1.00  0.00     0.035 C 
ENDBRANCH  22  23
ENDBRANCH  20  22
ENDBRANCH  17  19
ENDBRANCH  16  17
ENDBRANCH   1  16
TORSDOF 16
ENDMDL
MODEL 4
REMARK VINA RESULT: -7.668494377      2.780      4.152
REMARK  16 active torsions:
REMARK  status: ('A' for Active; 'I' for Inactive)
REMARK    1  A    between atoms: N1_1  and  C1_5 
REMARK    2  A    between atoms: C1_5  and  C2_6 
REMARK    3  A    between atoms: C2_6  and  C3_7 
REMARK    4  A    between atoms: C3_7  and  C4_8 
REMARK    5  A    between atoms: C4_8  and  C5_9 
REMARK    6  A    between atoms: C5_9  and  C6_10 
REMARK    7  A    between atoms: C6_10  and  C7_11 
REMARK    8  A    between atoms: C7_11  and  C8_12 
REMARK    9  A    between atoms: C8_12  and  C9_13 
REMARK   10  A    between atoms: C9_13  and  C10_14 
REMARK   11  A    between atoms: C10_14  and  C11_15 
REMARK   12  A    between atoms: C11_15  and  C12_16 
REMARK   13  A    between atoms: C12_16  and  N2_17 
REMARK   14  A    between atoms: N2_17  and  C13_19 
REMARK   15  A    between atoms: N3_20  and  O1_22 
REMARK   16  A    between atoms: O1_22  and  C14_23 
ROOT
HETATM    1  C11 UNL     1     -15.746   0.543   3.927  1.00  0.00     0.020 C 
ENDROOT
BRANCH   1   2
HETATM    2  C10 UNL     1     -16.107   1.968   3.586  1.00  0.00     0.002 C 
BRANCH   2   3
HETATM    3  C9  UNL     1     -15.621   2.200   2.165  1.00  0.00     0.000 C 
BRANCH   3   4
HETATM    4  C8  UNL     1     -16.729   2.534   1.240  1.00  0.00     0.000 C 
BRANCH   4   5
HETATM    5  C7  UNL     1     -16.243   3.246   0.015  1.00  0.00     0.000 C 
BRANCH   5   6
HETATM    6  C6  UNL     1     -15.258   4.297   0.405  1.00  0.00     0.000 C 
BRANCH   6   7
HETATM    7  C5  UNL     1     -14.115   4.457  -0.591  1.00  0.00     0.000 C 
BRANCH   7   8
HETATM    8  C4  UNL     1     -13.210   3.276  -0.543  1.00  0.00     0.000 C 
BRANCH   8   9
HETATM    9  C3  UNL     1     -11.963   3.443  -1.370  1.00  0.00     0.002 C 
BRANCH   9  10
HETATM   10  C2  UNL     1     -11.021   2.265  -1.253  1.00  0.00     0.027 C 
BRANCH  10  11
HETATM   11  C1  UNL     1     -10.772   1.739  -2.675  1.00  0.00     0.229 C 
BRANCH  11  12
HETATM   12  N1  UNL     1     -11.502   2.622  -3.599  1.00  0.00    -0.079 N 
ATOM     13  H13 UNL     1     -12.442   2.289  -3.812  1.00  0.00     0.274 HD
ATOM     14  H12 UNL     1     -11.770   3.510  -3.175  1.00  0.00     0.274 HD
ATOM     15  H11 UNL     1     -10.921   2.735  -4.430  1.00  0.00     0.274 HD
ENDBRANCH  11  12
ENDBRANCH  10  11
ENDBRANCH   9  10
ENDBRANCH   8   9
ENDBRANCH   7   8
ENDBRANCH   6   7
ENDBRANCH   5   6
ENDBRANCH   4   5
ENDBRANCH   3   4
ENDBRANCH   2   3
ENDBRANCH   1   2
BRANCH   1  16
HETATM   16  C12 UNL     1     -16.830  -0.187   4.668  1.00  0.00     0.120 C 
BRANCH  16  17
HETATM   17  N2  UNL     1     -16.247  -1.417   5.217  1.00  0.00    -0.385 N 
ATOM     18  H2  UNL     1     -15.670  -1.370   6.056  1.00  0.00     0.160 HD
BRANCH  17  19
HETATM   19  C13 UNL     1     -16.477  -2.671   4.592  1.00  0.00     0.199 C 
HETATM   20  N3  UNL     1     -15.873  -3.701   4.743  1.00  0.00    -0.262 N 
ATOM     21  H3  UNL     1     -16.350  -4.354   4.121  1.00  0.00     0.195 HD
BRANCH  20  22
HETATM   22  O1  UNL     1     -14.940  -4.413   5.277  1.00  0.00    -0.274 OA
BRANCH  22  23
HETATM   23  C14 UNL     1     -15.206  -5.159   6.478  1.00  0.00     0.155 C 
HETATM   24  C15 UNL     1     -14.559  -6.483   6.389  1.00  0.00     0.061 C 
HETATM   25  C16 UNL     1     -13.675  -6.831   7.522  1.00  0.00    -0.028 C 
HETATM   26  C17 UNL     1     -12.709  -6.122   8.084  1.00  0.00    -0.031 C 
HETATM   27  C18 UNL     1     -12.144  -4.777   7.836  1.00  0.00     0.027 C 
HETATM   28  C19 UNL     1     -13.148  -3.956   7.028  1.00  0.00     0.006 C 
HETATM   29  C20 UNL     1     -14.505  -4.303   7.569  1.00  0.00     0.035 C 
ENDBRANCH  22  23
ENDBRANCH  20  22
ENDBRANCH  17  19
ENDBRANCH  16  17
ENDBRANCH   1  16
TORSDOF 16
ENDMDL
MODEL 5
REMARK VINA RESULT: -7.556078436      2.992      9.326
REMARK  16 active torsions:
REMARK  status: ('A' for Active; 'I' for Inactive)
REMARK    1  A    between atoms: N1_1  and  C1_5 
REMARK    2  A    between atoms: C1_5  and  C2_6 
REMARK    3  A    between atoms: C2_6  and  C3_7 
REMARK    4  A    between atoms: C3_7  and  C4_8 
REMARK    5  A    between atoms: C4_8  and  C5_9 
REMARK    6  A    between atoms: C5_9  and  C6_10 
REMARK    7  A    between atoms: C6_10  and  C7_11 
REMARK    8  A    between atoms: C7_11  and  C8_12 
REMARK    9  A    between atoms: C8_12  and  C9_13 
REMARK   10  A    between atoms: C9_13  and  C10_14 
REMARK   11  A    between atoms: C10_14  and  C11_15 
REMARK   12  A    between atoms: C11_15  and  C12_16 
REMARK   13  A    between atoms: C12_16  and  N2_17 
REMARK   14  A    between atoms: N2_17  and  C13_19 
REMARK   15  A    between atoms: N3_20  and  O1_22 
REMARK   16  A    between atoms: O1_22  and  C14_23 
ROOT
HETATM    1  C11 UNL     1     -15.197   2.987   1.251  1.00  0.00     0.020 C 
ENDROOT
BRANCH   1   2
HETATM    2  C10 UNL     1     -16.306   2.255   1.967  1.00  0.00     0.002 C 
BRANCH   2   3
HETATM    3  C9  UNL     1     -15.684   1.668   3.224  1.00  0.00     0.000 C 
BRANCH   3   4
HETATM    4  C8  UNL     1     -16.617   0.771   3.945  1.00  0.00     0.000 C 
BRANCH   4   5
HETATM    5  C7  UNL     1     -15.894  -0.194   4.833  1.00  0.00     0.000 C 
BRANCH   5   6
HETATM    6  C6  UNL     1     -16.855  -0.801   5.800  1.00  0.00     0.000 C 
BRANCH   6   7
HETATM    7  C5  UNL     1     -16.361  -2.110   6.406  1.00  0.00     0.000 C 
BRANCH   7   8
HETATM    8  C4  UNL     1     -14.921  -2.009   6.769  1.00  0.00     0.000 C 
BRANCH   8   9
HETATM    9  C3  UNL     1     -14.132  -3.249   6.440  1.00  0.00     0.002 C 
BRANCH   9  10
HETATM   10  C2  UNL     1     -14.871  -4.182   5.506  1.00  0.00     0.027 C 
BRANCH  10  11
HETATM   11  C1  UNL     1     -14.707  -5.605   6.062  1.00  0.00     0.229 C 
BRANCH  11  12
HETATM   12  N1  UNL     1     -13.732  -6.297   5.204  1.00  0.00    -0.079 N 
ATOM     13  H13 UNL     1     -13.895  -7.301   5.143  1.00  0.00     0.274 HD
ATOM     14  H12 UNL     1     -13.849  -6.084   4.213  1.00  0.00     0.274 HD
ATOM     15  H11 UNL     1     -12.803  -6.064   5.555  1.00  0.00     0.274 HD
ENDBRANCH  11  12
ENDBRANCH  10  11
ENDBRANCH   9  10
ENDBRANCH   8   9
ENDBRANCH   7   8
ENDBRANCH   6   7
ENDBRANCH   5   6
ENDBRANCH   4   5
ENDBRANCH   3   4
ENDBRANCH   2   3
ENDBRANCH   1   2
BRANCH   1  16
HETATM   16  C12 UNL     1     -15.693   4.042   0.303  1.00  0.00     0.120 C 
BRANCH  16  17
HETATM   17  N2  UNL     1     -14.924   5.267   0.555  1.00  0.00    -0.385 N 
ATOM     18  H2  UNL     1     -14.758   5.569   1.514  1.00  0.00     0.160 HD
BRANCH  17  19
HETATM   19  C13 UNL     1     -14.408   6.034  -0.522  1.00  0.00     0.199 C 
HETATM   20  N3  UNL     1     -13.521   5.748  -1.284  1.00  0.00    -0.262 N 
ATOM     21  H3  UNL     1     -13.462   6.559  -1.901  1.00  0.00     0.195 HD
BRANCH  20  22
HETATM   22  O1  UNL     1     -12.607   4.957  -1.731  1.00  0.00    -0.274 OA
BRANCH  22  23
HETATM   23  C14 UNL     1     -12.877   3.550  -1.860  1.00  0.00     0.155 C 
HETATM   24  C15 UNL     1     -12.447   3.086  -3.194  1.00  0.00     0.061 C 
HETATM   25  C16 UNL     1     -11.532   1.926  -3.195  1.00  0.00    -0.028 C 
HETATM   26  C17 UNL     1     -10.424   1.729  -2.498  1.00  0.00    -0.031 C 
HETATM   27  C18 UNL     1      -9.686   2.526  -1.494  1.00  0.00     0.027 C 
HETATM   28  C19 UNL     1     -10.620   3.588  -0.916  1.00  0.00     0.006 C 
HETATM   29  C20 UNL     1     -11.962   2.930  -0.768  1.00  0.00     0.035 C 
ENDBRANCH  22  23
ENDBRANCH  20  22
ENDBRANCH  17  19
ENDBRANCH  16  17
ENDBRANCH   1  16
TORSDOF 16
ENDMDL
