MODEL 1
REMARK VINA RESULT: -7.977063319      0.000      0.000
REMARK  18 active torsions:
REMARK  status: ('A' for Active; 'I' for Inactive)
REMARK    1  A    between atoms: N1_1  and  C1_5 
REMARK    2  A    between atoms: C1_5  and  C2_6 
REMARK    3  A    between atoms: C2_6  and  N2_7 
REMARK    4  A    between atoms: N2_7  and  C3_9 
REMARK    5  A    between atoms: C3_9  and  C4_10 
REMARK    6  A    between atoms: C4_10  and  C5_11 
REMARK    7  A    between atoms: C5_11  and  C6_12 
REMARK    8  A    between atoms: C6_12  and  C7_13 
REMARK    9  A    between atoms: C7_13  and  C8_14 
REMARK   10  A    between atoms: C8_14  and  C9_15 
REMARK   11  A    between atoms: C9_15  and  C10_16 
REMARK   12  A    between atoms: C10_16  and  C11_17 
REMARK   13  A    between atoms: C11_17  and  C12_18 
REMARK   14  A    between atoms: C12_18  and  C13_19 
REMARK   15  A    between atoms: C13_19  and  C14_20 
REMARK   16  A    between atoms: C14_20  and  C15_21 
REMARK   17  A    between atoms: C15_21  and  C16_22 
REMARK   18  A    between atoms: C16_22  and  C17_23 
ROOT
HETATM    1  C8  UNL     1     -16.130   2.141   3.545  1.00  0.00     0.000 C 
ENDROOT
BRANCH   1   2
HETATM    2  C7  UNL     1     -15.872   0.743   3.942  1.00  0.00     0.000 C 
BRANCH   2   3
HETATM    3  C6  UNL     1     -16.908  -0.056   4.584  1.00  0.00     0.000 C 
BRANCH   3   4
HETATM    4  C5  UNL     1     -16.666  -0.956   5.712  1.00  0.00     0.005 C 
BRANCH   4   5
HETATM    5  C4  UNL     1     -15.370  -1.640   5.744  1.00  0.00     0.044 C 
BRANCH   5   6
HETATM    6  C3  UNL     1     -15.234  -2.915   4.956  1.00  0.00     0.060 C 
BRANCH   6   7
HETATM    7  N2  UNL     1     -15.994  -4.017   5.069  1.00  0.00    -0.381 N 
ATOM      8  H2  UNL     1     -16.863  -3.915   4.545  1.00  0.00     0.164 HD
BRANCH   7   9
HETATM    9  C2  UNL     1     -15.936  -5.233   5.684  1.00  0.00     0.087 C 
BRANCH   9  10
HETATM   10  C1  UNL     1     -14.568  -5.679   6.107  1.00  0.00     0.274 C 
BRANCH  10  11
HETATM   11  N1  UNL     1     -13.824  -6.316   5.024  1.00  0.00    -0.075 N 
ATOM     12  H13 UNL     1     -14.400  -6.401   4.185  1.00  0.00     0.274 HD
ATOM     13  H12 UNL     1     -13.099  -5.695   4.663  1.00  0.00     0.274 HD
ATOM     14  H11 UNL     1     -13.433  -7.219   5.293  1.00  0.00     0.274 HD
ENDBRANCH  10  11
ENDBRANCH   9  10
ENDBRANCH   7   9
ENDBRANCH   6   7
ENDBRANCH   5   6
ENDBRANCH   4   5
ENDBRANCH   3   4
ENDBRANCH   2   3
ENDBRANCH   1   2
BRANCH   1  15
HETATM   15  C9  UNL     1     -15.844   2.234   2.025  1.00  0.00     0.000 C 
BRANCH  15  16
HETATM   16  C10 UNL     1     -14.816   3.257   1.742  1.00  0.00     0.000 C 
BRANCH  16  17
HETATM   17  C11 UNL     1     -14.277   3.044   0.317  1.00  0.00     0.000 C 
BRANCH  17  18
HETATM   18  C12 UNL     1     -14.949   4.015  -0.597  1.00  0.00     0.000 C 
BRANCH  18  19
HETATM   19  C13 UNL     1     -15.005   5.437  -0.096  1.00  0.00     0.000 C 
BRANCH  19  20
HETATM   20  C14 UNL     1     -14.159   6.366  -0.891  1.00  0.00     0.000 C 
BRANCH  20  21
HETATM   21  C15 UNL     1     -13.464   5.685  -2.050  1.00  0.00     0.005 C 
BRANCH  21  22
HETATM   22  C16 UNL     1     -11.971   5.616  -1.836  1.00  0.00     0.038 C 
BRANCH  22  23
HETATM   23  C17 UNL     1     -11.541   4.213  -2.045  1.00  0.00    -0.058 A 
HETATM   24  C18 UNL     1     -12.167   3.364  -2.944  1.00  0.00     0.007 A 
HETATM   25  C19 UNL     1     -11.744   2.055  -3.136  1.00  0.00     0.001 A 
HETATM   26  C20 UNL     1     -10.685   1.549  -2.440  1.00  0.00     0.000 A 
HETATM   27  C21 UNL     1     -10.044   2.376  -1.538  1.00  0.00     0.001 A 
HETATM   28  C22 UNL     1     -10.462   3.670  -1.348  1.00  0.00     0.007 A 
ENDBRANCH  22  23
ENDBRANCH  21  22
ENDBRANCH  20  21
ENDBRANCH  19  20
ENDBRANCH  18  19
ENDBRANCH  17  18
ENDBRANCH  16  17
ENDBRANCH  15  16
ENDBRANCH   1  15
TORSDOF 18
ENDMDL
MODEL 2
REMARK VINA RESULT: -7.971979568      0.938      1.544
REMARK  18 active torsions:
REMARK  status: ('A' for Active; 'I' for Inactive)
REMARK    1  A    between atoms: N1_1  and  C1_5 
REMARK    2  A    between atoms: C1_5  and  C2_6 
REMARK    3  A    between atoms: C2_6  and  N2_7 
REMARK    4  A    between atoms: N2_7  and  C3_9 
REMARK    5  A    between atoms: C3_9  and  C4_10 
REMARK    6  A    between atoms: C4_10  and  C5_11 
REMARK    7  A    between atoms: C5_11  and  C6_12 
REMARK    8  A    between atoms: C6_12  and  C7_13 
REMARK    9  A    between atoms: C7_13  and  C8_14 
REMARK   10  A    between atoms: C8_14  and  C9_15 
REMARK   11  A    between atoms: C9_15  and  C10_16 
REMARK   12  A    between atoms: C10_16  and  C11_17 
REMARK   13  A    between atoms: C11_17  and  C12_18 
REMARK   14  A    between atoms: C12_18  and  C13_19 
REMARK   15  A    between atoms: C13_19  and  C14_20 
REMARK   16  A    between atoms: C14_20  and  C15_21 
REMARK   17  A    between atoms: C15_21  and  C16_22 
REMARK   18  A    between atoms: C16_22  and  C17_23 
ROOT
HETATM    1  C8  UNL     1     -16.388   2.219   1.995  1.00  0.00     0.000 C 
ENDROOT
BRANCH   1   2
HETATM    2  C7  UNL     1     -16.088   1.967   3.419  1.00  0.00     0.000 C 
BRANCH   2   3
HETATM    3  C6  UNL     1     -15.721   0.633   3.881  1.00  0.00     0.000 C 
BRANCH   3   4
HETATM    4  C5  UNL     1     -16.472  -0.118   4.888  1.00  0.00     0.005 C 
BRANCH   4   5
HETATM    5  C4  UNL     1     -15.908  -1.404   5.307  1.00  0.00     0.044 C 
BRANCH   5   6
HETATM    6  C3  UNL     1     -16.584  -2.656   4.821  1.00  0.00     0.060 C 
BRANCH   6   7
HETATM    7  N2  UNL     1     -16.079  -3.901   4.831  1.00  0.00    -0.381 N 
ATOM      8  H2  UNL     1     -15.884  -4.223   3.882  1.00  0.00     0.164 HD
BRANCH   7   9
HETATM    9  C2  UNL     1     -15.752  -4.857   5.746  1.00  0.00     0.087 C 
BRANCH   9  10
HETATM   10  C1  UNL     1     -14.284  -5.124   5.908  1.00  0.00     0.274 C 
BRANCH  10  11
HETATM   11  N1  UNL     1     -13.859  -6.354   5.245  1.00  0.00    -0.075 N 
ATOM     12  H13 UNL     1     -14.309  -7.169   5.663  1.00  0.00     0.274 HD
ATOM     13  H12 UNL     1     -14.248  -6.416   4.304  1.00  0.00     0.274 HD
ATOM     14  H11 UNL     1     -12.845  -6.462   5.231  1.00  0.00     0.274 HD
ENDBRANCH  10  11
ENDBRANCH   9  10
ENDBRANCH   7   9
ENDBRANCH   6   7
ENDBRANCH   5   6
ENDBRANCH   4   5
ENDBRANCH   3   4
ENDBRANCH   2   3
ENDBRANCH   1   2
BRANCH   1  15
HETATM   15  C9  UNL     1     -15.033   2.480   1.292  1.00  0.00     0.000 C 
BRANCH  15  16
HETATM   16  C10 UNL     1     -14.698   3.919   1.306  1.00  0.00     0.000 C 
BRANCH  16  17
HETATM   17  C11 UNL     1     -15.543   4.640   0.241  1.00  0.00     0.000 C 
BRANCH  17  18
HETATM   18  C12 UNL     1     -15.105   6.066   0.169  1.00  0.00     0.000 C 
BRANCH  18  19
HETATM   19  C13 UNL     1     -13.900   6.324  -0.702  1.00  0.00     0.000 C 
BRANCH  19  20
HETATM   20  C14 UNL     1     -14.166   6.090  -2.145  1.00  0.00     0.000 C 
BRANCH  20  21
HETATM   21  C15 UNL     1     -13.146   5.179  -2.795  1.00  0.00     0.005 C 
BRANCH  21  22
HETATM   22  C16 UNL     1     -13.385   3.733  -2.433  1.00  0.00     0.038 C 
BRANCH  22  23
HETATM   23  C17 UNL     1     -12.108   3.163  -1.946  1.00  0.00    -0.058 A 
HETATM   24  C18 UNL     1     -11.884   2.855  -0.614  1.00  0.00     0.007 A 
HETATM   25  C19 UNL     1     -10.683   2.310  -0.176  1.00  0.00     0.001 A 
HETATM   26  C20 UNL     1      -9.667   2.055  -1.050  1.00  0.00     0.000 A 
HETATM   27  C21 UNL     1      -9.865   2.353  -2.384  1.00  0.00     0.001 A 
HETATM   28  C22 UNL     1     -11.052   2.892  -2.817  1.00  0.00     0.007 A 
ENDBRANCH  22  23
ENDBRANCH  21  22
ENDBRANCH  20  21
ENDBRANCH  19  20
ENDBRANCH  18  19
ENDBRANCH  17  18
ENDBRANCH  16  17
ENDBRANCH  15  16
ENDBRANCH   1  15
TORSDOF 18
ENDMDL
MODEL 3
REMARK VINA RESULT: -7.960843713      0.610      1.220
REMARK  18 active torsions:
REMARK  status: ('A' for Active; 'I' for Inactive)
REMARK    1  A    between atoms: N1_1  and  C1_5 
REMARK    2  A    between atoms: C1_5  and  C2_6 
REMARK    3  A    between atoms: C2_6  and  N2_7 
REMARK    4  A    between atoms: N2_7  and  C3_9 
REMARK    5  A    between atoms: C3_9  and  C4_10 
REMARK    6  A    between atoms: C4_10  and  C5_11 
REMARK    7  A    between atoms: C5_11  and  C6_12 
REMARK    8  A    between atoms: C6_12  and  C7_13 
REMARK    9  A    between atoms: C7_13  and  C8_14 
REMARK   10  A    between atoms: C8_14  and  C9_15 
REMARK   11  A    between atoms: C9_15  and  C10_16 
REMARK   12  A    between atoms: C10_16  and  C11_17 
REMARK   13  A    between atoms: C11_17  and  C12_18 
REMARK   14  A    between atoms: C12_18  and  C13_19 
REMARK   15  A    between atoms: C13_19  and  C14_20 
REMARK   16  A    between atoms: C14_20  and  C15_21 
REMARK   17  A    between atoms: C15_21  and  C16_22 
REMARK   18  A    between atoms: C16_22  and  C17_23 
ROOT
HETATM    1  C8  UNL     1     -16.924   1.862   2.664  1.00  0.00     0.000 C 
ENDROOT
BRANCH   1   2
HETATM    2  C7  UNL     1     -15.772   1.485   3.506  1.00  0.00     0.000 C 
BRANCH   2   3
HETATM    3  C6  UNL     1     -15.799   0.269   4.310  1.00  0.00     0.000 C 
BRANCH   3   4
HETATM    4  C5  UNL     1     -16.985  -0.219   5.015  1.00  0.00     0.005 C 
BRANCH   4   5
HETATM    5  C4  UNL     1     -16.878  -1.533   5.654  1.00  0.00     0.044 C 
BRANCH   5   6
HETATM    6  C3  UNL     1     -16.824  -2.742   4.760  1.00  0.00     0.060 C 
BRANCH   6   7
HETATM    7  N2  UNL     1     -15.838  -3.654   4.697  1.00  0.00    -0.381 N 
ATOM      8  H2  UNL     1     -15.845  -4.134   3.797  1.00  0.00     0.164 HD
BRANCH   7   9
HETATM    9  C2  UNL     1     -14.833  -4.119   5.490  1.00  0.00     0.087 C 
BRANCH   9  10
HETATM   10  C1  UNL     1     -14.871  -5.589   5.789  1.00  0.00     0.274 C 
BRANCH  10  11
HETATM   11  N1  UNL     1     -13.858  -6.339   5.053  1.00  0.00    -0.075 N 
ATOM     12  H13 UNL     1     -13.924  -6.158   4.051  1.00  0.00     0.274 HD
ATOM     13  H12 UNL     1     -12.925  -5.964   5.226  1.00  0.00     0.274 HD
ATOM     14  H11 UNL     1     -13.892  -7.340   5.247  1.00  0.00     0.274 HD
ENDBRANCH  10  11
ENDBRANCH   9  10
ENDBRANCH   7   9
ENDBRANCH   6   7
ENDBRANCH   5   6
ENDBRANCH   4   5
ENDBRANCH   3   4
ENDBRANCH   2   3
ENDBRANCH   1   2
BRANCH   1  15
HETATM   15  C9  UNL     1     -16.351   2.598   1.426  1.00  0.00     0.000 C 
BRANCH  15  16
HETATM   16  C10 UNL     1     -14.967   3.050   1.674  1.00  0.00     0.000 C 
BRANCH  16  17
HETATM   17  C11 UNL     1     -14.220   3.137   0.332  1.00  0.00     0.000 C 
BRANCH  17  18
HETATM   18  C12 UNL     1     -14.929   4.114  -0.547  1.00  0.00     0.000 C 
BRANCH  18  19
HETATM   19  C13 UNL     1     -14.895   5.546  -0.073  1.00  0.00     0.000 C 
BRANCH  19  20
HETATM   20  C14 UNL     1     -14.147   6.443  -0.993  1.00  0.00     0.000 C 
BRANCH  20  21
HETATM   21  C15 UNL     1     -13.405   5.692  -2.077  1.00  0.00     0.005 C 
BRANCH  21  22
HETATM   22  C16 UNL     1     -11.926   5.618  -1.786  1.00  0.00     0.038 C 
BRANCH  22  23
HETATM   23  C17 UNL     1     -11.482   4.222  -2.012  1.00  0.00    -0.058 A 
HETATM   24  C18 UNL     1     -10.389   3.669  -1.363  1.00  0.00     0.007 A 
HETATM   25  C19 UNL     1      -9.993   2.355  -1.578  1.00  0.00     0.001 A 
HETATM   26  C20 UNL     1     -10.673   1.550  -2.445  1.00  0.00     0.000 A 
HETATM   27  C21 UNL     1     -11.766   2.077  -3.104  1.00  0.00     0.001 A 
HETATM   28  C22 UNL     1     -12.157   3.376  -2.892  1.00  0.00     0.007 A 
ENDBRANCH  22  23
ENDBRANCH  21  22
ENDBRANCH  20  21
ENDBRANCH  19  20
ENDBRANCH  18  19
ENDBRANCH  17  18
ENDBRANCH  16  17
ENDBRANCH  15  16
ENDBRANCH   1  15
TORSDOF 18
ENDMDL
MODEL 4
REMARK VINA RESULT: -7.935320243      1.513      2.029
REMARK  18 active torsions:
REMARK  status: ('A' for Active; 'I' for Inactive)
REMARK    1  A    between atoms: N1_1  and  C1_5 
REMARK    2  A    between atoms: C1_5  and  C2_6 
REMARK    3  A    between atoms: C2_6  and  N2_7 
REMARK    4  A    between atoms: N2_7  and  C3_9 
REMARK    5  A    between atoms: C3_9  and  C4_10 
REMARK    6  A    between atoms: C4_10  and  C5_11 
REMARK    7  A    between atoms: C5_11  and  C6_12 
REMARK    8  A    between atoms: C6_12  and  C7_13 
REMARK    9  A    between atoms: C7_13  and  C8_14 
REMARK   10  A    between atoms: C8_14  and  C9_15 
REMARK   11  A    between atoms: C9_15  and  C10_16 
REMARK   12  A    between atoms: C10_16  and  C11_17 
REMARK   13  A    between atoms: C11_17  and  C12_18 
REMARK   14  A    between atoms: C12_18  and  C13_19 
REMARK   15  A    between atoms: C13_19  and  C14_20 
REMARK   16  A    between atoms: C14_20  and  C15_21 
REMARK   17  A    between atoms: C15_21  and  C16_22 
REMARK   18  A    between atoms: C16_22  and  C17_23 
ROOT
HETATM    1  C8  UNL     1     -15.727   0.615   3.937  1.00  0.00     0.000 C 
ENDROOT
BRANCH   1   2
HETATM    2  C7  UNL     1     -16.853   0.010   4.677  1.00  0.00     0.000 C 
BRANCH   2   3
HETATM    3  C6  UNL     1     -16.714  -0.356   6.081  1.00  0.00     0.000 C 
BRANCH   3   4
HETATM    4  C5  UNL     1     -15.527  -1.001   6.644  1.00  0.00     0.005 C 
BRANCH   4   5
HETATM    5  C4  UNL     1     -15.432  -2.456   6.492  1.00  0.00     0.044 C 
BRANCH   5   6
HETATM    6  C3  UNL     1     -14.224  -3.007   5.785  1.00  0.00     0.060 C 
BRANCH   6   7
HETATM    7  N2  UNL     1     -13.211  -3.695   6.338  1.00  0.00    -0.381 N 
ATOM      8  H2  UNL     1     -12.321  -3.439   5.910  1.00  0.00     0.164 HD
BRANCH   7   9
HETATM    9  C2  UNL     1     -13.032  -4.636   7.308  1.00  0.00     0.087 C 
BRANCH   9  10
HETATM   10  C1  UNL     1     -11.627  -4.787   7.812  1.00  0.00     0.274 C 
BRANCH  10  11
HETATM   11  N1  UNL     1     -10.627  -4.509   6.785  1.00  0.00    -0.075 N 
ATOM     12  H13 UNL     1     -10.990  -4.720   5.855  1.00  0.00     0.274 HD
ATOM     13  H12 UNL     1     -10.480  -3.505   6.679  1.00  0.00     0.274 HD
ATOM     14  H11 UNL     1      -9.745  -4.993   6.954  1.00  0.00     0.274 HD
ENDBRANCH  10  11
ENDBRANCH   9  10
ENDBRANCH   7   9
ENDBRANCH   6   7
ENDBRANCH   5   6
ENDBRANCH   4   5
ENDBRANCH   3   4
ENDBRANCH   2   3
ENDBRANCH   1   2
BRANCH   1  15
HETATM   15  C9  UNL     1     -16.269   1.909   3.278  1.00  0.00     0.000 C 
BRANCH  15  16
HETATM   16  C10 UNL     1     -15.491   2.252   2.069  1.00  0.00     0.000 C 
BRANCH  16  17
HETATM   17  C11 UNL     1     -16.463   2.650   0.945  1.00  0.00     0.000 C 
BRANCH  17  18
HETATM   18  C12 UNL     1     -15.728   3.490  -0.046  1.00  0.00     0.000 C 
BRANCH  18  19
HETATM   19  C13 UNL     1     -14.704   4.430   0.542  1.00  0.00     0.000 C 
BRANCH  19  20
HETATM   20  C14 UNL     1     -14.595   5.710  -0.205  1.00  0.00     0.000 C 
BRANCH  20  21
HETATM   21  C15 UNL     1     -14.109   5.526  -1.626  1.00  0.00     0.005 C 
BRANCH  21  22
HETATM   22  C16 UNL     1     -12.615   5.721  -1.730  1.00  0.00     0.038 C 
BRANCH  22  23
HETATM   23  C17 UNL     1     -12.000   4.408  -2.034  1.00  0.00    -0.058 A 
HETATM   24  C18 UNL     1     -10.763   4.027  -1.538  1.00  0.00     0.007 A 
HETATM   25  C19 UNL     1     -10.206   2.787  -1.824  1.00  0.00     0.001 A 
HETATM   26  C20 UNL     1     -10.862   1.887  -2.613  1.00  0.00     0.000 A 
HETATM   27  C21 UNL     1     -12.096   2.243  -3.119  1.00  0.00     0.001 A 
HETATM   28  C22 UNL     1     -12.648   3.468  -2.837  1.00  0.00     0.007 A 
ENDBRANCH  22  23
ENDBRANCH  21  22
ENDBRANCH  20  21
ENDBRANCH  19  20
ENDBRANCH  18  19
ENDBRANCH  17  18
ENDBRANCH  16  17
ENDBRANCH  15  16
ENDBRANCH   1  15
TORSDOF 18
ENDMDL
MODEL 5
REMARK VINA RESULT: -7.932239408      1.472      1.827
REMARK  18 active torsions:
REMARK  status: ('A' for Active; 'I' for Inactive)
REMARK    1  A    between atoms: N1_1  and  C1_5 
REMARK    2  A    between atoms: C1_5  and  C2_6 
REMARK    3  A    between atoms: C2_6  and  N2_7 
REMARK    4  A    between atoms: N2_7  and  C3_9 
REMARK    5  A    between atoms: C3_9  and  C4_10 
REMARK    6  A    between atoms: C4_10  and  C5_11 
REMARK    7  A    between atoms: C5_11  and  C6_12 
REMARK    8  A    between atoms: C6_12  and  C7_13 
REMARK    9  A    between atoms: C7_13  and  C8_14 
REMARK   10  A    between atoms: C8_14  and  C9_15 
REMARK   11  A    between atoms: C9_15  and  C10_16 
REMARK   12  A    between atoms: C10_16  and  C11_17 
REMARK   13  A    between atoms: C11_17  and  C12_18 
REMARK   14  A    between atoms: C12_18  and  C13_19 
REMARK   15  A    between atoms: C13_19  and  C14_20 
REMARK   16  A    between atoms: C14_20  and  C15_21 
REMARK   17  A    between atoms: C15_21  and  C16_22 
REMARK   18  A    between atoms: C16_22  and  C17_23 
ROOT
HETATM    1  C8  UNL     1     -15.724   0.810   3.642  1.00  0.00     0.000 C 
ENDROOT
BRANCH   1   2
HETATM    2  C7  UNL     1     -16.824   0.326   4.499  1.00  0.00     0.000 C 
BRANCH   2   3
HETATM    3  C6  UNL     1     -16.711  -0.936   5.220  1.00  0.00     0.000 C 
BRANCH   3   4
HETATM    4  C5  UNL     1     -15.438  -1.564   5.575  1.00  0.00     0.005 C 
BRANCH   4   5
HETATM    5  C4  UNL     1     -15.074  -2.777   4.838  1.00  0.00     0.044 C 
BRANCH   5   6
HETATM    6  C3  UNL     1     -14.635  -3.974   5.637  1.00  0.00     0.060 C 
BRANCH   6   7
HETATM    7  N2  UNL     1     -13.458  -4.137   6.265  1.00  0.00    -0.381 N 
ATOM      8  H2  UNL     1     -12.759  -3.488   5.902  1.00  0.00     0.164 HD
BRANCH   7   9
HETATM    9  C2  UNL     1     -12.931  -4.920   7.248  1.00  0.00     0.087 C 
BRANCH   9  10
HETATM   10  C1  UNL     1     -11.499  -4.641   7.600  1.00  0.00     0.274 C 
BRANCH  10  11
HETATM   11  N1  UNL     1     -10.878  -3.670   6.704  1.00  0.00    -0.075 N 
ATOM     12  H13 UNL     1      -9.991  -4.020   6.342  1.00  0.00     0.274 HD
ATOM     13  H12 UNL     1     -11.395  -3.597   5.827  1.00  0.00     0.274 HD
ATOM     14  H11 UNL     1     -10.762  -2.754   7.137  1.00  0.00     0.274 HD
ENDBRANCH  10  11
ENDBRANCH   9  10
ENDBRANCH   7   9
ENDBRANCH   6   7
ENDBRANCH   5   6
ENDBRANCH   4   5
ENDBRANCH   3   4
ENDBRANCH   2   3
ENDBRANCH   1   2
BRANCH   1  15
HETATM   15  C9  UNL     1     -16.116   2.233   3.171  1.00  0.00     0.000 C 
BRANCH  15  16
HETATM   16  C10 UNL     1     -16.270   2.280   1.702  1.00  0.00     0.000 C 
BRANCH  16  17
HETATM   17  C11 UNL     1     -14.906   2.600   1.066  1.00  0.00     0.000 C 
BRANCH  17  18
HETATM   18  C12 UNL     1     -14.587   4.036   1.318  1.00  0.00     0.000 C 
BRANCH  18  19
HETATM   19  C13 UNL     1     -14.931   4.979   0.191  1.00  0.00     0.000 C 
BRANCH  19  20
HETATM   20  C14 UNL     1     -14.900   4.323  -1.143  1.00  0.00     0.000 C 
BRANCH  20  21
HETATM   21  C15 UNL     1     -14.106   5.107  -2.167  1.00  0.00     0.005 C 
BRANCH  21  22
HETATM   22  C16 UNL     1     -12.668   5.276  -1.742  1.00  0.00     0.038 C 
BRANCH  22  23
HETATM   23  C17 UNL     1     -11.999   3.958  -1.852  1.00  0.00    -0.058 A 
HETATM   24  C18 UNL     1     -11.951   3.238  -3.035  1.00  0.00     0.007 A 
HETATM   25  C19 UNL     1     -11.309   2.010  -3.123  1.00  0.00     0.001 A 
HETATM   26  C20 UNL     1     -10.694   1.459  -2.037  1.00  0.00     0.000 A 
HETATM   27  C21 UNL     1     -10.728   2.156  -0.846  1.00  0.00     0.001 A 
HETATM   28  C22 UNL     1     -11.362   3.371  -0.758  1.00  0.00     0.007 A 
ENDBRANCH  22  23
ENDBRANCH  21  22
ENDBRANCH  20  21
ENDBRANCH  19  20
ENDBRANCH  18  19
ENDBRANCH  17  18
ENDBRANCH  16  17
ENDBRANCH  15  16
ENDBRANCH   1  15
TORSDOF 18
ENDMDL
