MODEL 1
REMARK VINA RESULT: -6.660203993      0.000      0.000
REMARK  15 active torsions:
REMARK  status: ('A' for Active; 'I' for Inactive)
REMARK    1  A    between atoms: C3_3  and  O1_4 
REMARK    2  A    between atoms: C4_6  and  O2_7 
REMARK    3  A    between atoms: C5_9  and  O3_10 
REMARK    4  A    between atoms: O3_10  and  N1_11 
REMARK    5  A    between atoms: C6_17  and  N3_18 
REMARK    6  A    between atoms: N4_22  and  O4_23 
REMARK    7  A    between atoms: O4_23  and  C7_24 
REMARK    8  A    between atoms: C7_24  and  C8_25 
REMARK    9  A    between atoms: C8_25  and  C9_26 
REMARK   10  A    between atoms: C9_26  and  N5_27 
REMARK   11  A    between atoms: N5_27  and  C10_29 
REMARK   12  A    between atoms: C10_29  and  C11_30 
REMARK   13  A    between atoms: C11_30  and  C12_31 
REMARK   14  A    between atoms: C12_31  and  C13_32 
REMARK   15  A    between atoms: C13_32  and  N6_33 
ROOT
HETATM    1  C1  UNL     1      34.364  48.941  16.869  1.00  0.00     0.037 C 
HETATM    2  C2  UNL     1      33.865  49.865  17.986  1.00  0.00     0.140 C 
HETATM    3  C3  UNL     1      33.818  48.926  19.208  1.00  0.00     0.175 C 
HETATM    4  C4  UNL     1      33.309  49.625  20.417  1.00  0.00     0.208 C 
HETATM    5  C5  UNL     1      34.503  50.165  21.237  1.00  0.00     0.385 C 
HETATM    6  N2  UNL     1      35.523  50.434  20.300  1.00  0.00     0.004 N 
ATOM      7  H21 UNL     1      35.813  49.577  19.829  1.00  0.00     0.285 HD
ATOM      8  H22 UNL     1      36.394  50.671  20.774  1.00  0.00     0.285 HD
HETATM    9  C6  UNL     1      35.180  51.427  19.362  1.00  0.00     0.507 C 
HETATM   10  N4  UNL     1      34.530  50.971  18.125  1.00  0.00    -0.233 N 
ENDROOT
BRANCH  10  11
HETATM   11  O4  UNL     1      34.562  52.052  17.403  1.00  0.00    -0.279 OA
BRANCH  11  12
HETATM   12  C7  UNL     1      35.743  52.316  16.768  1.00  0.00     0.206 C 
BRANCH  12  13
HETATM   13  C8  UNL     1      35.550  53.819  16.394  1.00  0.00     0.073 C 
BRANCH  13  14
HETATM   14  C9  UNL     1      34.193  54.294  16.686  1.00  0.00     0.057 C 
BRANCH  14  15
HETATM   15  N5  UNL     1      33.322  54.364  15.581  1.00  0.00    -0.402 N 
ATOM     16  H5  UNL     1      32.325  54.533  15.713  1.00  0.00     0.158 HD
BRANCH  15  17
HETATM   17  C10 UNL     1      33.861  54.195  14.284  1.00  0.00     0.118 C 
BRANCH  17  18
HETATM   18  C11 UNL     1      32.773  53.752  13.272  1.00  0.00     0.021 C 
BRANCH  18  19
HETATM   19  C12 UNL     1      33.075  52.288  12.967  1.00  0.00     0.029 C 
BRANCH  19  20
HETATM   20  C13 UNL     1      34.425  51.802  13.369  1.00  0.00     0.229 C 
BRANCH  20  21
HETATM   21  N6  UNL     1      35.036  50.826  12.524  1.00  0.00    -0.079 N 
ATOM     22  H63 UNL     1      34.485  50.719  11.672  1.00  0.00     0.274 HD
ATOM     23  H62 UNL     1      35.903  51.202  12.140  1.00  0.00     0.274 HD
ATOM     24  H61 UNL     1      35.212  49.909  12.934  1.00  0.00     0.274 HD
ENDBRANCH  20  21
ENDBRANCH  19  20
ENDBRANCH  18  19
ENDBRANCH  17  18
ENDBRANCH  15  17
ENDBRANCH  14  15
ENDBRANCH  13  14
ENDBRANCH  12  13
ENDBRANCH  11  12
ENDBRANCH  10  11
BRANCH   9  25
HETATM   25  N3  UNL     1      34.305  52.506  19.857  1.00  0.00    -0.031 N 
ATOM     26  H33 UNL     1      33.329  52.269  19.681  1.00  0.00     0.279 HD
ATOM     27  H32 UNL     1      34.310  52.517  20.876  1.00  0.00     0.279 HD
ATOM     28  H31 UNL     1      34.504  53.441  19.500  1.00  0.00     0.279 HD
ENDBRANCH   9  25
BRANCH   3  29
HETATM   29  O1  UNL     1      34.993  48.229  19.392  1.00  0.00    -0.391 OA
ATOM     30  H1  UNL     1      34.882  47.456  19.935  1.00  0.00     0.210 HD
ENDBRANCH   3  29
BRANCH   4  31
HETATM   31  O2  UNL     1      32.641  48.713  21.226  1.00  0.00    -0.388 OA
ATOM     32  H2  UNL     1      33.072  48.671  22.071  1.00  0.00     0.210 HD
ENDBRANCH   4  31
BRANCH   5  33
HETATM   33  O3  UNL     1      34.119  51.382  21.799  1.00  0.00    -0.251 OA
BRANCH  33  34
HETATM   34  N1  UNL     1      33.251  51.268  22.826  1.00  0.00    -0.309 N 
ATOM     35  H12 UNL     1      33.539  50.922  23.742  1.00  0.00     0.184 HD
ATOM     36  H11 UNL     1      32.298  51.556  22.603  1.00  0.00     0.184 HD
ENDBRANCH  33  34
ENDBRANCH   5  33
TORSDOF 15
ENDMDL
MODEL 2
REMARK VINA RESULT: -6.443282564      1.109      1.592
REMARK  15 active torsions:
REMARK  status: ('A' for Active; 'I' for Inactive)
REMARK    1  A    between atoms: C3_3  and  O1_4 
REMARK    2  A    between atoms: C4_6  and  O2_7 
REMARK    3  A    between atoms: C5_9  and  O3_10 
REMARK    4  A    between atoms: O3_10  and  N1_11 
REMARK    5  A    between atoms: C6_17  and  N3_18 
REMARK    6  A    between atoms: N4_22  and  O4_23 
REMARK    7  A    between atoms: O4_23  and  C7_24 
REMARK    8  A    between atoms: C7_24  and  C8_25 
REMARK    9  A    between atoms: C8_25  and  C9_26 
REMARK   10  A    between atoms: C9_26  and  N5_27 
REMARK   11  A    between atoms: N5_27  and  C10_29 
REMARK   12  A    between atoms: C10_29  and  C11_30 
REMARK   13  A    between atoms: C11_30  and  C12_31 
REMARK   14  A    between atoms: C12_31  and  C13_32 
REMARK   15  A    between atoms: C13_32  and  N6_33 
ROOT
HETATM    1  C1  UNL     1      34.325  49.124  17.458  1.00  0.00     0.037 C 
HETATM    2  C2  UNL     1      33.774  50.003  18.586  1.00  0.00     0.140 C 
HETATM    3  C3  UNL     1      33.959  49.113  19.831  1.00  0.00     0.175 C 
HETATM    4  C4  UNL     1      33.440  49.773  21.057  1.00  0.00     0.208 C 
HETATM    5  C5  UNL     1      34.593  50.516  21.769  1.00  0.00     0.385 C 
HETATM    6  N2  UNL     1      35.490  50.899  20.749  1.00  0.00     0.004 N 
ATOM      7  H21 UNL     1      35.872  50.080  20.278  1.00  0.00     0.285 HD
ATOM      8  H22 UNL     1      36.347  51.282  21.147  1.00  0.00     0.285 HD
HETATM    9  C6  UNL     1      34.933  51.794  19.814  1.00  0.00     0.507 C 
HETATM   10  N4  UNL     1      34.270  51.201  18.644  1.00  0.00    -0.233 N 
ENDROOT
BRANCH  10  11
HETATM   11  O4  UNL     1      34.085  52.246  17.894  1.00  0.00    -0.279 OA
BRANCH  11  12
HETATM   12  C7  UNL     1      35.200  52.761  17.293  1.00  0.00     0.206 C 
BRANCH  12  13
HETATM   13  C8  UNL     1      34.642  54.107  16.734  1.00  0.00     0.073 C 
BRANCH  13  14
HETATM   14  C9  UNL     1      35.314  54.515  15.496  1.00  0.00     0.057 C 
BRANCH  14  15
HETATM   15  N5  UNL     1      35.960  53.485  14.785  1.00  0.00    -0.402 N 
ATOM     16  H5  UNL     1      36.805  53.048  15.153  1.00  0.00     0.158 HD
BRANCH  15  17
HETATM   17  C10 UNL     1      35.409  53.068  13.550  1.00  0.00     0.118 C 
BRANCH  17  18
HETATM   18  C11 UNL     1      34.441  51.872  13.737  1.00  0.00     0.021 C 
BRANCH  18  19
HETATM   19  C12 UNL     1      33.191  52.233  12.940  1.00  0.00     0.029 C 
BRANCH  19  20
HETATM   20  C13 UNL     1      32.753  53.656  13.022  1.00  0.00     0.229 C 
BRANCH  20  21
HETATM   21  N6  UNL     1      32.011  54.035  14.181  1.00  0.00    -0.079 N 
ATOM     22  H63 UNL     1      31.987  53.258  14.841  1.00  0.00     0.274 HD
ATOM     23  H62 UNL     1      32.542  54.721  14.718  1.00  0.00     0.274 HD
ATOM     24  H61 UNL     1      31.063  54.382  14.027  1.00  0.00     0.274 HD
ENDBRANCH  20  21
ENDBRANCH  19  20
ENDBRANCH  18  19
ENDBRANCH  17  18
ENDBRANCH  15  17
ENDBRANCH  14  15
ENDBRANCH  13  14
ENDBRANCH  12  13
ENDBRANCH  11  12
ENDBRANCH  10  11
BRANCH   9  25
HETATM   25  N3  UNL     1      33.942  52.748  20.348  1.00  0.00    -0.031 N 
ATOM     26  H33 UNL     1      34.051  52.834  21.358  1.00  0.00     0.279 HD
ATOM     27  H32 UNL     1      34.181  53.696  20.057  1.00  0.00     0.279 HD
ATOM     28  H31 UNL     1      32.967  52.552  20.120  1.00  0.00     0.279 HD
ENDBRANCH   9  25
BRANCH   3  29
HETATM   29  O1  UNL     1      35.237  48.608  19.941  1.00  0.00    -0.391 OA
ATOM     30  H1  UNL     1      35.367  48.106  20.738  1.00  0.00     0.210 HD
ENDBRANCH   3  29
BRANCH   4  31
HETATM   31  O2  UNL     1      32.979  48.802  21.939  1.00  0.00    -0.388 OA
ATOM     32  H2  UNL     1      33.294  47.951  21.659  1.00  0.00     0.210 HD
ENDBRANCH   4  31
BRANCH   5  33
HETATM   33  O3  UNL     1      34.071  51.682  22.327  1.00  0.00    -0.251 OA
BRANCH  33  34
HETATM   34  N1  UNL     1      33.279  51.474  23.400  1.00  0.00    -0.309 N 
ATOM     35  H12 UNL     1      33.070  50.537  23.745  1.00  0.00     0.184 HD
ATOM     36  H11 UNL     1      32.917  52.329  23.824  1.00  0.00     0.184 HD
ENDBRANCH  33  34
ENDBRANCH   5  33
TORSDOF 15
ENDMDL
MODEL 3
REMARK VINA RESULT: -6.427438051      1.752      3.289
REMARK  15 active torsions:
REMARK  status: ('A' for Active; 'I' for Inactive)
REMARK    1  A    between atoms: C3_3  and  O1_4 
REMARK    2  A    between atoms: C4_6  and  O2_7 
REMARK    3  A    between atoms: C5_9  and  O3_10 
REMARK    4  A    between atoms: O3_10  and  N1_11 
REMARK    5  A    between atoms: C6_17  and  N3_18 
REMARK    6  A    between atoms: N4_22  and  O4_23 
REMARK    7  A    between atoms: O4_23  and  C7_24 
REMARK    8  A    between atoms: C7_24  and  C8_25 
REMARK    9  A    between atoms: C8_25  and  C9_26 
REMARK   10  A    between atoms: C9_26  and  N5_27 
REMARK   11  A    between atoms: N5_27  and  C10_29 
REMARK   12  A    between atoms: C10_29  and  C11_30 
REMARK   13  A    between atoms: C11_30  and  C12_31 
REMARK   14  A    between atoms: C12_31  and  C13_32 
REMARK   15  A    between atoms: C13_32  and  N6_33 
ROOT
HETATM    1  C1  UNL     1      34.498  48.453  17.024  1.00  0.00     0.037 C 
HETATM    2  C2  UNL     1      33.907  49.584  17.874  1.00  0.00     0.140 C 
HETATM    3  C3  UNL     1      33.910  48.980  19.293  1.00  0.00     0.175 C 
HETATM    4  C4  UNL     1      33.325  49.917  20.287  1.00  0.00     0.208 C 
HETATM    5  C5  UNL     1      34.457  50.739  20.945  1.00  0.00     0.385 C 
HETATM    6  N2  UNL     1      35.470  50.846  19.969  1.00  0.00     0.004 N 
ATOM      7  H21 UNL     1      35.836  49.925  19.727  1.00  0.00     0.285 HD
ATOM      8  H22 UNL     1      36.311  51.264  20.367  1.00  0.00     0.285 HD
HETATM    9  C6  UNL     1      35.070  51.541  18.812  1.00  0.00     0.507 C 
HETATM   10  N4  UNL     1      34.480  50.740  17.730  1.00  0.00    -0.233 N 
ENDROOT
BRANCH  10  11
HETATM   11  O4  UNL     1      34.441  51.604  16.760  1.00  0.00    -0.279 OA
BRANCH  11  12
HETATM   12  C7  UNL     1      35.487  51.568  15.879  1.00  0.00     0.206 C 
BRANCH  12  13
HETATM   13  C8  UNL     1      35.080  52.702  14.888  1.00  0.00     0.073 C 
BRANCH  13  14
HETATM   14  C9  UNL     1      34.611  53.905  15.582  1.00  0.00     0.057 C 
BRANCH  14  15
HETATM   15  N5  UNL     1      35.578  54.579  16.355  1.00  0.00    -0.402 N 
ATOM     16  H5  UNL     1      35.427  54.746  17.349  1.00  0.00     0.158 HD
BRANCH  15  17
HETATM   17  C10 UNL     1      36.764  55.018  15.719  1.00  0.00     0.118 C 
BRANCH  17  18
HETATM   18  C11 UNL     1      37.928  55.162  16.732  1.00  0.00     0.021 C 
BRANCH  18  19
HETATM   19  C12 UNL     1      37.696  54.074  17.776  1.00  0.00     0.029 C 
BRANCH  19  20
HETATM   20  C13 UNL     1      37.597  54.535  19.190  1.00  0.00     0.229 C 
BRANCH  20  21
HETATM   21  N6  UNL     1      37.574  55.947  19.406  1.00  0.00    -0.079 N 
ATOM     22  H63 UNL     1      37.029  56.396  18.669  1.00  0.00     0.274 HD
ATOM     23  H62 UNL     1      36.997  56.158  20.221  1.00  0.00     0.274 HD
ATOM     24  H61 UNL     1      38.477  56.413  19.496  1.00  0.00     0.274 HD
ENDBRANCH  20  21
ENDBRANCH  19  20
ENDBRANCH  18  19
ENDBRANCH  17  18
ENDBRANCH  15  17
ENDBRANCH  14  15
ENDBRANCH  13  14
ENDBRANCH  12  13
ENDBRANCH  11  12
ENDBRANCH  10  11
BRANCH   9  25
HETATM   25  N3  UNL     1      34.103  52.636  19.021  1.00  0.00    -0.031 N 
ATOM     26  H33 UNL     1      33.843  52.687  20.005  1.00  0.00     0.279 HD
ATOM     27  H32 UNL     1      34.569  53.536  18.908  1.00  0.00     0.279 HD
ATOM     28  H31 UNL     1      33.264  52.606  18.442  1.00  0.00     0.279 HD
ENDBRANCH   9  25
BRANCH   3  29
HETATM   29  O1  UNL     1      35.132  48.448  19.644  1.00  0.00    -0.391 OA
ATOM     30  H1  UNL     1      35.210  48.291  20.578  1.00  0.00     0.210 HD
ENDBRANCH   3  29
BRANCH   4  31
HETATM   31  O2  UNL     1      32.715  49.185  21.300  1.00  0.00    -0.388 OA
ATOM     32  H2  UNL     1      33.059  49.466  22.140  1.00  0.00     0.210 HD
ENDBRANCH   4  31
BRANCH   5  33
HETATM   33  O3  UNL     1      33.968  52.023  21.183  1.00  0.00    -0.251 OA
BRANCH  33  34
HETATM   34  N1  UNL     1      32.965  52.074  22.084  1.00  0.00    -0.309 N 
ATOM     35  H12 UNL     1      32.790  51.316  22.744  1.00  0.00     0.184 HD
ATOM     36  H11 UNL     1      32.409  52.929  22.043  1.00  0.00     0.184 HD
ENDBRANCH  33  34
ENDBRANCH   5  33
TORSDOF 15
ENDMDL
MODEL 4
REMARK VINA RESULT: -6.382231206      1.638      2.175
REMARK  15 active torsions:
REMARK  status: ('A' for Active; 'I' for Inactive)
REMARK    1  A    between atoms: C3_3  and  O1_4 
REMARK    2  A    between atoms: C4_6  and  O2_7 
REMARK    3  A    between atoms: C5_9  and  O3_10 
REMARK    4  A    between atoms: O3_10  and  N1_11 
REMARK    5  A    between atoms: C6_17  and  N3_18 
REMARK    6  A    between atoms: N4_22  and  O4_23 
REMARK    7  A    between atoms: O4_23  and  C7_24 
REMARK    8  A    between atoms: C7_24  and  C8_25 
REMARK    9  A    between atoms: C8_25  and  C9_26 
REMARK   10  A    between atoms: C9_26  and  N5_27 
REMARK   11  A    between atoms: N5_27  and  C10_29 
REMARK   12  A    between atoms: C10_29  and  C11_30 
REMARK   13  A    between atoms: C11_30  and  C12_31 
REMARK   14  A    between atoms: C12_31  and  C13_32 
REMARK   15  A    between atoms: C13_32  and  N6_33 
ROOT
HETATM    1  C1  UNL     1      34.314  48.971  16.820  1.00  0.00     0.037 C 
HETATM    2  C2  UNL     1      33.818  49.886  17.946  1.00  0.00     0.140 C 
HETATM    3  C3  UNL     1      33.814  48.947  19.169  1.00  0.00     0.175 C 
HETATM    4  C4  UNL     1      33.314  49.637  20.387  1.00  0.00     0.208 C 
HETATM    5  C5  UNL     1      34.512  50.202  21.184  1.00  0.00     0.385 C 
HETATM    6  N2  UNL     1      35.508  50.491  20.227  1.00  0.00     0.004 N 
ATOM      7  H21 UNL     1      35.807  49.641  19.751  1.00  0.00     0.285 HD
ATOM      8  H22 UNL     1      36.383  50.747  20.684  1.00  0.00     0.285 HD
HETATM    9  C6  UNL     1      35.127  51.476  19.295  1.00  0.00     0.507 C 
HETATM   10  N4  UNL     1      34.462  51.006  18.071  1.00  0.00    -0.233 N 
ENDROOT
BRANCH  10  11
HETATM   11  O4  UNL     1      34.458  52.086  17.348  1.00  0.00    -0.279 OA
BRANCH  11  12
HETATM   12  C7  UNL     1      35.541  52.270  16.534  1.00  0.00     0.206 C 
BRANCH  12  13
HETATM   13  C8  UNL     1      34.854  52.808  15.241  1.00  0.00     0.073 C 
BRANCH  13  14
HETATM   14  C9  UNL     1      34.572  51.740  14.276  1.00  0.00     0.057 C 
BRANCH  14  15
HETATM   15  N5  UNL     1      33.650  52.064  13.262  1.00  0.00    -0.402 N 
ATOM     16  H5  UNL     1      33.052  52.886  13.344  1.00  0.00     0.158 HD
BRANCH  15  17
HETATM   17  C10 UNL     1      33.571  51.224  12.126  1.00  0.00     0.118 C 
BRANCH  17  18
HETATM   18  C11 UNL     1      34.925  50.522  11.847  1.00  0.00     0.021 C 
BRANCH  18  19
HETATM   19  C12 UNL     1      34.654  49.563  10.691  1.00  0.00     0.029 C 
BRANCH  19  20
HETATM   20  C13 UNL     1      33.341  49.725  10.003  1.00  0.00     0.229 C 
BRANCH  20  21
HETATM   21  N6  UNL     1      33.341  49.605   8.580  1.00  0.00    -0.079 N 
ATOM     22  H63 UNL     1      32.386  49.685   8.231  1.00  0.00     0.274 HD
ATOM     23  H62 UNL     1      33.762  50.438   8.167  1.00  0.00     0.274 HD
ATOM     24  H61 UNL     1      33.780  48.771   8.189  1.00  0.00     0.274 HD
ENDBRANCH  20  21
ENDBRANCH  19  20
ENDBRANCH  18  19
ENDBRANCH  17  18
ENDBRANCH  15  17
ENDBRANCH  14  15
ENDBRANCH  13  14
ENDBRANCH  12  13
ENDBRANCH  11  12
ENDBRANCH  10  11
BRANCH   9  25
HETATM   25  N3  UNL     1      34.239  52.538  19.806  1.00  0.00    -0.031 N 
ATOM     26  H33 UNL     1      34.624  52.928  20.665  1.00  0.00     0.279 HD
ATOM     27  H32 UNL     1      34.288  53.354  19.196  1.00  0.00     0.279 HD
ATOM     28  H31 UNL     1      33.265  52.273  19.951  1.00  0.00     0.279 HD
ENDBRANCH   9  25
BRANCH   3  29
HETATM   29  O1  UNL     1      35.006  48.275  19.330  1.00  0.00    -0.391 OA
ATOM     30  H1  UNL     1      35.009  47.423  18.908  1.00  0.00     0.210 HD
ENDBRANCH   3  29
BRANCH   4  31
HETATM   31  O2  UNL     1      32.680  48.712  21.209  1.00  0.00    -0.388 OA
ATOM     32  H2  UNL     1      32.993  48.820  22.099  1.00  0.00     0.210 HD
ENDBRANCH   4  31
BRANCH   5  33
HETATM   33  O3  UNL     1      34.114  51.412  21.752  1.00  0.00    -0.251 OA
BRANCH  33  34
HETATM   34  N1  UNL     1      33.264  51.281  22.792  1.00  0.00    -0.309 N 
ATOM     35  H12 UNL     1      33.230  50.434  23.361  1.00  0.00     0.184 HD
ATOM     36  H11 UNL     1      32.670  52.095  22.952  1.00  0.00     0.184 HD
ENDBRANCH  33  34
ENDBRANCH   5  33
TORSDOF 15
ENDMDL
MODEL 5
REMARK VINA RESULT: -6.347603939      2.360      6.822
REMARK  15 active torsions:
REMARK  status: ('A' for Active; 'I' for Inactive)
REMARK    1  A    between atoms: C3_3  and  O1_4 
REMARK    2  A    between atoms: C4_6  and  O2_7 
REMARK    3  A    between atoms: C5_9  and  O3_10 
REMARK    4  A    between atoms: O3_10  and  N1_11 
REMARK    5  A    between atoms: C6_17  and  N3_18 
REMARK    6  A    between atoms: N4_22  and  O4_23 
REMARK    7  A    between atoms: O4_23  and  C7_24 
REMARK    8  A    between atoms: C7_24  and  C8_25 
REMARK    9  A    between atoms: C8_25  and  C9_26 
REMARK   10  A    between atoms: C9_26  and  N5_27 
REMARK   11  A    between atoms: N5_27  and  C10_29 
REMARK   12  A    between atoms: C10_29  and  C11_30 
REMARK   13  A    between atoms: C11_30  and  C12_31 
REMARK   14  A    between atoms: C12_31  and  C13_32 
REMARK   15  A    between atoms: C13_32  and  N6_33 
ROOT
HETATM    1  C1  UNL     1      34.609  50.163  16.161  1.00  0.00     0.037 C 
HETATM    2  C2  UNL     1      35.304  51.506  15.914  1.00  0.00     0.140 C 
HETATM    3  C3  UNL     1      35.072  51.737  14.407  1.00  0.00     0.175 C 
HETATM    4  C4  UNL     1      35.715  52.993  13.940  1.00  0.00     0.208 C 
HETATM    5  C5  UNL     1      34.684  54.143  13.984  1.00  0.00     0.385 C 
HETATM    6  N2  UNL     1      33.795  53.824  15.032  1.00  0.00     0.004 N 
ATOM      7  H21 UNL     1      33.302  52.954  14.832  1.00  0.00     0.285 HD
ATOM      8  H22 UNL     1      33.005  54.468  15.043  1.00  0.00     0.285 HD
HETATM    9  C6  UNL     1      34.411  53.768  16.297  1.00  0.00     0.507 C 
HETATM   10  N4  UNL     1      34.951  52.466  16.713  1.00  0.00    -0.233 N 
ENDROOT
BRANCH  10  11
HETATM   11  O4  UNL     1      35.222  52.687  17.965  1.00  0.00    -0.279 OA
BRANCH  11  12
HETATM   12  C7  UNL     1      34.159  52.665  18.825  1.00  0.00     0.206 C 
BRANCH  12  13
HETATM   13  C8  UNL     1      34.890  52.688  20.203  1.00  0.00     0.073 C 
BRANCH  13  14
HETATM   14  C9  UNL     1      35.682  51.476  20.432  1.00  0.00     0.057 C 
BRANCH  14  15
HETATM   15  N5  UNL     1      35.329  50.360  19.647  1.00  0.00    -0.402 N 
ATOM     16  H5  UNL     1      35.468  50.368  18.637  1.00  0.00     0.158 HD
BRANCH  15  17
HETATM   17  C10 UNL     1      34.776  49.228  20.292  1.00  0.00     0.118 C 
BRANCH  17  18
HETATM   18  C11 UNL     1      33.259  49.097  20.004  1.00  0.00     0.021 C 
BRANCH  18  19
HETATM   19  C12 UNL     1      32.570  49.309  21.349  1.00  0.00     0.029 C 
BRANCH  19  20
HETATM   20  C13 UNL     1      32.453  50.723  21.806  1.00  0.00     0.229 C 
BRANCH  20  21
HETATM   21  N6  UNL     1      33.107  51.060  23.029  1.00  0.00    -0.079 N 
ATOM     22  H63 UNL     1      32.605  50.640  23.812  1.00  0.00     0.274 HD
ATOM     23  H62 UNL     1      33.996  50.563  23.089  1.00  0.00     0.274 HD
ATOM     24  H61 UNL     1      33.257  52.052  23.212  1.00  0.00     0.274 HD
ENDBRANCH  20  21
ENDBRANCH  19  20
ENDBRANCH  18  19
ENDBRANCH  17  18
ENDBRANCH  15  17
ENDBRANCH  14  15
ENDBRANCH  13  14
ENDBRANCH  12  13
ENDBRANCH  11  12
ENDBRANCH  10  11
BRANCH   9  25
HETATM   25  N3  UNL     1      35.526  54.709  16.513  1.00  0.00    -0.031 N 
ATOM     26  H33 UNL     1      35.670  54.852  17.513  1.00  0.00     0.279 HD
ATOM     27  H32 UNL     1      36.409  54.264  16.263  1.00  0.00     0.279 HD
ATOM     28  H31 UNL     1      35.447  55.610  16.042  1.00  0.00     0.279 HD
ENDBRANCH   9  25
BRANCH   3  29
HETATM   29  O1  UNL     1      33.751  51.590  14.042  1.00  0.00    -0.391 OA
ATOM     30  H1  UNL     1      33.298  52.421  13.957  1.00  0.00     0.210 HD
ENDBRANCH   3  29
BRANCH   4  31
HETATM   31  O2  UNL     1      36.099  52.842  12.612  1.00  0.00    -0.388 OA
ATOM     32  H2  UNL     1      36.019  53.678  12.167  1.00  0.00     0.210 HD
ENDBRANCH   4  31
BRANCH   5  33
HETATM   33  O3  UNL     1      35.360  55.308  14.349  1.00  0.00    -0.251 OA
BRANCH  33  34
HETATM   34  N1  UNL     1      36.097  55.853  13.358  1.00  0.00    -0.309 N 
ATOM     35  H12 UNL     1      37.012  56.269  13.530  1.00  0.00     0.184 HD
ATOM     36  H11 UNL     1      35.658  55.809  12.438  1.00  0.00     0.184 HD
ENDBRANCH  33  34
ENDBRANCH   5  33
TORSDOF 15
ENDMDL
