MODEL 1
REMARK VINA RESULT: -6.991324357      0.000      0.000
REMARK  13 active torsions:
REMARK  status: ('A' for Active; 'I' for Inactive)
REMARK    1  A    between atoms: N1_1  and  C1_4 
REMARK    2  A    between atoms: C4_13  and  N5_14 
REMARK    3  A    between atoms: N5_14  and  C5_16 
REMARK    4  A    between atoms: C5_16  and  C6_17 
REMARK    5  A    between atoms: C6_17  and  N6_18 
REMARK    6  A    between atoms: N6_18  and  C7_21 
REMARK    7  A    between atoms: C7_21  and  C8_22 
REMARK    8  A    between atoms: C8_22  and  N7_23 
REMARK    9  A    between atoms: N7_23  and  C9_26 
REMARK   10  A    between atoms: C9_26  and  C10_27 
REMARK   11  A    between atoms: C10_27  and  O1_28 
REMARK   12  A    between atoms: N8_31  and  N9_32 
REMARK   13  A    between atoms: N9_32  and  C12_34 
ROOT
HETATM    1  C1  UNL     1      36.415  54.263  16.699  1.00  0.00     0.699 A 
HETATM    2  N2  UNL     1      36.109  54.464  15.395  1.00  0.00    -0.173 N 
ATOM      3  H2  UNL     1      36.217  55.340  14.883  1.00  0.00     0.186 HD
HETATM    4  C2  UNL     1      35.639  53.314  14.893  1.00  0.00     0.155 A 
HETATM    5  N3  UNL     1      35.196  52.944  13.681  1.00  0.00    -0.336 N 
ATOM      6  H3  UNL     1      35.187  53.639  12.934  1.00  0.00     0.168 HD
HETATM    7  C3  UNL     1      34.765  51.704  13.404  1.00  0.00     0.183 A 
HETATM    8  N4  UNL     1      34.788  50.817  14.395  1.00  0.00    -0.337 N 
ATOM      9  H4  UNL     1      34.462  49.871  14.195  1.00  0.00     0.168 HD
HETATM   10  C4  UNL     1      35.211  51.083  15.640  1.00  0.00     0.135 A 
HETATM   11  C11 UNL     1      35.650  52.349  15.920  1.00  0.00     0.162 A 
HETATM   12  N8  UNL     1      36.142  52.991  17.022  1.00  0.00    -0.081 N 
ENDROOT
BRANCH  10  13
HETATM   13  N5  UNL     1      35.201  50.180  16.518  1.00  0.00    -0.373 N 
ATOM     14  H5  UNL     1      35.954  50.193  17.206  1.00  0.00     0.161 HD
BRANCH  13  15
HETATM   15  C5  UNL     1      34.219  49.127  16.638  1.00  0.00     0.148 C 
BRANCH  15  16
HETATM   16  C6  UNL     1      33.709  48.975  18.049  1.00  0.00     0.251 C 
BRANCH  16  17
HETATM   17  N6  UNL     1      34.783  48.759  18.955  1.00  0.00    -0.072 N 
ATOM     18  H62 UNL     1      35.105  47.791  18.919  1.00  0.00     0.277 HD
ATOM     19  H61 UNL     1      35.632  49.226  18.637  1.00  0.00     0.277 HD
BRANCH  17  20
HETATM   20  C7  UNL     1      34.455  49.142  20.289  1.00  0.00     0.259 C 
BRANCH  20  21
HETATM   21  C8  UNL     1      32.975  49.193  20.577  1.00  0.00     0.259 C 
BRANCH  21  22
HETATM   22  N7  UNL     1      32.788  49.636  21.958  1.00  0.00    -0.072 N 
ATOM     23  H72 UNL     1      31.809  49.666  22.239  1.00  0.00     0.277 HD
ATOM     24  H71 UNL     1      33.100  48.949  22.645  1.00  0.00     0.277 HD
BRANCH  22  25
HETATM   25  C9  UNL     1      33.455  50.913  22.088  1.00  0.00     0.258 C 
BRANCH  25  26
HETATM   26  C10 UNL     1      32.434  52.003  22.328  1.00  0.00     0.191 C 
BRANCH  26  27
HETATM   27  O1  UNL     1      33.044  53.258  22.297  1.00  0.00    -0.399 OA
ATOM     28  H1  UNL     1      33.793  53.277  22.882  1.00  0.00     0.209 HD
ENDBRANCH  26  27
ENDBRANCH  25  26
ENDBRANCH  22  25
ENDBRANCH  21  22
ENDBRANCH  20  21
ENDBRANCH  17  20
ENDBRANCH  16  17
ENDBRANCH  15  16
ENDBRANCH  13  15
ENDBRANCH  10  13
BRANCH  12  29
HETATM   29  N9  UNL     1      36.328  52.388  18.245  1.00  0.00    -0.275 N 
ATOM     30  H9  UNL     1      37.214  51.909  18.407  1.00  0.00     0.185 HD
BRANCH  29  31
HETATM   31  C12 UNL     1      35.347  52.385  19.325  1.00  0.00     0.327 A 
HETATM   32  N10 UNL     1      34.105  52.972  19.269  1.00  0.00    -0.297 N 
HETATM   33  N11 UNL     1      35.086  53.655  19.998  1.00  0.00    -0.093 NA
ATOM     34  H10 UNL     1      33.143  52.936  18.933  1.00  0.00     0.179 HD
ENDBRANCH  29  31
ENDBRANCH  12  29
BRANCH   1  35
HETATM   35  N1  UNL     1      36.878  55.161  17.482  1.00  0.00    -0.233 N 
ATOM     36  H12 UNL     1      36.341  55.889  17.952  1.00  0.00     0.174 HD
ATOM     37  H11 UNL     1      37.863  55.264  17.725  1.00  0.00     0.174 HD
ENDBRANCH   1  35
TORSDOF 13
ENDMDL
MODEL 2
REMARK VINA RESULT: -6.796474818      2.159      3.356
REMARK  13 active torsions:
REMARK  status: ('A' for Active; 'I' for Inactive)
REMARK    1  A    between atoms: N1_1  and  C1_4 
REMARK    2  A    between atoms: C4_13  and  N5_14 
REMARK    3  A    between atoms: N5_14  and  C5_16 
REMARK    4  A    between atoms: C5_16  and  C6_17 
REMARK    5  A    between atoms: C6_17  and  N6_18 
REMARK    6  A    between atoms: N6_18  and  C7_21 
REMARK    7  A    between atoms: C7_21  and  C8_22 
REMARK    8  A    between atoms: C8_22  and  N7_23 
REMARK    9  A    between atoms: N7_23  and  C9_26 
REMARK   10  A    between atoms: C9_26  and  C10_27 
REMARK   11  A    between atoms: C10_27  and  O1_28 
REMARK   12  A    between atoms: N8_31  and  N9_32 
REMARK   13  A    between atoms: N9_32  and  C12_34 
ROOT
HETATM    1  C1  UNL     1      36.802  55.312  14.699  1.00  0.00     0.699 A 
HETATM    2  N2  UNL     1      36.428  54.566  13.630  1.00  0.00    -0.173 N 
ATOM      3  H2  UNL     1      36.556  54.819  12.650  1.00  0.00     0.186 HD
HETATM    4  C2  UNL     1      35.861  53.441  14.083  1.00  0.00     0.155 A 
HETATM    5  N3  UNL     1      35.322  52.367  13.483  1.00  0.00    -0.336 N 
ATOM      6  H3  UNL     1      35.308  52.338  12.464  1.00  0.00     0.168 HD
HETATM    7  C3  UNL     1      34.801  51.332  14.158  1.00  0.00     0.183 A 
HETATM    8  N4  UNL     1      34.832  51.396  15.487  1.00  0.00    -0.337 N 
ATOM      9  H4  UNL     1      34.439  50.614  16.011  1.00  0.00     0.168 HD
HETATM   10  C4  UNL     1      35.347  52.420  16.184  1.00  0.00     0.135 A 
HETATM   11  C11 UNL     1      35.878  53.476  15.493  1.00  0.00     0.162 A 
HETATM   12  N8  UNL     1      36.474  54.660  15.823  1.00  0.00    -0.081 N 
ENDROOT
BRANCH  10  13
HETATM   13  N5  UNL     1      35.338  52.396  17.444  1.00  0.00    -0.373 N 
ATOM     14  H5  UNL     1      36.199  52.108  17.909  1.00  0.00     0.161 HD
BRANCH  13  15
HETATM   15  C5  UNL     1      34.217  52.738  18.289  1.00  0.00     0.148 C 
BRANCH  15  16
HETATM   16  C6  UNL     1      34.544  52.611  19.756  1.00  0.00     0.251 C 
BRANCH  16  17
HETATM   17  N6  UNL     1      35.694  51.798  19.949  1.00  0.00    -0.072 N 
ATOM     18  H62 UNL     1      35.969  51.337  19.081  1.00  0.00     0.277 HD
ATOM     19  H61 UNL     1      36.526  52.368  20.102  1.00  0.00     0.277 HD
BRANCH  17  20
HETATM   20  C7  UNL     1      35.519  50.851  21.001  1.00  0.00     0.259 C 
BRANCH  20  21
HETATM   21  C8  UNL     1      34.542  49.745  20.689  1.00  0.00     0.259 C 
BRANCH  21  22
HETATM   22  N7  UNL     1      35.004  49.044  19.491  1.00  0.00    -0.072 N 
ATOM     23  H72 UNL     1      35.803  49.495  19.047  1.00  0.00     0.277 HD
ATOM     24  H71 UNL     1      35.455  48.153  19.697  1.00  0.00     0.277 HD
BRANCH  22  25
HETATM   25  C9  UNL     1      33.864  48.913  18.610  1.00  0.00     0.258 C 
BRANCH  25  26
HETATM   26  C10 UNL     1      34.297  48.290  17.301  1.00  0.00     0.191 C 
BRANCH  26  27
HETATM   27  O1  UNL     1      33.567  48.826  16.240  1.00  0.00    -0.399 OA
ATOM     28  H1  UNL     1      32.668  48.986  16.504  1.00  0.00     0.209 HD
ENDBRANCH  26  27
ENDBRANCH  25  26
ENDBRANCH  22  25
ENDBRANCH  21  22
ENDBRANCH  20  21
ENDBRANCH  17  20
ENDBRANCH  16  17
ENDBRANCH  15  16
ENDBRANCH  13  15
ENDBRANCH  10  13
BRANCH  12  29
HETATM   29  N9  UNL     1      36.699  55.073  17.116  1.00  0.00    -0.275 N 
ATOM     30  H9  UNL     1      35.957  55.595  17.584  1.00  0.00     0.185 HD
BRANCH  29  31
HETATM   31  C12 UNL     1      37.923  54.816  17.867  1.00  0.00     0.327 A 
HETATM   32  N10 UNL     1      38.734  53.716  17.709  1.00  0.00    -0.297 N 
HETATM   33  N11 UNL     1      37.901  53.721  18.834  1.00  0.00    -0.093 NA
ATOM     34  H10 UNL     1      39.444  53.234  17.158  1.00  0.00     0.179 HD
ENDBRANCH  29  31
ENDBRANCH  12  29
BRANCH   1  35
HETATM   35  N1  UNL     1      37.365  56.456  14.623  1.00  0.00    -0.233 N 
ATOM     36  H12 UNL     1      38.250  56.665  14.161  1.00  0.00     0.174 HD
ATOM     37  H11 UNL     1      36.993  57.312  15.033  1.00  0.00     0.174 HD
ENDBRANCH   1  35
TORSDOF 13
ENDMDL
MODEL 3
REMARK VINA RESULT: -6.794439460      1.274      3.282
REMARK  13 active torsions:
REMARK  status: ('A' for Active; 'I' for Inactive)
REMARK    1  A    between atoms: N1_1  and  C1_4 
REMARK    2  A    between atoms: C4_13  and  N5_14 
REMARK    3  A    between atoms: N5_14  and  C5_16 
REMARK    4  A    between atoms: C5_16  and  C6_17 
REMARK    5  A    between atoms: C6_17  and  N6_18 
REMARK    6  A    between atoms: N6_18  and  C7_21 
REMARK    7  A    between atoms: C7_21  and  C8_22 
REMARK    8  A    between atoms: C8_22  and  N7_23 
REMARK    9  A    between atoms: N7_23  and  C9_26 
REMARK   10  A    between atoms: C9_26  and  C10_27 
REMARK   11  A    between atoms: C10_27  and  O1_28 
REMARK   12  A    between atoms: N8_31  and  N9_32 
REMARK   13  A    between atoms: N9_32  and  C12_34 
ROOT
HETATM    1  C1  UNL     1      36.220  54.588  14.948  1.00  0.00     0.699 A 
HETATM    2  N2  UNL     1      36.391  55.127  16.180  1.00  0.00    -0.173 N 
ATOM      3  H2  UNL     1      36.656  56.092  16.379  1.00  0.00     0.186 HD
HETATM    4  C2  UNL     1      36.153  54.175  17.091  1.00  0.00     0.155 A 
HETATM    5  N3  UNL     1      36.173  54.149  18.433  1.00  0.00    -0.336 N 
ATOM      6  H3  UNL     1      36.415  55.006  18.931  1.00  0.00     0.168 HD
HETATM    7  C3  UNL     1      35.891  53.052  19.151  1.00  0.00     0.183 A 
HETATM    8  N4  UNL     1      35.578  51.948  18.477  1.00  0.00    -0.337 N 
ATOM      9  H4  UNL     1      35.361  51.108  19.014  1.00  0.00     0.168 HD
HETATM   10  C4  UNL     1      35.529  51.866  17.139  1.00  0.00     0.135 A 
HETATM   11  C11 UNL     1      35.817  52.987  16.408  1.00  0.00     0.162 A 
HETATM   12  N8  UNL     1      35.874  53.300  15.079  1.00  0.00    -0.081 N 
ENDROOT
BRANCH  10  13
HETATM   13  N5  UNL     1      35.219  50.779  16.582  1.00  0.00    -0.373 N 
ATOM     14  H5  UNL     1      35.816  50.462  15.818  1.00  0.00     0.161 HD
BRANCH  13  15
HETATM   15  C5  UNL     1      34.095  49.941  16.929  1.00  0.00     0.148 C 
BRANCH  15  16
HETATM   16  C6  UNL     1      34.481  48.489  17.065  1.00  0.00     0.251 C 
BRANCH  16  17
HETATM   17  N6  UNL     1      34.790  48.172  18.415  1.00  0.00    -0.072 N 
ATOM     18  H62 UNL     1      34.726  47.167  18.581  1.00  0.00     0.277 HD
ATOM     19  H61 UNL     1      35.783  48.305  18.606  1.00  0.00     0.277 HD
BRANCH  17  20
HETATM   20  C7  UNL     1      33.987  48.898  19.343  1.00  0.00     0.259 C 
BRANCH  20  21
HETATM   21  C8  UNL     1      34.699  49.289  20.614  1.00  0.00     0.259 C 
BRANCH  21  22
HETATM   22  N7  UNL     1      33.702  49.734  21.585  1.00  0.00    -0.072 N 
ATOM     23  H72 UNL     1      32.950  49.059  21.724  1.00  0.00     0.277 HD
ATOM     24  H71 UNL     1      34.051  49.740  22.544  1.00  0.00     0.277 HD
BRANCH  22  25
HETATM   25  C9  UNL     1      33.228  51.028  21.147  1.00  0.00     0.258 C 
BRANCH  25  26
HETATM   26  C10 UNL     1      32.661  51.793  22.322  1.00  0.00     0.191 C 
BRANCH  26  27
HETATM   27  O1  UNL     1      33.373  51.498  23.485  1.00  0.00    -0.399 OA
ATOM     28  H1  UNL     1      33.564  52.294  23.968  1.00  0.00     0.209 HD
ENDBRANCH  26  27
ENDBRANCH  25  26
ENDBRANCH  22  25
ENDBRANCH  21  22
ENDBRANCH  20  21
ENDBRANCH  17  20
ENDBRANCH  16  17
ENDBRANCH  15  16
ENDBRANCH  13  15
ENDBRANCH  10  13
BRANCH  12  29
HETATM   29  N9  UNL     1      35.595  52.410  14.067  1.00  0.00    -0.275 N 
ATOM     30  H9  UNL     1      36.303  51.710  13.843  1.00  0.00     0.185 HD
BRANCH  29  31
HETATM   31  C12 UNL     1      34.359  52.395  13.293  1.00  0.00     0.327 A 
HETATM   32  N10 UNL     1      33.178  52.989  13.675  1.00  0.00    -0.297 N 
HETATM   33  N11 UNL     1      33.250  51.598  13.813  1.00  0.00    -0.093 NA
ATOM     34  H10 UNL     1      32.632  53.844  13.782  1.00  0.00     0.179 HD
ENDBRANCH  29  31
ENDBRANCH  12  29
BRANCH   1  35
HETATM   35  N1  UNL     1      36.380  55.222  13.851  1.00  0.00    -0.233 N 
ATOM     36  H12 UNL     1      35.776  55.957  13.483  1.00  0.00     0.174 HD
ATOM     37  H11 UNL     1      37.143  55.058  13.194  1.00  0.00     0.174 HD
ENDBRANCH   1  35
TORSDOF 13
ENDMDL
MODEL 4
REMARK VINA RESULT: -6.764208630      1.868      3.103
REMARK  13 active torsions:
REMARK  status: ('A' for Active; 'I' for Inactive)
REMARK    1  A    between atoms: N1_1  and  C1_4 
REMARK    2  A    between atoms: C4_13  and  N5_14 
REMARK    3  A    between atoms: N5_14  and  C5_16 
REMARK    4  A    between atoms: C5_16  and  C6_17 
REMARK    5  A    between atoms: C6_17  and  N6_18 
REMARK    6  A    between atoms: N6_18  and  C7_21 
REMARK    7  A    between atoms: C7_21  and  C8_22 
REMARK    8  A    between atoms: C8_22  and  N7_23 
REMARK    9  A    between atoms: N7_23  and  C9_26 
REMARK   10  A    between atoms: C9_26  and  C10_27 
REMARK   11  A    between atoms: C10_27  and  O1_28 
REMARK   12  A    between atoms: N8_31  and  N9_32 
REMARK   13  A    between atoms: N9_32  and  C12_34 
ROOT
HETATM    1  C1  UNL     1      37.477  55.072  18.108  1.00  0.00     0.699 A 
HETATM    2  N2  UNL     1      37.957  55.897  17.145  1.00  0.00    -0.173 N 
ATOM      3  H2  UNL     1      38.663  56.621  17.276  1.00  0.00     0.186 HD
HETATM    4  C2  UNL     1      37.344  55.597  15.993  1.00  0.00     0.155 A 
HETATM    5  N3  UNL     1      37.429  56.082  14.744  1.00  0.00    -0.336 N 
ATOM      6  H3  UNL     1      38.080  56.845  14.563  1.00  0.00     0.168 HD
HETATM    7  C3  UNL     1      36.698  55.611  13.722  1.00  0.00     0.183 A 
HETATM    8  N4  UNL     1      35.856  54.615  13.985  1.00  0.00    -0.337 N 
ATOM      9  H4  UNL     1      35.296  54.249  13.215  1.00  0.00     0.168 HD
HETATM   10  C4  UNL     1      35.695  54.059  15.195  1.00  0.00     0.135 A 
HETATM   11  C11 UNL     1      36.442  54.540  16.236  1.00  0.00     0.162 A 
HETATM   12  N8  UNL     1      36.565  54.253  17.566  1.00  0.00    -0.081 N 
ENDROOT
BRANCH  10  13
HETATM   13  N5  UNL     1      34.876  53.115  15.354  1.00  0.00    -0.373 N 
ATOM     14  H5  UNL     1      34.104  53.274  16.002  1.00  0.00     0.161 HD
BRANCH  13  15
HETATM   15  C5  UNL     1      34.932  51.827  14.701  1.00  0.00     0.148 C 
BRANCH  15  16
HETATM   16  C6  UNL     1      35.679  50.802  15.517  1.00  0.00     0.251 C 
BRANCH  16  17
HETATM   17  N6  UNL     1      34.896  50.365  16.620  1.00  0.00    -0.072 N 
ATOM     18  H62 UNL     1      35.397  50.491  17.500  1.00  0.00     0.277 HD
ATOM     19  H61 UNL     1      34.112  50.996  16.787  1.00  0.00     0.277 HD
BRANCH  17  20
HETATM   20  C7  UNL     1      34.449  49.019  16.471  1.00  0.00     0.259 C 
BRANCH  20  21
HETATM   21  C8  UNL     1      34.084  48.336  17.766  1.00  0.00     0.259 C 
BRANCH  21  22
HETATM   22  N7  UNL     1      34.419  49.231  18.872  1.00  0.00    -0.072 N 
ATOM     23  H72 UNL     1      35.358  49.080  19.239  1.00  0.00     0.277 HD
ATOM     24  H71 UNL     1      34.547  50.200  18.578  1.00  0.00     0.277 HD
BRANCH  22  25
HETATM   25  C9  UNL     1      33.386  49.074  19.873  1.00  0.00     0.258 C 
BRANCH  25  26
HETATM   26  C10 UNL     1      32.024  49.117  19.216  1.00  0.00     0.191 C 
BRANCH  26  27
HETATM   27  O1  UNL     1      31.578  50.434  19.103  1.00  0.00    -0.399 OA
ATOM     28  H1  UNL     1      31.285  50.610  18.216  1.00  0.00     0.209 HD
ENDBRANCH  26  27
ENDBRANCH  25  26
ENDBRANCH  22  25
ENDBRANCH  21  22
ENDBRANCH  20  21
ENDBRANCH  17  20
ENDBRANCH  16  17
ENDBRANCH  15  16
ENDBRANCH  13  15
ENDBRANCH  10  13
BRANCH  12  29
HETATM   29  N9  UNL     1      35.859  53.260  18.207  1.00  0.00    -0.275 N 
ATOM     30  H9  UNL     1      36.328  52.367  18.359  1.00  0.00     0.185 HD
BRANCH  29  31
HETATM   31  C12 UNL     1      34.486  53.395  18.683  1.00  0.00     0.327 A 
HETATM   32  N10 UNL     1      33.892  52.589  19.626  1.00  0.00    -0.297 N 
HETATM   33  N11 UNL     1      33.535  52.356  18.293  1.00  0.00    -0.093 NA
ATOM     34  H10 UNL     1      33.786  52.337  20.609  1.00  0.00     0.179 HD
ENDBRANCH  29  31
ENDBRANCH  12  29
BRANCH   1  35
HETATM   35  N1  UNL     1      37.842  55.097  19.332  1.00  0.00    -0.233 N 
ATOM     36  H12 UNL     1      38.668  54.649  19.727  1.00  0.00     0.174 HD
ATOM     37  H11 UNL     1      37.332  55.571  20.077  1.00  0.00     0.174 HD
ENDBRANCH   1  35
TORSDOF 13
ENDMDL
MODEL 5
REMARK VINA RESULT: -6.748937998      2.081      3.486
REMARK  13 active torsions:
REMARK  status: ('A' for Active; 'I' for Inactive)
REMARK    1  A    between atoms: N1_1  and  C1_4 
REMARK    2  A    between atoms: C4_13  and  N5_14 
REMARK    3  A    between atoms: N5_14  and  C5_16 
REMARK    4  A    between atoms: C5_16  and  C6_17 
REMARK    5  A    between atoms: C6_17  and  N6_18 
REMARK    6  A    between atoms: N6_18  and  C7_21 
REMARK    7  A    between atoms: C7_21  and  C8_22 
REMARK    8  A    between atoms: C8_22  and  N7_23 
REMARK    9  A    between atoms: N7_23  and  C9_26 
REMARK   10  A    between atoms: C9_26  and  C10_27 
REMARK   11  A    between atoms: C10_27  and  O1_28 
REMARK   12  A    between atoms: N8_31  and  N9_32 
REMARK   13  A    between atoms: N9_32  and  C12_34 
ROOT
HETATM    1  C1  UNL     1      37.214  54.901  13.972  1.00  0.00     0.699 A 
HETATM    2  N2  UNL     1      36.135  54.697  13.178  1.00  0.00    -0.173 N 
ATOM      3  H2  UNL     1      36.135  54.697  12.157  1.00  0.00     0.186 HD
HETATM    4  C2  UNL     1      35.069  54.497  13.963  1.00  0.00     0.155 A 
HETATM    5  N3  UNL     1      33.771  54.252  13.720  1.00  0.00    -0.336 N 
ATOM      6  H3  UNL     1      33.462  54.193  12.750  1.00  0.00     0.168 HD
HETATM    7  C3  UNL     1      32.862  54.081  14.691  1.00  0.00     0.183 A 
HETATM    8  N4  UNL     1      33.291  54.163  15.947  1.00  0.00    -0.337 N 
ATOM      9  H4  UNL     1      32.608  54.034  16.694  1.00  0.00     0.168 HD
HETATM   10  C4  UNL     1      34.564  54.403  16.299  1.00  0.00     0.135 A 
HETATM   11  C11 UNL     1      35.490  54.577  15.306  1.00  0.00     0.162 A 
HETATM   12  N8  UNL     1      36.832  54.830  15.255  1.00  0.00    -0.081 N 
ENDROOT
BRANCH  10  13
HETATM   13  N5  UNL     1      34.884  54.461  17.516  1.00  0.00    -0.373 N 
ATOM     14  H5  UNL     1      35.298  55.333  17.846  1.00  0.00     0.161 HD
BRANCH  13  15
HETATM   15  C5  UNL     1      34.719  53.402  18.486  1.00  0.00     0.148 C 
BRANCH  15  16
HETATM   16  C6  UNL     1      35.767  52.327  18.347  1.00  0.00     0.251 C 
BRANCH  16  17
HETATM   17  N6  UNL     1      35.164  51.051  18.175  1.00  0.00    -0.072 N 
ATOM     18  H62 UNL     1      34.659  50.999  17.289  1.00  0.00     0.277 HD
ATOM     19  H61 UNL     1      35.867  50.333  18.004  1.00  0.00     0.277 HD
BRANCH  17  20
HETATM   20  C7  UNL     1      34.321  50.696  19.268  1.00  0.00     0.259 C 
BRANCH  20  21
HETATM   21  C8  UNL     1      35.030  49.999  20.402  1.00  0.00     0.259 C 
BRANCH  21  22
HETATM   22  N7  UNL     1      34.216  50.132  21.609  1.00  0.00    -0.072 N 
ATOM     23  H72 UNL     1      33.955  49.234  22.016  1.00  0.00     0.277 HD
ATOM     24  H71 UNL     1      34.739  50.491  22.408  1.00  0.00     0.277 HD
BRANCH  22  25
HETATM   25  C9  UNL     1      33.075  50.951  21.264  1.00  0.00     0.258 C 
BRANCH  25  26
HETATM   26  C10 UNL     1      32.691  51.820  22.441  1.00  0.00     0.191 C 
BRANCH  26  27
HETATM   27  O1  UNL     1      33.622  51.684  23.471  1.00  0.00    -0.399 OA
ATOM     28  H1  UNL     1      34.000  52.528  23.690  1.00  0.00     0.209 HD
ENDBRANCH  26  27
ENDBRANCH  25  26
ENDBRANCH  22  25
ENDBRANCH  21  22
ENDBRANCH  20  21
ENDBRANCH  17  20
ENDBRANCH  16  17
ENDBRANCH  15  16
ENDBRANCH  13  15
ENDBRANCH  10  13
BRANCH  12  29
HETATM   29  N9  UNL     1      37.632  54.964  16.366  1.00  0.00    -0.275 N 
ATOM     30  H9  UNL     1      37.943  54.112  16.833  1.00  0.00     0.185 HD
BRANCH  29  31
HETATM   31  C12 UNL     1      38.066  56.240  16.925  1.00  0.00     0.327 A 
HETATM   32  N10 UNL     1      37.855  57.471  16.348  1.00  0.00    -0.297 N 
HETATM   33  N11 UNL     1      39.146  56.943  16.236  1.00  0.00    -0.093 NA
ATOM     34  H10 UNL     1      37.209  58.234  16.145  1.00  0.00     0.179 HD
ENDBRANCH  29  31
ENDBRANCH  12  29
BRANCH   1  35
HETATM   35  N1  UNL     1      38.395  55.135  13.544  1.00  0.00    -0.233 N 
ATOM     36  H12 UNL     1      39.018  54.466  13.091  1.00  0.00     0.174 HD
ATOM     37  H11 UNL     1      38.869  56.035  13.617  1.00  0.00     0.174 HD
ENDBRANCH   1  35
TORSDOF 13
ENDMDL
