MODEL 1
REMARK VINA RESULT: -10.326676326      0.000      0.000
REMARK  10 active torsions:
REMARK  status: ('A' for Active; 'I' for Inactive)
REMARK    1  A    between atoms: C5_5  and  C6_6 
REMARK    2  A    between atoms: C6_6  and  N1_7 
REMARK    3  A    between atoms: C8_11  and  N3_12 
REMARK    4  A    between atoms: N3_12  and  C9_13 
REMARK    5  A    between atoms: N3_12  and  S1_19 
REMARK    6  A    between atoms: C9_13  and  C10_14 
REMARK    7  A    between atoms: C10_14  and  C11_15 
REMARK    8  A    between atoms: S1_19  and  C12_22 
REMARK    9  A    between atoms: C15_25  and  N4_26 
REMARK   10  A    between atoms: N4_26  and  C16_28 
ROOT
HETATM    1  N3  UNL     1     -21.427  19.314  -5.576  1.00  0.00    -0.267 N 
ENDROOT
BRANCH   1   2
HETATM    2  C8  UNL     1     -21.055  17.953  -5.679  1.00  0.00     0.102 A 
HETATM    3  C7  UNL     1     -21.865  16.958  -6.248  1.00  0.00     0.141 A 
HETATM    4  N2  UNL     1     -21.196  15.790  -6.160  1.00  0.00    -0.306 N 
HETATM    5  N1  UNL     1     -20.029  15.979  -5.581  1.00  0.00    -0.275 N 
ATOM      6  H2  UNL     1     -21.543  14.891  -6.494  1.00  0.00     0.186 HD
HETATM    7  C23 UNL     1     -19.928  17.284  -5.284  1.00  0.00     0.149 A 
HETATM    8 CL2  UNL     1     -18.539  18.019  -4.515  1.00  0.00    -0.060 Cl
BRANCH   5   9
HETATM    9  C6  UNL     1     -19.053  14.969  -5.321  1.00  0.00     0.190 C 
BRANCH   9  10
HETATM   10  C5  UNL     1     -17.928  15.012  -6.244  1.00  0.00    -0.017 A 
HETATM   11  C4  UNL     1     -18.033  15.615  -7.462  1.00  0.00     0.011 A 
HETATM   12  C3  UNL     1     -16.973  15.660  -8.341  1.00  0.00     0.007 A 
HETATM   13  C2  UNL     1     -15.762  15.089  -8.002  1.00  0.00    -0.060 A 
HETATM   14  C1  UNL     1     -14.641  15.155  -8.971  1.00  0.00     0.048 C 
HETATM   15  C25 UNL     1     -15.640  14.483  -6.787  1.00  0.00     0.031 A 
HETATM   16  C24 UNL     1     -16.723  14.445  -5.907  1.00  0.00     0.042 A 
HETATM   17 CL3  UNL     1     -16.461  13.643  -4.372  1.00  0.00    -0.084 Cl
ENDBRANCH   9  10
ENDBRANCH   5   9
ENDBRANCH   1   2
BRANCH   1  18
HETATM   18  C9  UNL     1     -21.899  19.837  -4.327  1.00  0.00     0.151 C 
BRANCH  18  19
HETATM   19  C10 UNL     1     -21.736  18.957  -3.139  1.00  0.00     0.138 C 
BRANCH  19  20
HETATM   20  C11 UNL     1     -21.269  19.856  -1.991  1.00  0.00     0.389 C 
HETATM   21  F1  UNL     1     -20.749  19.067  -0.964  1.00  0.00    -0.171 F 
HETATM   22  F2  UNL     1     -20.251  20.677  -2.413  1.00  0.00    -0.171 F 
HETATM   23  F3  UNL     1     -22.370  20.568  -1.554  1.00  0.00    -0.171 F 
ENDBRANCH  19  20
ENDBRANCH  18  19
ENDBRANCH   1  18
BRANCH   1  24
HETATM   24  S1  UNL     1     -21.355  20.350  -6.947  1.00  0.00     0.265 S 
HETATM   25  O1  UNL     1     -22.509  20.054  -7.898  1.00  0.00    -0.200 OA
HETATM   26  O2  UNL     1     -21.602  21.782  -6.488  1.00  0.00    -0.200 OA
BRANCH  24  27
HETATM   27  C12 UNL     1     -19.831  20.278  -7.791  1.00  0.00     0.080 A 
HETATM   28  C13 UNL     1     -19.510  21.084  -8.869  1.00  0.00     0.027 A 
HETATM   29  C14 UNL     1     -18.301  21.007  -9.517  1.00  0.00     0.031 A 
HETATM   30  C15 UNL     1     -17.337  20.109  -9.116  1.00  0.00     0.033 A 
HETATM   31  C21 UNL     1     -17.633  19.296  -8.045  1.00  0.00     0.031 A 
HETATM   32  C22 UNL     1     -18.851  19.387  -7.407  1.00  0.00     0.027 A 
BRANCH  30  33
HETATM   33  N4  UNL     1     -16.076  20.002  -9.762  1.00  0.00    -0.343 N 
ATOM     34  H4  UNL     1     -15.684  19.069  -9.891  1.00  0.00     0.167 HD
BRANCH  33  35
HETATM   35  C16 UNL     1     -15.401  20.993 -10.191  1.00  0.00     0.105 A 
HETATM   36  C17 UNL     1     -14.955  21.911  -9.248  1.00  0.00     0.050 A 
HETATM   37  C18 UNL     1     -14.217  23.025  -9.589  1.00  0.00     0.029 A 
HETATM   38  C19 UNL     1     -13.906  23.244 -10.896  1.00  0.00     0.049 A 
HETATM   39 CL1  UNL     1     -12.970  24.651 -11.342  1.00  0.00    -0.083 Cl
HETATM   40  C20 UNL     1     -14.355  22.319 -11.838  1.00  0.00     0.113 A 
HETATM   41  N5  UNL     1     -15.082  21.232 -11.463  1.00  0.00    -0.351 N 
ATOM     42  H5  UNL     1     -15.393  20.577 -12.180  1.00  0.00     0.166 HD
ENDBRANCH  33  35
ENDBRANCH  30  33
ENDBRANCH  24  27
ENDBRANCH   1  24
TORSDOF 10
ENDMDL
MODEL 2
REMARK VINA RESULT: -10.249310396      0.747      1.152
REMARK  10 active torsions:
REMARK  status: ('A' for Active; 'I' for Inactive)
REMARK    1  A    between atoms: C5_5  and  C6_6 
REMARK    2  A    between atoms: C6_6  and  N1_7 
REMARK    3  A    between atoms: C8_11  and  N3_12 
REMARK    4  A    between atoms: N3_12  and  C9_13 
REMARK    5  A    between atoms: N3_12  and  S1_19 
REMARK    6  A    between atoms: C9_13  and  C10_14 
REMARK    7  A    between atoms: C10_14  and  C11_15 
REMARK    8  A    between atoms: S1_19  and  C12_22 
REMARK    9  A    between atoms: C15_25  and  N4_26 
REMARK   10  A    between atoms: N4_26  and  C16_28 
ROOT
HETATM    1  N3  UNL     1     -21.408  19.278  -5.447  1.00  0.00    -0.267 N 
ENDROOT
BRANCH   1   2
HETATM    2  C8  UNL     1     -21.050  17.914  -5.566  1.00  0.00     0.102 A 
HETATM    3  C7  UNL     1     -21.875  16.933  -6.135  1.00  0.00     0.141 A 
HETATM    4  N2  UNL     1     -21.217  15.758  -6.065  1.00  0.00    -0.306 N 
HETATM    5  N1  UNL     1     -20.042  15.930  -5.496  1.00  0.00    -0.275 N 
ATOM      6  H2  UNL     1     -21.577  14.865  -6.404  1.00  0.00     0.186 HD
HETATM    7  C23 UNL     1     -19.926  17.231  -5.188  1.00  0.00     0.149 A 
HETATM    8 CL2  UNL     1     -18.522  17.945  -4.426  1.00  0.00    -0.060 Cl
BRANCH   5   9
HETATM    9  C6  UNL     1     -19.075  14.908  -5.255  1.00  0.00     0.190 C 
BRANCH   9  10
HETATM   10  C5  UNL     1     -17.950  14.959  -6.178  1.00  0.00    -0.017 A 
HETATM   11  C4  UNL     1     -18.060  15.559  -7.398  1.00  0.00     0.011 A 
HETATM   12  C3  UNL     1     -17.001  15.611  -8.277  1.00  0.00     0.007 A 
HETATM   13  C2  UNL     1     -15.785  15.050  -7.938  1.00  0.00    -0.060 A 
HETATM   14  C1  UNL     1     -14.665  15.123  -8.908  1.00  0.00     0.048 C 
HETATM   15  C25 UNL     1     -15.659  14.446  -6.722  1.00  0.00     0.031 A 
HETATM   16  C24 UNL     1     -16.741  14.400  -5.842  1.00  0.00     0.042 A 
HETATM   17 CL3  UNL     1     -16.471  13.603  -4.306  1.00  0.00    -0.084 Cl
ENDBRANCH   9  10
ENDBRANCH   5   9
ENDBRANCH   1   2
BRANCH   1  18
HETATM   18  C9  UNL     1     -21.774  19.816  -4.168  1.00  0.00     0.151 C 
BRANCH  18  19
HETATM   19  C10 UNL     1     -23.003  19.255  -3.545  1.00  0.00     0.138 C 
BRANCH  19  20
HETATM   20  C11 UNL     1     -23.550  20.337  -2.610  1.00  0.00     0.389 C 
HETATM   21  F1  UNL     1     -24.051  21.397  -3.368  1.00  0.00    -0.171 F 
HETATM   22  F2  UNL     1     -24.603  19.844  -1.876  1.00  0.00    -0.171 F 
HETATM   23  F3  UNL     1     -22.504  20.756  -1.811  1.00  0.00    -0.171 F 
ENDBRANCH  19  20
ENDBRANCH  18  19
ENDBRANCH   1  18
BRANCH   1  24
HETATM   24  S1  UNL     1     -21.444  20.300  -6.830  1.00  0.00     0.265 S 
HETATM   25  O1  UNL     1     -22.608  19.923  -7.738  1.00  0.00    -0.200 OA
HETATM   26  O2  UNL     1     -21.763  21.720  -6.376  1.00  0.00    -0.200 OA
BRANCH  24  27
HETATM   27  C12 UNL     1     -19.947  20.311  -7.722  1.00  0.00     0.080 A 
HETATM   28  C13 UNL     1     -19.693  21.158  -8.788  1.00  0.00     0.027 A 
HETATM   29  C14 UNL     1     -18.504  21.146  -9.476  1.00  0.00     0.031 A 
HETATM   30  C15 UNL     1     -17.493  20.277  -9.131  1.00  0.00     0.033 A 
HETATM   31  C21 UNL     1     -17.722  19.425  -8.074  1.00  0.00     0.031 A 
HETATM   32  C22 UNL     1     -18.920  19.450  -7.395  1.00  0.00     0.027 A 
BRANCH  30  33
HETATM   33  N4  UNL     1     -16.250  20.237  -9.819  1.00  0.00    -0.343 N 
ATOM     34  H4  UNL     1     -15.848  19.322 -10.024  1.00  0.00     0.167 HD
BRANCH  33  35
HETATM   35  C16 UNL     1     -15.605  21.267 -10.197  1.00  0.00     0.105 A 
HETATM   36  C17 UNL     1     -15.003  22.035  -9.209  1.00  0.00     0.050 A 
HETATM   37  C18 UNL     1     -14.278  23.174  -9.493  1.00  0.00     0.029 A 
HETATM   38  C19 UNL     1     -14.139  23.569 -10.788  1.00  0.00     0.049 A 
HETATM   39 CL1  UNL     1     -13.222  25.009 -11.162  1.00  0.00    -0.083 Cl
HETATM   40  C20 UNL     1     -14.745  22.795 -11.777  1.00  0.00     0.113 A 
HETATM   41  N5  UNL     1     -15.452  21.678 -11.457  1.00  0.00    -0.351 N 
ATOM     42  H5  UNL     1     -15.881  21.135 -12.206  1.00  0.00     0.166 HD
ENDBRANCH  33  35
ENDBRANCH  30  33
ENDBRANCH  24  27
ENDBRANCH   1  24
TORSDOF 10
ENDMDL
MODEL 3
REMARK VINA RESULT: -10.128066203      1.201      1.549
REMARK  10 active torsions:
REMARK  status: ('A' for Active; 'I' for Inactive)
REMARK    1  A    between atoms: C5_5  and  C6_6 
REMARK    2  A    between atoms: C6_6  and  N1_7 
REMARK    3  A    between atoms: C8_11  and  N3_12 
REMARK    4  A    between atoms: N3_12  and  C9_13 
REMARK    5  A    between atoms: N3_12  and  S1_19 
REMARK    6  A    between atoms: C9_13  and  C10_14 
REMARK    7  A    between atoms: C10_14  and  C11_15 
REMARK    8  A    between atoms: S1_19  and  C12_22 
REMARK    9  A    between atoms: C15_25  and  N4_26 
REMARK   10  A    between atoms: N4_26  and  C16_28 
ROOT
HETATM    1  N3  UNL     1     -21.148  19.322  -4.840  1.00  0.00    -0.267 N 
ENDROOT
BRANCH   1   2
HETATM    2  C8  UNL     1     -20.349  18.165  -4.687  1.00  0.00     0.102 A 
HETATM    3  C7  UNL     1     -19.407  17.992  -3.661  1.00  0.00     0.141 A 
HETATM    4  N2  UNL     1     -18.831  16.786  -3.838  1.00  0.00    -0.306 N 
HETATM    5  N1  UNL     1     -19.342  16.191  -4.896  1.00  0.00    -0.275 N 
ATOM      6  H2  UNL     1     -18.104  16.392  -3.240  1.00  0.00     0.186 HD
HETATM    7  C23 UNL     1     -20.263  17.013  -5.420  1.00  0.00     0.149 A 
HETATM    8 CL2  UNL     1     -21.226  16.646  -6.834  1.00  0.00    -0.060 Cl
BRANCH   5   9
HETATM    9  C6  UNL     1     -18.973  14.901  -5.386  1.00  0.00     0.190 C 
BRANCH   9  10
HETATM   10  C5  UNL     1     -17.850  14.943  -6.311  1.00  0.00    -0.017 A 
HETATM   11  C4  UNL     1     -17.966  15.517  -7.543  1.00  0.00     0.011 A 
HETATM   12  C3  UNL     1     -16.909  15.561  -8.424  1.00  0.00     0.007 A 
HETATM   13  C2  UNL     1     -15.687  15.017  -8.074  1.00  0.00    -0.060 A 
HETATM   14  C1  UNL     1     -14.569  15.080  -9.047  1.00  0.00     0.048 C 
HETATM   15  C25 UNL     1     -15.554  14.440  -6.846  1.00  0.00     0.031 A 
HETATM   16  C24 UNL     1     -16.635  14.402  -5.964  1.00  0.00     0.042 A 
HETATM   17 CL3  UNL     1     -16.358  13.639  -4.413  1.00  0.00    -0.084 Cl
ENDBRANCH   9  10
ENDBRANCH   5   9
ENDBRANCH   1   2
BRANCH   1  18
HETATM   18  C9  UNL     1     -21.838  19.875  -3.710  1.00  0.00     0.151 C 
BRANCH  18  19
HETATM   19  C10 UNL     1     -23.294  19.583  -3.620  1.00  0.00     0.138 C 
BRANCH  19  20
HETATM   20  C11 UNL     1     -23.882  20.603  -2.641  1.00  0.00     0.389 C 
HETATM   21  F1  UNL     1     -24.852  19.984  -1.851  1.00  0.00    -0.171 F 
HETATM   22  F2  UNL     1     -22.907  21.059  -1.785  1.00  0.00    -0.171 F 
HETATM   23  F3  UNL     1     -24.437  21.621  -3.393  1.00  0.00    -0.171 F 
ENDBRANCH  19  20
ENDBRANCH  18  19
ENDBRANCH   1  18
BRANCH   1  24
HETATM   24  S1  UNL     1     -21.335  20.063  -6.382  1.00  0.00     0.265 S 
HETATM   25  O1  UNL     1     -22.506  19.439  -7.132  1.00  0.00    -0.200 OA
HETATM   26  O2  UNL     1     -21.747  21.516  -6.177  1.00  0.00    -0.200 OA
BRANCH  24  27
HETATM   27  C12 UNL     1     -19.887  20.014  -7.353  1.00  0.00     0.080 A 
HETATM   28  C13 UNL     1     -19.718  20.743  -8.518  1.00  0.00     0.027 A 
HETATM   29  C14 UNL     1     -18.567  20.687  -9.265  1.00  0.00     0.031 A 
HETATM   30  C15 UNL     1     -17.512  19.889  -8.884  1.00  0.00     0.033 A 
HETATM   31  C21 UNL     1     -17.657  19.154  -7.729  1.00  0.00     0.031 A 
HETATM   32  C22 UNL     1     -18.818  19.223  -6.991  1.00  0.00     0.027 A 
BRANCH  30  33
HETATM   33  N4  UNL     1     -16.307  19.805  -9.633  1.00  0.00    -0.343 N 
ATOM     34  H4  UNL     1     -15.949  18.877  -9.857  1.00  0.00     0.167 HD
BRANCH  33  35
HETATM   35  C16 UNL     1     -15.643  20.813 -10.041  1.00  0.00     0.105 A 
HETATM   36  C17 UNL     1     -15.172  21.694  -9.077  1.00  0.00     0.050 A 
HETATM   37  C18 UNL     1     -14.443  22.821  -9.395  1.00  0.00     0.029 A 
HETATM   38  C19 UNL     1     -14.166  23.089 -10.700  1.00  0.00     0.049 A 
HETATM   39 CL1  UNL     1     -13.243  24.513 -11.117  1.00  0.00    -0.083 Cl
HETATM   40  C20 UNL     1     -14.641  22.201 -11.664  1.00  0.00     0.113 A 
HETATM   41  N5  UNL     1     -15.358  21.100 -11.312  1.00  0.00    -0.351 N 
ATOM     42  H5  UNL     1     -15.688  20.472 -12.044  1.00  0.00     0.166 HD
ENDBRANCH  33  35
ENDBRANCH  30  33
ENDBRANCH  24  27
ENDBRANCH   1  24
TORSDOF 10
ENDMDL
MODEL 4
REMARK VINA RESULT: -10.062150962      3.159      5.740
REMARK  10 active torsions:
REMARK  status: ('A' for Active; 'I' for Inactive)
REMARK    1  A    between atoms: C5_5  and  C6_6 
REMARK    2  A    between atoms: C6_6  and  N1_7 
REMARK    3  A    between atoms: C8_11  and  N3_12 
REMARK    4  A    between atoms: N3_12  and  C9_13 
REMARK    5  A    between atoms: N3_12  and  S1_19 
REMARK    6  A    between atoms: C9_13  and  C10_14 
REMARK    7  A    between atoms: C10_14  and  C11_15 
REMARK    8  A    between atoms: S1_19  and  C12_22 
REMARK    9  A    between atoms: C15_25  and  N4_26 
REMARK   10  A    between atoms: N4_26  and  C16_28 
ROOT
HETATM    1  N3  UNL     1     -18.724  17.326  -5.891  1.00  0.00    -0.267 N 
ENDROOT
BRANCH   1   2
HETATM    2  C8  UNL     1     -19.965  17.686  -6.466  1.00  0.00     0.102 A 
HETATM    3  C7  UNL     1     -21.151  16.958  -6.291  1.00  0.00     0.141 A 
HETATM    4  N2  UNL     1     -22.119  17.584  -6.991  1.00  0.00    -0.306 N 
HETATM    5  N1  UNL     1     -21.628  18.650  -7.589  1.00  0.00    -0.275 N 
ATOM      6  H2  UNL     1     -23.090  17.278  -7.049  1.00  0.00     0.186 HD
HETATM    7  C23 UNL     1     -20.325  18.725  -7.281  1.00  0.00     0.149 A 
HETATM    8 CL2  UNL     1     -19.248  19.989  -7.834  1.00  0.00    -0.060 Cl
BRANCH   5   9
HETATM    9  C6  UNL     1     -22.361  19.554  -8.416  1.00  0.00     0.190 C 
BRANCH   9  10
HETATM   10  C5  UNL     1     -23.048  20.590  -7.657  1.00  0.00    -0.017 A 
HETATM   11  C4  UNL     1     -24.140  20.303  -6.893  1.00  0.00     0.011 A 
HETATM   12  C3  UNL     1     -24.796  21.276  -6.172  1.00  0.00     0.007 A 
HETATM   13  C2  UNL     1     -24.355  22.586  -6.207  1.00  0.00    -0.060 A 
HETATM   14  C1  UNL     1     -25.083  23.610  -5.420  1.00  0.00     0.048 C 
HETATM   15  C25 UNL     1     -23.264  22.889  -6.966  1.00  0.00     0.031 A 
HETATM   16  C24 UNL     1     -22.610  21.892  -7.692  1.00  0.00     0.042 A 
HETATM   17 CL3  UNL     1     -21.219  22.388  -8.633  1.00  0.00    -0.084 Cl
ENDBRANCH   9  10
ENDBRANCH   5   9
ENDBRANCH   1   2
BRANCH   1  18
HETATM   18  C9  UNL     1     -18.415  17.715  -4.545  1.00  0.00     0.151 C 
BRANCH  18  19
HETATM   19  C10 UNL     1     -18.979  16.861  -3.466  1.00  0.00     0.138 C 
BRANCH  19  20
HETATM   20  C11 UNL     1     -19.969  17.735  -2.691  1.00  0.00     0.389 C 
HETATM   21  F1  UNL     1     -19.357  18.217  -1.534  1.00  0.00    -0.171 F 
HETATM   22  F2  UNL     1     -20.321  18.833  -3.439  1.00  0.00    -0.171 F 
HETATM   23  F3  UNL     1     -21.058  16.943  -2.378  1.00  0.00    -0.171 F 
ENDBRANCH  19  20
ENDBRANCH  18  19
ENDBRANCH   1  18
BRANCH   1  24
HETATM   24  S1  UNL     1     -17.555  16.451  -6.800  1.00  0.00     0.265 S 
HETATM   25  O1  UNL     1     -16.734  15.551  -5.884  1.00  0.00    -0.200 OA
HETATM   26  O2  UNL     1     -18.283  15.484  -7.727  1.00  0.00    -0.200 OA
BRANCH  24  27
HETATM   27  C12 UNL     1     -16.511  17.474  -7.752  1.00  0.00     0.080 A 
HETATM   28  C13 UNL     1     -16.108  18.739  -7.358  1.00  0.00     0.027 A 
HETATM   29  C14 UNL     1     -15.285  19.526  -8.126  1.00  0.00     0.031 A 
HETATM   30  C15 UNL     1     -14.815  19.085  -9.344  1.00  0.00     0.033 A 
HETATM   31  C21 UNL     1     -15.203  17.829  -9.756  1.00  0.00     0.031 A 
HETATM   32  C22 UNL     1     -16.028  17.053  -8.973  1.00  0.00     0.027 A 
BRANCH  30  33
HETATM   33  N4  UNL     1     -13.962  19.871 -10.165  1.00  0.00    -0.343 N 
ATOM     34  H4  UNL     1     -13.059  19.477 -10.428  1.00  0.00     0.167 HD
BRANCH  33  35
HETATM   35  C16 UNL     1     -14.251  21.035 -10.593  1.00  0.00     0.105 A 
HETATM   36  C17 UNL     1     -13.195  21.916 -10.791  1.00  0.00     0.050 A 
HETATM   37  C18 UNL     1     -13.380  23.203 -11.251  1.00  0.00     0.029 A 
HETATM   38  C19 UNL     1     -14.640  23.638 -11.526  1.00  0.00     0.049 A 
HETATM   39 CL1  UNL     1     -14.888  25.267 -12.110  1.00  0.00    -0.083 Cl
HETATM   40  C20 UNL     1     -15.696  22.750 -11.325  1.00  0.00     0.113 A 
HETATM   41  N5  UNL     1     -15.474  21.487 -10.870  1.00  0.00    -0.351 N 
ATOM     42  H5  UNL     1     -16.271  20.865 -10.736  1.00  0.00     0.166 HD
ENDBRANCH  33  35
ENDBRANCH  30  33
ENDBRANCH  24  27
ENDBRANCH   1  24
TORSDOF 10
ENDMDL
MODEL 5
REMARK VINA RESULT: -9.849882735      2.887      5.218
REMARK  10 active torsions:
REMARK  status: ('A' for Active; 'I' for Inactive)
REMARK    1  A    between atoms: C5_5  and  C6_6 
REMARK    2  A    between atoms: C6_6  and  N1_7 
REMARK    3  A    between atoms: C8_11  and  N3_12 
REMARK    4  A    between atoms: N3_12  and  C9_13 
REMARK    5  A    between atoms: N3_12  and  S1_19 
REMARK    6  A    between atoms: C9_13  and  C10_14 
REMARK    7  A    between atoms: C10_14  and  C11_15 
REMARK    8  A    between atoms: S1_19  and  C12_22 
REMARK    9  A    between atoms: C15_25  and  N4_26 
REMARK   10  A    between atoms: N4_26  and  C16_28 
ROOT
HETATM    1  N3  UNL     1     -20.049  16.990  -5.031  1.00  0.00    -0.267 N 
ENDROOT
BRANCH   1   2
HETATM    2  C8  UNL     1     -21.013  17.537  -5.910  1.00  0.00     0.102 A 
HETATM    3  C7  UNL     1     -21.609  16.825  -6.962  1.00  0.00     0.141 A 
HETATM    4  N2  UNL     1     -22.459  17.663  -7.589  1.00  0.00    -0.306 N 
HETATM    5  N1  UNL     1     -22.441  18.845  -7.008  1.00  0.00    -0.275 N 
ATOM      6  H2  UNL     1     -23.033  17.418  -8.396  1.00  0.00     0.186 HD
HETATM    7  C23 UNL     1     -21.571  18.785  -5.990  1.00  0.00     0.149 A 
HETATM    8 CL2  UNL     1     -21.217  20.115  -4.910  1.00  0.00    -0.060 Cl
BRANCH   5   9
HETATM    9  C6  UNL     1     -23.214  19.979  -7.402  1.00  0.00     0.190 C 
BRANCH   9  10
HETATM   10  C5  UNL     1     -22.396  21.120  -7.791  1.00  0.00    -0.017 A 
HETATM   11  C4  UNL     1     -21.230  20.954  -8.478  1.00  0.00     0.011 A 
HETATM   12  C3  UNL     1     -20.450  22.027  -8.849  1.00  0.00     0.007 A 
HETATM   13  C2  UNL     1     -20.838  23.314  -8.531  1.00  0.00    -0.060 A 
HETATM   14  C1  UNL     1     -19.976  24.447  -8.946  1.00  0.00     0.048 C 
HETATM   15  C25 UNL     1     -22.002  23.496  -7.845  1.00  0.00     0.031 A 
HETATM   16  C24 UNL     1     -22.781  22.400  -7.474  1.00  0.00     0.042 A 
HETATM   17 CL3  UNL     1     -24.257  22.744  -6.597  1.00  0.00    -0.084 Cl
ENDBRANCH   9  10
ENDBRANCH   5   9
ENDBRANCH   1   2
BRANCH   1  18
HETATM   18  C9  UNL     1     -20.305  16.949  -3.619  1.00  0.00     0.151 C 
BRANCH  18  19
HETATM   19  C10 UNL     1     -19.555  17.926  -2.785  1.00  0.00     0.138 C 
BRANCH  19  20
HETATM   20  C11 UNL     1     -20.588  18.622  -1.894  1.00  0.00     0.389 C 
HETATM   21  F1  UNL     1     -20.492  18.122  -0.594  1.00  0.00    -0.171 F 
HETATM   22  F2  UNL     1     -20.323  19.969  -1.819  1.00  0.00    -0.171 F 
HETATM   23  F3  UNL     1     -21.834  18.362  -2.430  1.00  0.00    -0.171 F 
ENDBRANCH  19  20
ENDBRANCH  18  19
ENDBRANCH   1  18
BRANCH   1  24
HETATM   24  S1  UNL     1     -18.548  16.400  -5.629  1.00  0.00     0.265 S 
HETATM   25  O1  UNL     1     -17.578  16.155  -4.480  1.00  0.00    -0.200 OA
HETATM   26  O2  UNL     1     -18.774  15.020  -6.234  1.00  0.00    -0.200 OA
BRANCH  24  27
HETATM   27  C12 UNL     1     -17.827  17.438  -6.831  1.00  0.00     0.080 A 
HETATM   28  C13 UNL     1     -18.105  18.789  -6.946  1.00  0.00     0.027 A 
HETATM   29  C14 UNL     1     -17.523  19.585  -7.902  1.00  0.00     0.031 A 
HETATM   30  C15 UNL     1     -16.622  19.067  -8.805  1.00  0.00     0.033 A 
HETATM   31  C21 UNL     1     -16.329  17.724  -8.709  1.00  0.00     0.031 A 
HETATM   32  C22 UNL     1     -16.921  16.941  -7.744  1.00  0.00     0.027 A 
BRANCH  30  33
HETATM   33  N4  UNL     1     -16.000  19.860  -9.807  1.00  0.00    -0.343 N 
ATOM     34  H4  UNL     1     -15.597  19.380 -10.612  1.00  0.00     0.167 HD
BRANCH  33  35
HETATM   35  C16 UNL     1     -15.913  21.130  -9.767  1.00  0.00     0.105 A 
HETATM   36  C17 UNL     1     -14.865  21.669  -9.031  1.00  0.00     0.050 A 
HETATM   37  C18 UNL     1     -14.666  23.028  -8.912  1.00  0.00     0.029 A 
HETATM   38  C19 UNL     1     -15.520  23.885  -9.536  1.00  0.00     0.049 A 
HETATM   39 CL1  UNL     1     -15.278  25.610  -9.393  1.00  0.00    -0.083 Cl
HETATM   40  C20 UNL     1     -16.570  23.338 -10.273  1.00  0.00     0.113 A 
HETATM   41  N5  UNL     1     -16.734  21.991 -10.367  1.00  0.00    -0.351 N 
ATOM     42  H5  UNL     1     -17.513  21.628 -10.916  1.00  0.00     0.166 HD
ENDBRANCH  33  35
ENDBRANCH  30  33
ENDBRANCH  24  27
ENDBRANCH   1  24
TORSDOF 10
ENDMDL
