MODEL 1
REMARK VINA RESULT: -11.022659007      0.000      0.000
REMARK  11 active torsions:
REMARK  status: ('A' for Active; 'I' for Inactive)
REMARK    1  A    between atoms: O1_2  and  C2_3 
REMARK    2  A    between atoms: C5_6  and  C6_7 
REMARK    3  A    between atoms: C6_7  and  C7_8 
REMARK    4  A    between atoms: C7_8  and  O2_9 
REMARK    5  A    between atoms: O2_9  and  C8_10 
REMARK    6  A    between atoms: C11_13  and  N1_14 
REMARK    7  A    between atoms: N1_14  and  C12_16 
REMARK    8  A    between atoms: C13_19  and  C14_20 
REMARK    9  A    between atoms: C24_37  and  O3_38 
REMARK   10  A    between atoms: O3_38  and  C25_39 
REMARK   11  A    between atoms: C26_40  and  C27_41 
ROOT
HETATM    1  C8  UNL     1     -17.577  18.598  -6.321  1.00  0.00     0.068 A 
HETATM    2  C9  UNL     1     -16.201  18.552  -6.676  1.00  0.00     0.039 A 
HETATM    3  C10 UNL     1     -15.792  19.053  -7.843  1.00  0.00     0.033 A 
HETATM    4  C11 UNL     1     -16.633  19.634  -8.779  1.00  0.00     0.049 A 
HETATM    5  C22 UNL     1     -17.976  19.686  -8.467  1.00  0.00     0.033 A 
HETATM    6  C23 UNL     1     -18.425  19.181  -7.274  1.00  0.00     0.039 A 
ENDROOT
BRANCH   1   7
HETATM    7  O2  UNL     1     -17.950  18.117  -5.156  1.00  0.00    -0.351 OA
BRANCH   7   8
HETATM    8  C7  UNL     1     -18.296  17.642  -3.997  1.00  0.00     0.180 C 
BRANCH   8   9
HETATM    9  C6  UNL     1     -19.684  18.087  -3.569  1.00  0.00     0.068 C 
BRANCH   9  10
HETATM   10  C5  UNL     1     -20.695  18.259  -4.601  1.00  0.00    -0.021 A 
HETATM   11  C4  UNL     1     -21.104  19.589  -4.889  1.00  0.00     0.013 A 
HETATM   12  C3  UNL     1     -22.054  19.813  -5.899  1.00  0.00     0.037 A 
HETATM   13  C2  UNL     1     -22.581  18.763  -6.589  1.00  0.00     0.070 A 
HETATM   14  C33 UNL     1     -22.150  17.472  -6.269  1.00  0.00     0.075 A 
HETATM   15  C24 UNL     1     -21.216  17.231  -5.291  1.00  0.00     0.096 A 
BRANCH  13  16
HETATM   16  O1  UNL     1     -23.520  19.012  -7.582  1.00  0.00    -0.356 OA
HETATM   17  C1  UNL     1     -23.991  17.915  -8.356  1.00  0.00     0.210 C 
ENDBRANCH  13  16
BRANCH  15  18
HETATM   18  O3  UNL     1     -20.803  15.862  -5.017  1.00  0.00    -0.260 OA
BRANCH  18  19
HETATM   19  C25 UNL     1     -19.850  15.473  -6.023  1.00  0.00     0.065 C 
HETATM   20  C26 UNL     1     -18.860  15.216  -6.673  1.00  0.00    -0.036 C 
BRANCH  20  21
HETATM   21  C27 UNL     1     -17.585  15.073  -7.261  1.00  0.00     0.022 A 
HETATM   22  C28 UNL     1     -16.536  14.589  -6.440  1.00  0.00     0.021 A 
HETATM   23  C29 UNL     1     -15.223  14.584  -6.829  1.00  0.00     0.004 A 
HETATM   24  C30 UNL     1     -14.856  15.053  -8.055  1.00  0.00     0.042 A 
HETATM   25  C31 UNL     1     -15.851  15.529  -8.872  1.00  0.00     0.117 A 
HETATM   26  F6  UNL     1     -15.448  16.018 -10.092  1.00  0.00    -0.206 F 
HETATM   27  C32 UNL     1     -17.202  15.538  -8.484  1.00  0.00     0.062 A 
ENDBRANCH  20  21
ENDBRANCH  18  19
ENDBRANCH  15  18
ENDBRANCH   9  10
ENDBRANCH   8   9
ENDBRANCH   7   8
ENDBRANCH   1   7
BRANCH   4  28
HETATM   28  N1  UNL     1     -16.114  20.106  -9.981  1.00  0.00    -0.192 N 
ATOM     29  H1  UNL     1     -16.007  19.445 -10.750  1.00  0.00     0.184 HD
BRANCH  28  30
HETATM   30  C12 UNL     1     -15.763  21.327 -10.178  1.00  0.00     0.683 A 
HETATM   31  N2  UNL     1     -15.386  21.660 -11.403  1.00  0.00    -0.191 N 
HETATM   32  C13 UNL     1     -14.993  22.893 -11.719  1.00  0.00     0.067 A 
ATOM     33  H2  UNL     1     -15.395  20.946 -12.131  1.00  0.00     0.184 HD
HETATM   34  C20 UNL     1     -14.969  23.867 -10.774  1.00  0.00     0.049 A 
HETATM   35  C21 UNL     1     -15.369  23.538  -9.492  1.00  0.00     0.108 A 
HETATM   36  N3  UNL     1     -15.754  22.277  -9.204  1.00  0.00    -0.202 N 
ATOM     37  H3  UNL     1     -16.040  22.036  -8.256  1.00  0.00     0.183 HD
BRANCH  32  38
HETATM   38  C14 UNL     1     -14.380  23.163 -13.019  1.00  0.00     0.075 A 
HETATM   39  C15 UNL     1     -13.076  23.377 -13.263  1.00  0.00     0.173 A 
HETATM   40  F1  UNL     1     -12.124  23.303 -12.321  1.00  0.00    -0.202 F 
HETATM   41  C16 UNL     1     -12.620  23.687 -14.559  1.00  0.00     0.197 A 
HETATM   42  F2  UNL     1     -11.324  23.900 -14.782  1.00  0.00    -0.199 F 
HETATM   43  C17 UNL     1     -13.526  23.757 -15.561  1.00  0.00     0.199 A 
HETATM   44  F3  UNL     1     -13.138  24.068 -16.838  1.00  0.00    -0.199 F 
HETATM   45  C18 UNL     1     -14.871  23.545 -15.341  1.00  0.00     0.197 A 
HETATM   46  F4  UNL     1     -15.724  23.630 -16.372  1.00  0.00    -0.199 F 
HETATM   47  C19 UNL     1     -15.291  23.250 -14.084  1.00  0.00     0.173 A 
HETATM   48  F5  UNL     1     -16.609  23.012 -13.791  1.00  0.00    -0.202 F 
ENDBRANCH  32  38
ENDBRANCH  28  30
ENDBRANCH   4  28
TORSDOF 11
ENDMDL
MODEL 2
REMARK VINA RESULT: -10.962184671      0.184      1.576
REMARK  11 active torsions:
REMARK  status: ('A' for Active; 'I' for Inactive)
REMARK    1  A    between atoms: O1_2  and  C2_3 
REMARK    2  A    between atoms: C5_6  and  C6_7 
REMARK    3  A    between atoms: C6_7  and  C7_8 
REMARK    4  A    between atoms: C7_8  and  O2_9 
REMARK    5  A    between atoms: O2_9  and  C8_10 
REMARK    6  A    between atoms: C11_13  and  N1_14 
REMARK    7  A    between atoms: N1_14  and  C12_16 
REMARK    8  A    between atoms: C13_19  and  C14_20 
REMARK    9  A    between atoms: C24_37  and  O3_38 
REMARK   10  A    between atoms: O3_38  and  C25_39 
REMARK   11  A    between atoms: C26_40  and  C27_41 
ROOT
HETATM    1  C8  UNL     1     -17.581  18.556  -6.260  1.00  0.00     0.068 A 
HETATM    2  C9  UNL     1     -16.209  18.501  -6.629  1.00  0.00     0.039 A 
HETATM    3  C10 UNL     1     -15.807  19.010  -7.795  1.00  0.00     0.033 A 
HETATM    4  C11 UNL     1     -16.651  19.607  -8.717  1.00  0.00     0.049 A 
HETATM    5  C22 UNL     1     -17.992  19.667  -8.392  1.00  0.00     0.033 A 
HETATM    6  C23 UNL     1     -18.432  19.155  -7.200  1.00  0.00     0.039 A 
ENDROOT
BRANCH   1   7
HETATM    7  O2  UNL     1     -17.946  18.067  -5.096  1.00  0.00    -0.351 OA
BRANCH   7   8
HETATM    8  C7  UNL     1     -18.286  17.575  -3.942  1.00  0.00     0.180 C 
BRANCH   8   9
HETATM    9  C6  UNL     1     -19.677  18.003  -3.506  1.00  0.00     0.068 C 
BRANCH   9  10
HETATM   10  C5  UNL     1     -20.689  18.186  -4.534  1.00  0.00    -0.021 A 
HETATM   11  C4  UNL     1     -21.111  19.518  -4.796  1.00  0.00     0.013 A 
HETATM   12  C3  UNL     1     -22.063  19.752  -5.801  1.00  0.00     0.037 A 
HETATM   13  C2  UNL     1     -22.580  18.711  -6.512  1.00  0.00     0.070 A 
HETATM   14  C33 UNL     1     -22.137  17.418  -6.217  1.00  0.00     0.075 A 
HETATM   15  C24 UNL     1     -21.201  17.167  -5.244  1.00  0.00     0.096 A 
BRANCH  13  16
HETATM   16  O1  UNL     1     -23.522  18.970  -7.500  1.00  0.00    -0.356 OA
HETATM   17  C1  UNL     1     -23.930  17.898  -8.341  1.00  0.00     0.210 C 
ENDBRANCH  13  16
BRANCH  15  18
HETATM   18  O3  UNL     1     -20.775  15.797  -4.997  1.00  0.00    -0.260 OA
BRANCH  18  19
HETATM   19  C25 UNL     1     -19.824  15.435  -6.014  1.00  0.00     0.065 C 
HETATM   20  C26 UNL     1     -18.835  15.187  -6.671  1.00  0.00    -0.036 C 
BRANCH  20  21
HETATM   21  C27 UNL     1     -17.560  15.046  -7.259  1.00  0.00     0.022 A 
HETATM   22  C28 UNL     1     -16.511  14.561  -6.438  1.00  0.00     0.021 A 
HETATM   23  C29 UNL     1     -15.198  14.557  -6.827  1.00  0.00     0.004 A 
HETATM   24  C30 UNL     1     -14.830  15.028  -8.051  1.00  0.00     0.042 A 
HETATM   25  C31 UNL     1     -15.826  15.505  -8.868  1.00  0.00     0.117 A 
HETATM   26  F6  UNL     1     -15.422  15.997 -10.087  1.00  0.00    -0.206 F 
HETATM   27  C32 UNL     1     -17.177  15.513  -8.480  1.00  0.00     0.062 A 
ENDBRANCH  20  21
ENDBRANCH  18  19
ENDBRANCH  15  18
ENDBRANCH   9  10
ENDBRANCH   8   9
ENDBRANCH   7   8
ENDBRANCH   1   7
BRANCH   4  28
HETATM   28  N1  UNL     1     -16.141  20.086  -9.920  1.00  0.00    -0.192 N 
ATOM     29  H1  UNL     1     -16.108  19.449 -10.716  1.00  0.00     0.184 HD
BRANCH  28  30
HETATM   30  C12 UNL     1     -15.708  21.285 -10.086  1.00  0.00     0.683 A 
HETATM   31  N2  UNL     1     -15.471  21.678 -11.328  1.00  0.00    -0.191 N 
HETATM   32  C13 UNL     1     -15.012  22.895 -11.617  1.00  0.00     0.067 A 
ATOM     33  H2  UNL     1     -15.646  21.025 -12.092  1.00  0.00     0.184 HD
HETATM   34  C20 UNL     1     -14.770  23.789 -10.625  1.00  0.00     0.049 A 
HETATM   35  C21 UNL     1     -15.021  23.397  -9.323  1.00  0.00     0.108 A 
HETATM   36  N3  UNL     1     -15.479  22.154  -9.065  1.00  0.00    -0.202 N 
ATOM     37  H3  UNL     1     -15.654  21.866  -8.103  1.00  0.00     0.183 HD
BRANCH  32  38
HETATM   38  C14 UNL     1     -14.559  23.212 -12.972  1.00  0.00     0.075 A 
HETATM   39  C15 UNL     1     -15.332  23.369 -14.060  1.00  0.00     0.173 A 
HETATM   40  F1  UNL     1     -16.672  23.318 -14.032  1.00  0.00    -0.202 F 
HETATM   41  C16 UNL     1     -14.764  23.615 -15.325  1.00  0.00     0.197 A 
HETATM   42  F2  UNL     1     -15.544  23.764 -16.394  1.00  0.00    -0.199 F 
HETATM   43  C17 UNL     1     -13.418  23.700 -15.421  1.00  0.00     0.199 A 
HETATM   44  F3  UNL     1     -12.813  23.924 -16.630  1.00  0.00    -0.199 F 
HETATM   45  C18 UNL     1     -12.599  23.541 -14.322  1.00  0.00     0.197 A 
HETATM   46  F4  UNL     1     -11.270  23.632 -14.477  1.00  0.00    -0.199 F 
HETATM   47  C19 UNL     1     -13.165  23.301 -13.112  1.00  0.00     0.173 A 
HETATM   48  F5  UNL     1     -12.418  23.147 -11.973  1.00  0.00    -0.202 F 
ENDBRANCH  32  38
ENDBRANCH  28  30
ENDBRANCH   4  28
TORSDOF 11
ENDMDL
MODEL 3
REMARK VINA RESULT: -10.812659344      1.204      3.065
REMARK  11 active torsions:
REMARK  status: ('A' for Active; 'I' for Inactive)
REMARK    1  A    between atoms: O1_2  and  C2_3 
REMARK    2  A    between atoms: C5_6  and  C6_7 
REMARK    3  A    between atoms: C6_7  and  C7_8 
REMARK    4  A    between atoms: C7_8  and  O2_9 
REMARK    5  A    between atoms: O2_9  and  C8_10 
REMARK    6  A    between atoms: C11_13  and  N1_14 
REMARK    7  A    between atoms: N1_14  and  C12_16 
REMARK    8  A    between atoms: C13_19  and  C14_20 
REMARK    9  A    between atoms: C24_37  and  O3_38 
REMARK   10  A    between atoms: O3_38  and  C25_39 
REMARK   11  A    between atoms: C26_40  and  C27_41 
ROOT
HETATM    1  C8  UNL     1     -20.207  20.128  -7.745  1.00  0.00     0.068 A 
HETATM    2  C9  UNL     1     -19.899  21.005  -8.821  1.00  0.00     0.039 A 
HETATM    3  C10 UNL     1     -18.684  20.990  -9.371  1.00  0.00     0.033 A 
HETATM    4  C11 UNL     1     -17.652  20.160  -8.961  1.00  0.00     0.049 A 
HETATM    5  C22 UNL     1     -17.918  19.303  -7.912  1.00  0.00     0.033 A 
HETATM    6  C23 UNL     1     -19.159  19.296  -7.329  1.00  0.00     0.039 A 
ENDROOT
BRANCH   1   7
HETATM    7  O2  UNL     1     -21.419  20.148  -7.236  1.00  0.00    -0.351 OA
BRANCH   7   8
HETATM    8  C7  UNL     1     -22.615  20.191  -6.730  1.00  0.00     0.180 C 
BRANCH   8   9
HETATM    9  C6  UNL     1     -22.907  19.019  -5.809  1.00  0.00     0.068 C 
BRANCH   9  10
HETATM   10  C5  UNL     1     -21.977  18.757  -4.721  1.00  0.00    -0.021 A 
HETATM   11  C4  UNL     1     -21.886  19.739  -3.699  1.00  0.00     0.013 A 
HETATM   12  C3  UNL     1     -21.027  19.521  -2.609  1.00  0.00     0.037 A 
HETATM   13  C2  UNL     1     -20.285  18.380  -2.540  1.00  0.00     0.070 A 
HETATM   14  C33 UNL     1     -20.406  17.443  -3.570  1.00  0.00     0.075 A 
HETATM   15  C24 UNL     1     -21.246  17.633  -4.641  1.00  0.00     0.096 A 
BRANCH  13  16
HETATM   16  O1  UNL     1     -19.442  18.189  -1.452  1.00  0.00    -0.356 OA
HETATM   17  C1  UNL     1     -18.157  17.626  -1.685  1.00  0.00     0.210 C 
ENDBRANCH  13  16
BRANCH  15  18
HETATM   18  O3  UNL     1     -21.332  16.610  -5.673  1.00  0.00    -0.260 OA
BRANCH  18  19
HETATM   19  C25 UNL     1     -20.034  16.005  -5.812  1.00  0.00     0.065 C 
HETATM   20  C26 UNL     1     -18.933  15.641  -6.168  1.00  0.00    -0.036 C 
BRANCH  20  21
HETATM   21  C27 UNL     1     -17.732  15.291  -6.820  1.00  0.00     0.022 A 
HETATM   22  C28 UNL     1     -16.711  14.697  -6.036  1.00  0.00     0.021 A 
HETATM   23  C29 UNL     1     -15.439  14.487  -6.500  1.00  0.00     0.004 A 
HETATM   24  C30 UNL     1     -15.090  14.844  -7.767  1.00  0.00     0.042 A 
HETATM   25  C31 UNL     1     -16.059  15.422  -8.549  1.00  0.00     0.117 A 
HETATM   26  F6  UNL     1     -15.670  15.795  -9.815  1.00  0.00    -0.206 F 
HETATM   27  C32 UNL     1     -17.367  15.643  -8.085  1.00  0.00     0.062 A 
ENDBRANCH  20  21
ENDBRANCH  18  19
ENDBRANCH  15  18
ENDBRANCH   9  10
ENDBRANCH   8   9
ENDBRANCH   7   8
ENDBRANCH   1   7
BRANCH   4  28
HETATM   28  N1  UNL     1     -16.409  20.237  -9.581  1.00  0.00    -0.192 N 
ATOM     29  H1  UNL     1     -15.983  19.371  -9.912  1.00  0.00     0.184 HD
BRANCH  28  30
HETATM   30  C12 UNL     1     -15.768  21.336  -9.763  1.00  0.00     0.683 A 
HETATM   31  N2  UNL     1     -15.594  21.738 -11.013  1.00  0.00    -0.191 N 
HETATM   32  C13 UNL     1     -14.937  22.856 -11.319  1.00  0.00     0.067 A 
ATOM     33  H2  UNL     1     -15.978  21.171 -11.769  1.00  0.00     0.184 HD
HETATM   34  C20 UNL     1     -14.415  23.634 -10.337  1.00  0.00     0.049 A 
HETATM   35  C21 UNL     1     -14.596  23.233  -9.026  1.00  0.00     0.108 A 
HETATM   36  N3  UNL     1     -15.261  22.091  -8.752  1.00  0.00    -0.202 N 
ATOM     37  H3  UNL     1     -15.383  21.794  -7.784  1.00  0.00     0.183 HD
BRANCH  32  38
HETATM   38  C14 UNL     1     -14.581  23.147 -12.708  1.00  0.00     0.075 A 
HETATM   39  C15 UNL     1     -15.428  23.281 -13.743  1.00  0.00     0.173 A 
HETATM   40  F1  UNL     1     -16.762  23.227 -13.620  1.00  0.00    -0.202 F 
HETATM   41  C16 UNL     1     -14.950  23.503 -15.049  1.00  0.00     0.197 A 
HETATM   42  F2  UNL     1     -15.803  23.629 -16.064  1.00  0.00    -0.199 F 
HETATM   43  C17 UNL     1     -13.614  23.589 -15.240  1.00  0.00     0.199 A 
HETATM   44  F3  UNL     1     -13.095  23.791 -16.492  1.00  0.00    -0.199 F 
HETATM   45  C18 UNL     1     -12.720  23.454 -14.198  1.00  0.00     0.197 A 
HETATM   46  F4  UNL     1     -11.406  23.545 -14.446  1.00  0.00    -0.199 F 
HETATM   47  C19 UNL     1     -13.200  23.237 -12.947  1.00  0.00     0.173 A 
HETATM   48  F5  UNL     1     -12.375  23.107 -11.859  1.00  0.00    -0.202 F 
ENDBRANCH  32  38
ENDBRANCH  28  30
ENDBRANCH   4  28
TORSDOF 11
ENDMDL
MODEL 4
REMARK VINA RESULT: -10.776350591      1.183      2.622
REMARK  11 active torsions:
REMARK  status: ('A' for Active; 'I' for Inactive)
REMARK    1  A    between atoms: O1_2  and  C2_3 
REMARK    2  A    between atoms: C5_6  and  C6_7 
REMARK    3  A    between atoms: C6_7  and  C7_8 
REMARK    4  A    between atoms: C7_8  and  O2_9 
REMARK    5  A    between atoms: O2_9  and  C8_10 
REMARK    6  A    between atoms: C11_13  and  N1_14 
REMARK    7  A    between atoms: N1_14  and  C12_16 
REMARK    8  A    between atoms: C13_19  and  C14_20 
REMARK    9  A    between atoms: C24_37  and  O3_38 
REMARK   10  A    between atoms: O3_38  and  C25_39 
REMARK   11  A    between atoms: C26_40  and  C27_41 
ROOT
HETATM    1  C8  UNL     1     -20.167  20.096  -7.756  1.00  0.00     0.068 A 
HETATM    2  C9  UNL     1     -19.875  20.969  -8.840  1.00  0.00     0.039 A 
HETATM    3  C10 UNL     1     -18.659  20.975  -9.387  1.00  0.00     0.033 A 
HETATM    4  C11 UNL     1     -17.611  20.172  -8.967  1.00  0.00     0.049 A 
HETATM    5  C22 UNL     1     -17.860  19.320  -7.910  1.00  0.00     0.033 A 
HETATM    6  C23 UNL     1     -19.102  19.291  -7.329  1.00  0.00     0.039 A 
ENDROOT
BRANCH   1   7
HETATM    7  O2  UNL     1     -21.380  20.094  -7.250  1.00  0.00    -0.351 OA
BRANCH   7   8
HETATM    8  C7  UNL     1     -22.588  20.099  -6.771  1.00  0.00     0.180 C 
BRANCH   8   9
HETATM    9  C6  UNL     1     -22.859  18.926  -5.845  1.00  0.00     0.068 C 
BRANCH   9  10
HETATM   10  C5  UNL     1     -21.936  18.696  -4.745  1.00  0.00    -0.021 A 
HETATM   11  C4  UNL     1     -21.846  19.710  -3.754  1.00  0.00     0.013 A 
HETATM   12  C3  UNL     1     -20.993  19.524  -2.654  1.00  0.00     0.037 A 
HETATM   13  C2  UNL     1     -20.255  18.384  -2.545  1.00  0.00     0.070 A 
HETATM   14  C33 UNL     1     -20.374  17.415  -3.545  1.00  0.00     0.075 A 
HETATM   15  C24 UNL     1     -21.208  17.573  -4.625  1.00  0.00     0.096 A 
BRANCH  13  16
HETATM   16  O1  UNL     1     -19.418  18.225  -1.447  1.00  0.00    -0.356 OA
HETATM   17  C1  UNL     1     -18.164  17.584  -1.643  1.00  0.00     0.210 C 
ENDBRANCH  13  16
BRANCH  15  18
HETATM   18  O3  UNL     1     -21.292  16.518  -5.625  1.00  0.00    -0.260 OA
BRANCH  18  19
HETATM   19  C25 UNL     1     -19.981  15.945  -5.780  1.00  0.00     0.065 C 
HETATM   20  C26 UNL     1     -18.879  15.601  -6.153  1.00  0.00    -0.036 C 
BRANCH  20  21
HETATM   21  C27 UNL     1     -17.684  15.269  -6.823  1.00  0.00     0.022 A 
HETATM   22  C28 UNL     1     -16.653  14.663  -6.062  1.00  0.00     0.021 A 
HETATM   23  C29 UNL     1     -15.385  14.467  -6.542  1.00  0.00     0.004 A 
HETATM   24  C30 UNL     1     -15.049  14.851  -7.805  1.00  0.00     0.042 A 
HETATM   25  C31 UNL     1     -16.028  15.441  -8.566  1.00  0.00     0.117 A 
HETATM   26  F6  UNL     1     -15.653  15.841  -9.827  1.00  0.00    -0.206 F 
HETATM   27  C32 UNL     1     -17.332  15.647  -8.084  1.00  0.00     0.062 A 
ENDBRANCH  20  21
ENDBRANCH  18  19
ENDBRANCH  15  18
ENDBRANCH   9  10
ENDBRANCH   8   9
ENDBRANCH   7   8
ENDBRANCH   1   7
BRANCH   4  28
HETATM   28  N1  UNL     1     -16.368  20.270  -9.585  1.00  0.00    -0.192 N 
ATOM     29  H1  UNL     1     -15.922  19.411  -9.908  1.00  0.00     0.184 HD
BRANCH  28  30
HETATM   30  C12 UNL     1     -15.749  21.381  -9.774  1.00  0.00     0.683 A 
HETATM   31  N2  UNL     1     -15.490  21.726 -11.026  1.00  0.00    -0.191 N 
HETATM   32  C13 UNL     1     -14.847  22.850 -11.339  1.00  0.00     0.067 A 
ATOM     33  H2  UNL     1     -15.794  21.109 -11.778  1.00  0.00     0.184 HD
HETATM   34  C20 UNL     1     -14.428  23.694 -10.361  1.00  0.00     0.049 A 
HETATM   35  C21 UNL     1     -14.700  23.352  -9.049  1.00  0.00     0.108 A 
HETATM   36  N3  UNL     1     -15.348  22.203  -8.768  1.00  0.00    -0.202 N 
ATOM     37  H3  UNL     1     -15.537  21.950  -7.798  1.00  0.00     0.183 HD
BRANCH  32  38
HETATM   38  C14 UNL     1     -14.391  23.084 -12.709  1.00  0.00     0.075 A 
HETATM   39  C15 UNL     1     -13.121  23.258 -13.113  1.00  0.00     0.173 A 
HETATM   40  F1  UNL     1     -12.063  23.172 -12.294  1.00  0.00    -0.202 F 
HETATM   41  C16 UNL     1     -12.819  23.537 -14.461  1.00  0.00     0.197 A 
HETATM   42  F2  UNL     1     -11.555  23.711 -14.844  1.00  0.00    -0.199 F 
HETATM   43  C17 UNL     1     -13.838  23.616 -15.346  1.00  0.00     0.199 A 
HETATM   44  F3  UNL     1     -13.602  23.898 -16.666  1.00  0.00    -0.199 F 
HETATM   45  C18 UNL     1     -15.152  23.444 -14.960  1.00  0.00     0.197 A 
HETATM   46  F4  UNL     1     -16.122  23.537 -15.881  1.00  0.00    -0.199 F 
HETATM   47  C19 UNL     1     -15.422  23.179 -13.656  1.00  0.00     0.173 A 
HETATM   48  F5  UNL     1     -16.700  22.981 -13.201  1.00  0.00    -0.202 F 
ENDBRANCH  32  38
ENDBRANCH  28  30
ENDBRANCH   4  28
TORSDOF 11
ENDMDL
MODEL 5
REMARK VINA RESULT: -10.673557120      1.931      4.189
REMARK  11 active torsions:
REMARK  status: ('A' for Active; 'I' for Inactive)
REMARK    1  A    between atoms: O1_2  and  C2_3 
REMARK    2  A    between atoms: C5_6  and  C6_7 
REMARK    3  A    between atoms: C6_7  and  C7_8 
REMARK    4  A    between atoms: C7_8  and  O2_9 
REMARK    5  A    between atoms: O2_9  and  C8_10 
REMARK    6  A    between atoms: C11_13  and  N1_14 
REMARK    7  A    between atoms: N1_14  and  C12_16 
REMARK    8  A    between atoms: C13_19  and  C14_20 
REMARK    9  A    between atoms: C24_37  and  O3_38 
REMARK   10  A    between atoms: O3_38  and  C25_39 
REMARK   11  A    between atoms: C26_40  and  C27_41 
ROOT
HETATM    1  C8  UNL     1     -16.850  17.475  -7.590  1.00  0.00     0.068 A 
HETATM    2  C9  UNL     1     -17.876  18.425  -7.328  1.00  0.00     0.039 A 
HETATM    3  C10 UNL     1     -17.937  19.557  -8.030  1.00  0.00     0.033 A 
HETATM    4  C11 UNL     1     -17.043  19.902  -9.032  1.00  0.00     0.049 A 
HETATM    5  C22 UNL     1     -16.030  19.005  -9.304  1.00  0.00     0.033 A 
HETATM    6  C23 UNL     1     -15.944  17.832  -8.600  1.00  0.00     0.039 A 
ENDROOT
BRANCH   1   7
HETATM    7  O2  UNL     1     -16.826  16.357  -6.899  1.00  0.00    -0.351 OA
BRANCH   7   8
HETATM    8  C7  UNL     1     -16.823  15.245  -6.227  1.00  0.00     0.180 C 
BRANCH   8   9
HETATM    9  C6  UNL     1     -18.182  14.910  -5.637  1.00  0.00     0.068 C 
BRANCH   9  10
HETATM   10  C5  UNL     1     -18.767  15.849  -4.692  1.00  0.00    -0.021 A 
HETATM   11  C4  UNL     1     -17.911  16.364  -3.681  1.00  0.00     0.013 A 
HETATM   12  C3  UNL     1     -18.417  17.298  -2.762  1.00  0.00     0.037 A 
HETATM   13  C2  UNL     1     -19.717  17.699  -2.838  1.00  0.00     0.070 A 
HETATM   14  C33 UNL     1     -20.521  17.164  -3.848  1.00  0.00     0.075 A 
HETATM   15  C24 UNL     1     -20.045  16.255  -4.762  1.00  0.00     0.096 A 
BRANCH  13  16
HETATM   16  O1  UNL     1     -20.193  18.624  -1.916  1.00  0.00    -0.356 OA
HETATM   17  C1  UNL     1     -21.207  19.530  -2.331  1.00  0.00     0.210 C 
ENDBRANCH  13  16
BRANCH  15  18
HETATM   18  O3  UNL     1     -20.935  15.746  -5.795  1.00  0.00    -0.260 OA
BRANCH  18  19
HETATM   19  C25 UNL     1     -21.324  16.849  -6.633  1.00  0.00     0.065 C 
HETATM   20  C26 UNL     1     -21.581  17.932  -7.115  1.00  0.00    -0.036 C 
BRANCH  20  21
HETATM   21  C27 UNL     1     -21.890  19.272  -7.427  1.00  0.00     0.022 A 
HETATM   22  C28 UNL     1     -22.509  19.527  -8.677  1.00  0.00     0.021 A 
HETATM   23  C29 UNL     1     -22.687  20.788  -9.181  1.00  0.00     0.004 A 
HETATM   24  C30 UNL     1     -22.271  21.883  -8.485  1.00  0.00     0.042 A 
HETATM   25  C31 UNL     1     -21.667  21.667  -7.271  1.00  0.00     0.117 A 
HETATM   26  F6  UNL     1     -21.235  22.789  -6.604  1.00  0.00    -0.206 F 
HETATM   27  C32 UNL     1     -21.480  20.378  -6.744  1.00  0.00     0.062 A 
ENDBRANCH  20  21
ENDBRANCH  18  19
ENDBRANCH  15  18
ENDBRANCH   9  10
ENDBRANCH   8   9
ENDBRANCH   7   8
ENDBRANCH   1   7
BRANCH   4  28
HETATM   28  N1  UNL     1     -17.174  21.121  -9.691  1.00  0.00    -0.192 N 
ATOM     29  H1  UNL     1     -18.090  21.369 -10.064  1.00  0.00     0.184 HD
BRANCH  28  30
HETATM   30  C12 UNL     1     -16.207  21.952  -9.856  1.00  0.00     0.683 A 
HETATM   31  N2  UNL     1     -15.877  22.259 -11.101  1.00  0.00    -0.191 N 
HETATM   32  C13 UNL     1     -14.886  23.101 -11.391  1.00  0.00     0.067 A 
ATOM     33  H2  UNL     1     -16.401  21.836 -11.867  1.00  0.00     0.184 HD
HETATM   34  C20 UNL     1     -14.169  23.682 -10.395  1.00  0.00     0.049 A 
HETATM   35  C21 UNL     1     -14.507  23.378  -9.090  1.00  0.00     0.108 A 
HETATM   36  N3  UNL     1     -15.512  22.516  -8.832  1.00  0.00    -0.202 N 
ATOM     37  H3  UNL     1     -15.752  22.287  -7.868  1.00  0.00     0.183 HD
BRANCH  32  38
HETATM   38  C14 UNL     1     -14.415  23.243 -12.769  1.00  0.00     0.075 A 
HETATM   39  C15 UNL     1     -13.138  23.350 -13.173  1.00  0.00     0.173 A 
HETATM   40  F1  UNL     1     -12.088  23.273 -12.342  1.00  0.00    -0.202 F 
HETATM   41  C16 UNL     1     -12.820  23.544 -14.531  1.00  0.00     0.197 A 
HETATM   42  F2  UNL     1     -11.549  23.653 -14.914  1.00  0.00    -0.199 F 
HETATM   43  C17 UNL     1     -13.831  23.609 -15.427  1.00  0.00     0.199 A 
HETATM   44  F3  UNL     1     -13.578  23.809 -16.759  1.00  0.00    -0.199 F 
HETATM   45  C18 UNL     1     -15.152  23.505 -15.042  1.00  0.00     0.197 A 
HETATM   46  F4  UNL     1     -16.113  23.580 -15.972  1.00  0.00    -0.199 F 
HETATM   47  C19 UNL     1     -15.438  23.322 -13.727  1.00  0.00     0.173 A 
HETATM   48  F5  UNL     1     -16.724  23.194 -13.270  1.00  0.00    -0.202 F 
ENDBRANCH  32  38
ENDBRANCH  28  30
ENDBRANCH   4  28
TORSDOF 11
ENDMDL
