MODEL 1
REMARK VINA RESULT: -10.203411268      0.000      0.000
REMARK  9 active torsions:
REMARK  status: ('A' for Active; 'I' for Inactive)
REMARK    1  A    between atoms: O1_2  and  C2_3 
REMARK    2  A    between atoms: C5_7  and  S1_8 
REMARK    3  A    between atoms: S1_8  and  N1_11 
REMARK    4  A    between atoms: N1_11  and  C6_13 
REMARK    5  A    between atoms: C9_16  and  S2_17 
REMARK    6  A    between atoms: S2_17  and  O4_18 
REMARK    7  A    between atoms: S2_17  and  C10_22 
REMARK    8  A    between atoms: C10_22  and  C11_23 
REMARK    9  A    between atoms: C10_22  and  C17_30 
ROOT
HETATM    1  C6  UNL     1     -15.142  19.876  -9.050  1.00  0.00     0.042 A 
HETATM    2  C7  UNL     1     -15.295  18.698  -9.700  1.00  0.00     0.031 A 
HETATM    3  C8  UNL     1     -15.983  17.592  -9.157  1.00  0.00     0.025 A 
HETATM    4  C9  UNL     1     -16.514  17.729  -7.924  1.00  0.00     0.051 A 
HETATM    5  C18 UNL     1     -16.406  18.862  -7.214  1.00  0.00     0.025 A 
HETATM    6  C19 UNL     1     -15.728  19.931  -7.765  1.00  0.00     0.031 A 
ENDROOT
BRANCH   4   7
HETATM    7  S2  UNL     1     -17.607  16.239  -7.099  1.00  0.00     0.115 SA
HETATM    8  F1  UNL     1     -15.545  15.588  -6.864  1.00  0.00    -0.138 F 
HETATM    9  F2  UNL     1     -17.313  14.591  -8.078  1.00  0.00    -0.138 F 
BRANCH   7  10
HETATM   10  O4  UNL     1     -18.645  16.475  -7.591  1.00  0.00    -0.307 OA
ATOM     11  H4  UNL     1     -19.012  15.598  -7.597  1.00  0.00     0.230 HD
ENDBRANCH   7  10
BRANCH   7  12
HETATM   12  C10 UNL     1     -17.617  16.148  -5.259  1.00  0.00     0.170 C 
BRANCH  12  13
HETATM   13  C11 UNL     1     -18.630  17.087  -4.623  1.00  0.00    -0.037 A 
HETATM   14  C12 UNL     1     -18.697  17.173  -3.247  1.00  0.00     0.010 A 
HETATM   15  C13 UNL     1     -19.615  18.027  -2.683  1.00  0.00     0.024 A 
HETATM   16  C14 UNL     1     -20.475  18.805  -3.422  1.00  0.00     0.034 A 
HETATM   17 CL2  UNL     1     -21.637  19.887  -2.635  1.00  0.00    -0.084 Cl
HETATM   18  C15 UNL     1     -20.396  18.708  -4.786  1.00  0.00     0.024 A 
HETATM   19  C16 UNL     1     -19.480  17.856  -5.391  1.00  0.00     0.010 A 
ENDBRANCH  12  13
BRANCH  12  20
HETATM   20  C17 UNL     1     -17.960  14.790  -4.691  1.00  0.00     0.201 C 
HETATM   21 CL3  UNL     1     -16.804  13.522  -5.192  1.00  0.00    -0.106 Cl
HETATM   22 CL4  UNL     1     -19.619  14.266  -5.056  1.00  0.00    -0.106 Cl
ENDBRANCH  12  20
ENDBRANCH   7  12
ENDBRANCH   4   7
BRANCH   1  23
HETATM   23  N1  UNL     1     -14.506  21.024  -9.569  1.00  0.00    -0.281 N 
ATOM     24  H1  UNL     1     -13.493  21.061  -9.456  1.00  0.00     0.179 HD
BRANCH  23  25
HETATM   25  S1  UNL     1     -15.213  22.357 -10.361  1.00  0.00     0.265 S 
HETATM   26  O2  UNL     1     -16.716  22.085 -10.483  1.00  0.00    -0.200 OA
HETATM   27  O3  UNL     1     -15.112  23.528  -9.395  1.00  0.00    -0.200 OA
BRANCH  25  28
HETATM   28  C5  UNL     1     -14.603  22.767 -11.910  1.00  0.00     0.103 A 
HETATM   29  C4  UNL     1     -13.309  22.975 -12.262  1.00  0.00     0.060 A 
HETATM   30  C3  UNL     1     -12.959  23.309 -13.581  1.00  0.00     0.064 A 
HETATM   31 CL1  UNL     1     -11.993  22.852 -11.143  1.00  0.00    -0.083 Cl
HETATM   32  C2  UNL     1     -13.909  23.437 -14.566  1.00  0.00     0.091 A 
HETATM   33  C21 UNL     1     -15.222  23.229 -14.227  1.00  0.00     0.069 A 
HETATM   34  C20 UNL     1     -15.562  22.904 -12.942  1.00  0.00     0.053 A 
HETATM   35 CL5  UNL     1     -16.466  23.384 -15.461  1.00  0.00    -0.081 Cl
BRANCH  32  36
HETATM   36  O1  UNL     1     -13.597  23.762 -15.863  1.00  0.00    -0.354 OA
HETATM   37  C1  UNL     1     -12.378  24.319 -16.277  1.00  0.00     0.210 C 
ENDBRANCH  32  36
ENDBRANCH  25  28
ENDBRANCH  23  25
ENDBRANCH   1  23
TORSDOF 9
ENDMDL
MODEL 2
REMARK VINA RESULT: -10.110283576      1.371      1.787
REMARK  9 active torsions:
REMARK  status: ('A' for Active; 'I' for Inactive)
REMARK    1  A    between atoms: O1_2  and  C2_3 
REMARK    2  A    between atoms: C5_7  and  S1_8 
REMARK    3  A    between atoms: S1_8  and  N1_11 
REMARK    4  A    between atoms: N1_11  and  C6_13 
REMARK    5  A    between atoms: C9_16  and  S2_17 
REMARK    6  A    between atoms: S2_17  and  O4_18 
REMARK    7  A    between atoms: S2_17  and  C10_22 
REMARK    8  A    between atoms: C10_22  and  C11_23 
REMARK    9  A    between atoms: C10_22  and  C17_30 
ROOT
HETATM    1  C6  UNL     1     -15.033  19.821  -9.097  1.00  0.00     0.042 A 
HETATM    2  C7  UNL     1     -15.171  18.630  -9.727  1.00  0.00     0.031 A 
HETATM    3  C8  UNL     1     -15.884  17.541  -9.185  1.00  0.00     0.025 A 
HETATM    4  C9  UNL     1     -16.457  17.705  -7.974  1.00  0.00     0.051 A 
HETATM    5  C18 UNL     1     -16.365  18.852  -7.285  1.00  0.00     0.025 A 
HETATM    6  C19 UNL     1     -15.662  19.906  -7.834  1.00  0.00     0.031 A 
ENDROOT
BRANCH   4   7
HETATM    7  S2  UNL     1     -17.587  16.239  -7.157  1.00  0.00     0.115 SA
HETATM    8  F1  UNL     1     -15.541  15.537  -6.923  1.00  0.00    -0.138 F 
HETATM    9  F2  UNL     1     -17.333  14.589  -8.143  1.00  0.00    -0.138 F 
BRANCH   7  10
HETATM   10  O4  UNL     1     -18.619  16.504  -7.649  1.00  0.00    -0.307 OA
ATOM     11  H4  UNL     1     -19.161  15.850  -7.222  1.00  0.00     0.230 HD
ENDBRANCH   7  10
BRANCH   7  12
HETATM   12  C10 UNL     1     -17.601  16.141  -5.318  1.00  0.00     0.170 C 
BRANCH  12  13
HETATM   13  C11 UNL     1     -18.611  17.082  -4.679  1.00  0.00    -0.037 A 
HETATM   14  C12 UNL     1     -18.690  17.152  -3.303  1.00  0.00     0.010 A 
HETATM   15  C13 UNL     1     -19.605  18.007  -2.737  1.00  0.00     0.024 A 
HETATM   16  C14 UNL     1     -20.450  18.803  -3.474  1.00  0.00     0.034 A 
HETATM   17 CL2  UNL     1     -21.609  19.887  -2.685  1.00  0.00    -0.084 Cl
HETATM   18  C15 UNL     1     -20.359  18.723  -4.838  1.00  0.00     0.024 A 
HETATM   19  C16 UNL     1     -19.446  17.869  -5.445  1.00  0.00     0.010 A 
ENDBRANCH  12  13
BRANCH  12  20
HETATM   20  C17 UNL     1     -17.951  14.782  -4.756  1.00  0.00     0.201 C 
HETATM   21 CL3  UNL     1     -16.804  13.509  -5.264  1.00  0.00    -0.106 Cl
HETATM   22 CL4  UNL     1     -19.614  14.270  -5.123  1.00  0.00    -0.106 Cl
ENDBRANCH  12  20
ENDBRANCH   7  12
ENDBRANCH   4   7
BRANCH   1  23
HETATM   23  N1  UNL     1     -14.372  20.955  -9.617  1.00  0.00    -0.281 N 
ATOM     24  H1  UNL     1     -13.379  20.837  -9.818  1.00  0.00     0.179 HD
BRANCH  23  25
HETATM   25  S1  UNL     1     -15.020  22.494  -9.955  1.00  0.00     0.265 S 
HETATM   26  O2  UNL     1     -16.502  22.311 -10.300  1.00  0.00    -0.200 OA
HETATM   27  O3  UNL     1     -15.023  23.252  -8.636  1.00  0.00    -0.200 OA
BRANCH  25  28
HETATM   28  C5  UNL     1     -14.276  23.405 -11.202  1.00  0.00     0.103 A 
HETATM   29  C4  UNL     1     -14.097  23.045 -12.497  1.00  0.00     0.060 A 
HETATM   30  C3  UNL     1     -13.464  23.904 -13.411  1.00  0.00     0.064 A 
HETATM   31 CL1  UNL     1     -14.624  21.523 -13.137  1.00  0.00    -0.083 Cl
HETATM   32  C2  UNL     1     -13.000  25.141 -13.031  1.00  0.00     0.091 A 
HETATM   33  C21 UNL     1     -13.173  25.521 -11.724  1.00  0.00     0.069 A 
HETATM   34  C20 UNL     1     -13.790  24.684 -10.835  1.00  0.00     0.053 A 
HETATM   35 CL5  UNL     1     -12.593  27.097 -11.201  1.00  0.00    -0.081 Cl
BRANCH  32  36
HETATM   36  O1  UNL     1     -12.377  26.001 -13.900  1.00  0.00    -0.354 OA
HETATM   37  C1  UNL     1     -11.250  25.682 -14.671  1.00  0.00     0.210 C 
ENDBRANCH  32  36
ENDBRANCH  25  28
ENDBRANCH  23  25
ENDBRANCH   1  23
TORSDOF 9
ENDMDL
MODEL 3
REMARK VINA RESULT: -10.036461632      5.309      8.518
REMARK  9 active torsions:
REMARK  status: ('A' for Active; 'I' for Inactive)
REMARK    1  A    between atoms: O1_2  and  C2_3 
REMARK    2  A    between atoms: C5_7  and  S1_8 
REMARK    3  A    between atoms: S1_8  and  N1_11 
REMARK    4  A    between atoms: N1_11  and  C6_13 
REMARK    5  A    between atoms: C9_16  and  S2_17 
REMARK    6  A    between atoms: S2_17  and  O4_18 
REMARK    7  A    between atoms: S2_17  and  C10_22 
REMARK    8  A    between atoms: C10_22  and  C11_23 
REMARK    9  A    between atoms: C10_22  and  C17_30 
ROOT
HETATM    1  C6  UNL     1     -22.037  19.368  -3.791  1.00  0.00     0.042 A 
HETATM    2  C7  UNL     1     -21.794  18.251  -3.065  1.00  0.00     0.031 A 
HETATM    3  C8  UNL     1     -20.808  17.302  -3.403  1.00  0.00     0.025 A 
HETATM    4  C9  UNL     1     -20.071  17.530  -4.510  1.00  0.00     0.051 A 
HETATM    5  C18 UNL     1     -20.250  18.611  -5.284  1.00  0.00     0.025 A 
HETATM    6  C19 UNL     1     -21.222  19.528  -4.934  1.00  0.00     0.031 A 
ENDROOT
BRANCH   4   7
HETATM    7  S2  UNL     1     -18.563  16.282  -5.024  1.00  0.00     0.115 SA
HETATM    8  F1  UNL     1     -20.363  15.243  -5.664  1.00  0.00    -0.138 F 
HETATM    9  F2  UNL     1     -18.742  14.607  -4.064  1.00  0.00    -0.138 F 
BRANCH   7  10
HETATM   10  O4  UNL     1     -17.720  16.715  -4.333  1.00  0.00    -0.307 OA
ATOM     11  H4  UNL     1     -17.219  15.920  -4.189  1.00  0.00     0.230 HD
ENDBRANCH   7  10
BRANCH   7  12
HETATM   12  C10 UNL     1     -18.139  16.198  -6.814  1.00  0.00     0.170 C 
BRANCH  12  13
HETATM   13  C11 UNL     1     -17.458  17.460  -7.324  1.00  0.00    -0.037 A 
HETATM   14  C12 UNL     1     -16.079  17.506  -7.375  1.00  0.00     0.010 A 
HETATM   15  C13 UNL     1     -15.475  18.650  -7.840  1.00  0.00     0.024 A 
HETATM   16  C14 UNL     1     -16.175  19.756  -8.259  1.00  0.00     0.034 A 
HETATM   17 CL2  UNL     1     -15.337  21.202  -8.848  1.00  0.00    -0.084 Cl
HETATM   18  C15 UNL     1     -17.542  19.694  -8.202  1.00  0.00     0.024 A 
HETATM   19  C16 UNL     1     -18.188  18.554  -7.738  1.00  0.00     0.010 A 
ENDBRANCH  12  13
BRANCH  12  20
HETATM   20  C17 UNL     1     -17.190  15.084  -7.192  1.00  0.00     0.201 C 
HETATM   21 CL3  UNL     1     -17.333  14.608  -8.909  1.00  0.00    -0.106 Cl
HETATM   22 CL4  UNL     1     -17.336  13.646  -6.157  1.00  0.00    -0.106 Cl
ENDBRANCH  12  20
ENDBRANCH   7  12
ENDBRANCH   4   7
BRANCH   1  23
HETATM   23  N1  UNL     1     -22.977  20.370  -3.468  1.00  0.00    -0.281 N 
ATOM     24  H1  UNL     1     -22.798  20.887  -2.607  1.00  0.00     0.179 HD
BRANCH  23  25
HETATM   25  S1  UNL     1     -24.373  20.828  -4.331  1.00  0.00     0.265 S 
HETATM   26  O2  UNL     1     -25.299  19.609  -4.401  1.00  0.00    -0.200 OA
HETATM   27  O3  UNL     1     -25.112  21.822  -3.448  1.00  0.00    -0.200 OA
BRANCH  25  28
HETATM   28  C5  UNL     1     -24.153  21.441  -5.917  1.00  0.00     0.103 A 
HETATM   29  C4  UNL     1     -23.916  20.736  -7.051  1.00  0.00     0.060 A 
HETATM   30  C3  UNL     1     -23.755  21.382  -8.289  1.00  0.00     0.064 A 
HETATM   31 CL1  UNL     1     -23.791  19.008  -7.083  1.00  0.00    -0.083 Cl
HETATM   32  C2  UNL     1     -23.831  22.750  -8.401  1.00  0.00     0.091 A 
HETATM   33  C21 UNL     1     -24.072  23.478  -7.263  1.00  0.00     0.069 A 
HETATM   34  C20 UNL     1     -24.228  22.848  -6.058  1.00  0.00     0.053 A 
HETATM   35 CL5  UNL     1     -24.176  25.230  -7.367  1.00  0.00    -0.081 Cl
BRANCH  32  36
HETATM   36  O1  UNL     1     -23.678  23.408  -9.595  1.00  0.00    -0.354 OA
HETATM   37  C1  UNL     1     -24.697  23.603 -10.538  1.00  0.00     0.210 C 
ENDBRANCH  32  36
ENDBRANCH  25  28
ENDBRANCH  23  25
ENDBRANCH   1  23
TORSDOF 9
ENDMDL
MODEL 4
REMARK VINA RESULT: -9.960626131      1.579      1.770
REMARK  9 active torsions:
REMARK  status: ('A' for Active; 'I' for Inactive)
REMARK    1  A    between atoms: O1_2  and  C2_3 
REMARK    2  A    between atoms: C5_7  and  S1_8 
REMARK    3  A    between atoms: S1_8  and  N1_11 
REMARK    4  A    between atoms: N1_11  and  C6_13 
REMARK    5  A    between atoms: C9_16  and  S2_17 
REMARK    6  A    between atoms: S2_17  and  O4_18 
REMARK    7  A    between atoms: S2_17  and  C10_22 
REMARK    8  A    between atoms: C10_22  and  C11_23 
REMARK    9  A    between atoms: C10_22  and  C17_30 
ROOT
HETATM    1  C6  UNL     1     -15.145  19.880  -9.200  1.00  0.00     0.042 A 
HETATM    2  C7  UNL     1     -15.276  18.693  -9.839  1.00  0.00     0.031 A 
HETATM    3  C8  UNL     1     -15.932  17.576  -9.280  1.00  0.00     0.025 A 
HETATM    4  C9  UNL     1     -16.454  17.710  -8.043  1.00  0.00     0.051 A 
HETATM    5  C18 UNL     1     -16.365  18.851  -7.343  1.00  0.00     0.025 A 
HETATM    6  C19 UNL     1     -15.719  19.932  -7.910  1.00  0.00     0.031 A 
ENDROOT
BRANCH   4   7
HETATM    7  S2  UNL     1     -17.503  16.201  -7.195  1.00  0.00     0.115 SA
HETATM    8  F1  UNL     1     -15.421  15.641  -6.902  1.00  0.00    -0.138 F 
HETATM    9  F2  UNL     1     -17.123  14.539  -8.119  1.00  0.00    -0.138 F 
BRANCH   7  10
HETATM   10  O4  UNL     1     -18.539  16.381  -7.713  1.00  0.00    -0.307 OA
ATOM     11  H4  UNL     1     -18.636  17.310  -7.538  1.00  0.00     0.230 HD
ENDBRANCH   7  10
BRANCH   7  12
HETATM   12  C10 UNL     1     -17.545  16.163  -5.354  1.00  0.00     0.170 C 
BRANCH  12  13
HETATM   13  C11 UNL     1     -18.594  17.094  -4.764  1.00  0.00    -0.037 A 
HETATM   14  C12 UNL     1     -18.730  17.171  -3.392  1.00  0.00     0.010 A 
HETATM   15  C13 UNL     1     -19.680  18.017  -2.870  1.00  0.00     0.024 A 
HETATM   16  C14 UNL     1     -20.505  18.795  -3.647  1.00  0.00     0.034 A 
HETATM   17 CL2  UNL     1     -21.711  19.867  -2.914  1.00  0.00    -0.084 Cl
HETATM   18  C15 UNL     1     -20.358  18.707  -5.006  1.00  0.00     0.024 A 
HETATM   19  C16 UNL     1     -19.408  17.863  -5.569  1.00  0.00     0.010 A 
ENDBRANCH  12  13
BRANCH  12  20
HETATM   20  C17 UNL     1     -17.865  14.814  -4.753  1.00  0.00     0.201 C 
HETATM   21 CL3  UNL     1     -16.717  13.542  -5.264  1.00  0.00    -0.106 Cl
HETATM   22 CL4  UNL     1     -19.530  14.275  -5.061  1.00  0.00    -0.106 Cl
ENDBRANCH  12  20
ENDBRANCH   7  12
ENDBRANCH   4   7
BRANCH   1  23
HETATM   23  N1  UNL     1     -14.542  21.039  -9.735  1.00  0.00    -0.281 N 
ATOM     24  H1  UNL     1     -13.695  20.886 -10.284  1.00  0.00     0.179 HD
BRANCH  23  25
HETATM   25  S1  UNL     1     -15.046  22.659  -9.583  1.00  0.00     0.265 S 
HETATM   26  O2  UNL     1     -16.577  22.677  -9.619  1.00  0.00    -0.200 OA
HETATM   27  O3  UNL     1     -14.689  23.084  -8.167  1.00  0.00    -0.200 OA
BRANCH  25  28
HETATM   28  C5  UNL     1     -14.457  23.778 -10.741  1.00  0.00     0.103 A 
HETATM   29  C4  UNL     1     -14.557  25.131 -10.710  1.00  0.00     0.060 A 
HETATM   30  C3  UNL     1     -14.023  25.924 -11.739  1.00  0.00     0.064 A 
HETATM   31 CL1  UNL     1     -15.335  25.993  -9.424  1.00  0.00    -0.083 Cl
HETATM   32  C2  UNL     1     -13.379  25.364 -12.817  1.00  0.00     0.091 A 
HETATM   33  C21 UNL     1     -13.270  23.997 -12.864  1.00  0.00     0.069 A 
HETATM   34  C20 UNL     1     -13.790  23.226 -11.861  1.00  0.00     0.053 A 
HETATM   35 CL5  UNL     1     -12.453  23.244 -14.228  1.00  0.00    -0.081 Cl
BRANCH  32  36
HETATM   36  O1  UNL     1     -12.849  26.112 -13.838  1.00  0.00    -0.354 OA
HETATM   37  C1  UNL     1     -11.676  26.875 -13.744  1.00  0.00     0.210 C 
ENDBRANCH  32  36
ENDBRANCH  25  28
ENDBRANCH  23  25
ENDBRANCH   1  23
TORSDOF 9
ENDMDL
MODEL 5
REMARK VINA RESULT: -9.903607822      5.566      9.237
REMARK  9 active torsions:
REMARK  status: ('A' for Active; 'I' for Inactive)
REMARK    1  A    between atoms: O1_2  and  C2_3 
REMARK    2  A    between atoms: C5_7  and  S1_8 
REMARK    3  A    between atoms: S1_8  and  N1_11 
REMARK    4  A    between atoms: N1_11  and  C6_13 
REMARK    5  A    between atoms: C9_16  and  S2_17 
REMARK    6  A    between atoms: S2_17  and  O4_18 
REMARK    7  A    between atoms: S2_17  and  C10_22 
REMARK    8  A    between atoms: C10_22  and  C11_23 
REMARK    9  A    between atoms: C10_22  and  C17_30 
ROOT
HETATM    1  C6  UNL     1     -21.818  19.482  -3.556  1.00  0.00     0.042 A 
HETATM    2  C7  UNL     1     -21.344  19.476  -4.825  1.00  0.00     0.031 A 
HETATM    3  C8  UNL     1     -20.353  18.582  -5.282  1.00  0.00     0.025 A 
HETATM    4  C9  UNL     1     -19.861  17.687  -4.400  1.00  0.00     0.051 A 
HETATM    5  C18 UNL     1     -20.277  17.629  -3.126  1.00  0.00     0.025 A 
HETATM    6  C19 UNL     1     -21.247  18.514  -2.700  1.00  0.00     0.031 A 
ENDROOT
BRANCH   4   7
HETATM    7  S2  UNL     1     -18.513  16.295  -4.983  1.00  0.00     0.115 SA
HETATM    8  F1  UNL     1     -20.432  15.484  -5.611  1.00  0.00    -0.138 F 
HETATM    9  F2  UNL     1     -18.862  14.622  -4.067  1.00  0.00    -0.138 F 
BRANCH   7  10
HETATM   10  O4  UNL     1     -17.613  16.610  -4.300  1.00  0.00    -0.307 OA
ATOM     11  H4  UNL     1     -17.235  17.284  -4.852  1.00  0.00     0.230 HD
ENDBRANCH   7  10
BRANCH   7  12
HETATM   12  C10 UNL     1     -18.138  16.219  -6.785  1.00  0.00     0.170 C 
BRANCH  12  13
HETATM   13  C11 UNL     1     -17.450  17.473  -7.302  1.00  0.00    -0.037 A 
HETATM   14  C12 UNL     1     -16.071  17.506  -7.370  1.00  0.00     0.010 A 
HETATM   15  C13 UNL     1     -15.461  18.643  -7.841  1.00  0.00     0.024 A 
HETATM   16  C14 UNL     1     -16.155  19.757  -8.252  1.00  0.00     0.034 A 
HETATM   17 CL2  UNL     1     -15.310  21.195  -8.851  1.00  0.00    -0.084 Cl
HETATM   18  C15 UNL     1     -17.522  19.709  -8.179  1.00  0.00     0.024 A 
HETATM   19  C16 UNL     1     -18.173  18.575  -7.708  1.00  0.00     0.010 A 
ENDBRANCH  12  13
BRANCH  12  20
HETATM   20  C17 UNL     1     -17.216  15.093  -7.195  1.00  0.00     0.201 C 
HETATM   21 CL3  UNL     1     -17.411  14.633  -8.911  1.00  0.00    -0.106 Cl
HETATM   22 CL4  UNL     1     -17.358  13.649  -6.168  1.00  0.00    -0.106 Cl
ENDBRANCH  12  20
ENDBRANCH   7  12
ENDBRANCH   4   7
BRANCH   1  23
HETATM   23  N1  UNL     1     -22.840  20.322  -3.065  1.00  0.00    -0.281 N 
ATOM     24  H1  UNL     1     -22.595  20.894  -2.256  1.00  0.00     0.179 HD
BRANCH  23  25
HETATM   25  S1  UNL     1     -24.430  20.506  -3.649  1.00  0.00     0.265 S 
HETATM   26  O2  UNL     1     -24.827  19.198  -4.341  1.00  0.00    -0.200 OA
HETATM   27  O3  UNL     1     -25.327  20.580  -2.423  1.00  0.00    -0.200 OA
BRANCH  25  28
HETATM   28  C5  UNL     1     -24.729  21.807  -4.724  1.00  0.00     0.103 A 
HETATM   29  C4  UNL     1     -25.858  22.551  -4.831  1.00  0.00     0.060 A 
HETATM   30  C3  UNL     1     -25.958  23.593  -5.767  1.00  0.00     0.064 A 
HETATM   31 CL1  UNL     1     -27.257  22.293  -3.841  1.00  0.00    -0.083 Cl
HETATM   32  C2  UNL     1     -24.919  23.901  -6.612  1.00  0.00     0.091 A 
HETATM   33  C21 UNL     1     -23.769  23.160  -6.518  1.00  0.00     0.069 A 
HETATM   34  C20 UNL     1     -23.672  22.145  -5.605  1.00  0.00     0.053 A 
HETATM   35 CL5  UNL     1     -22.417  23.525  -7.582  1.00  0.00    -0.081 Cl
BRANCH  32  36
HETATM   36  O1  UNL     1     -24.987  24.913  -7.538  1.00  0.00    -0.354 OA
HETATM   37  C1  UNL     1     -24.794  26.272  -7.253  1.00  0.00     0.210 C 
ENDBRANCH  32  36
ENDBRANCH  25  28
ENDBRANCH  23  25
ENDBRANCH   1  23
TORSDOF 9
ENDMDL
