MODEL 1
REMARK VINA RESULT: -9.304069078      0.000      0.000
REMARK  8 active torsions:
REMARK  status: ('A' for Active; 'I' for Inactive)
REMARK    1  A    between atoms: C2_3  and  C3_4 
REMARK    2  A    between atoms: N2_5  and  C4_6 
REMARK    3  A    between atoms: N2_5  and  N3_9 
REMARK    4  A    between atoms: C4_6  and  C5_7 
REMARK       I    between atoms: N3_9  and  C6_10 
REMARK    5  A    between atoms: C6_10  and  C7_12 
REMARK    6  A    between atoms: C12_18  and  S1_19 
REMARK    7  A    between atoms: S1_19  and  C13_22 
REMARK    8  A    between atoms: C18_29  and  C19_30 
ROOT
HETATM    1  N1  UNL     1     -24.066  26.030  -8.022  1.00  0.00    -0.197 NA
HETATM    2  C1  UNL     1     -24.356  25.209  -7.264  1.00  0.00     0.064 C 
HETATM    3  C2  UNL     1     -24.658  24.122  -6.348  1.00  0.00     0.171 C 
ENDROOT
BRANCH   3   4
HETATM    4  C3  UNL     1     -23.547  23.071  -6.491  1.00  0.00     0.111 C 
HETATM    5  N2  UNL     1     -23.929  21.777  -6.529  1.00  0.00    -0.237 N 
BRANCH   5   6
HETATM    6  C4  UNL     1     -24.598  21.339  -7.766  1.00  0.00     0.177 C 
BRANCH   6   7
HETATM    7  C5  UNL     1     -23.714  21.485  -9.019  1.00  0.00     0.137 C 
HETATM    8 CL1  UNL     1     -24.266  22.906  -9.964  1.00  0.00    -0.129 Cl
ENDBRANCH   6   7
ENDBRANCH   5   6
BRANCH   5   9
HETATM    9  N3  UNL     1     -23.978  20.813  -5.689  1.00  0.00    -0.280 NA
HETATM   10  C6  UNL     1     -24.063  19.742  -4.765  1.00  0.00     0.347 C 
HETATM   11  O1  UNL     1     -25.003  19.065  -4.482  1.00  0.00    -0.249 OA
BRANCH  10  12
HETATM   12  C7  UNL     1     -22.762  19.446  -4.072  1.00  0.00     0.070 A 
HETATM   13  C8  UNL     1     -22.683  20.178  -2.853  1.00  0.00     0.021 A 
HETATM   14  C9  UNL     1     -21.636  19.869  -1.988  1.00  0.00     0.025 A 
HETATM   15  C10 UNL     1     -20.723  18.921  -2.290  1.00  0.00     0.035 A 
HETATM   16 CL2  UNL     1     -19.430  18.593  -1.145  1.00  0.00    -0.084 Cl
HETATM   17  C11 UNL     1     -20.775  18.197  -3.494  1.00  0.00     0.048 A 
HETATM   18  C12 UNL     1     -21.824  18.487  -4.366  1.00  0.00     0.082 A 
BRANCH  18  19
HETATM   19  S1  UNL     1     -21.661  17.809  -6.010  1.00  0.00     0.208 S 
HETATM   20  O2  UNL     1     -22.990  18.048  -6.695  1.00  0.00    -0.217 OA
HETATM   21  O3  UNL     1     -21.422  16.374  -5.926  1.00  0.00    -0.217 OA
BRANCH  19  22
HETATM   22  C13 UNL     1     -20.434  18.665  -6.915  1.00  0.00     0.077 A 
HETATM   23  C14 UNL     1     -20.784  19.899  -7.526  1.00  0.00     0.050 A 
HETATM   24  C15 UNL     1     -19.869  20.635  -8.204  1.00  0.00     0.057 A 
HETATM   25 CL3  UNL     1     -20.346  22.137  -9.045  1.00  0.00    -0.083 Cl
HETATM   26  C16 UNL     1     -18.597  20.223  -8.322  1.00  0.00     0.056 A 
HETATM   27 CL4  UNL     1     -17.398  21.094  -9.220  1.00  0.00    -0.083 Cl
HETATM   28  C17 UNL     1     -18.224  19.059  -7.758  1.00  0.00     0.039 A 
HETATM   29  C18 UNL     1     -19.166  18.277  -7.050  1.00  0.00     0.001 A 
BRANCH  29  30
HETATM   30  C19 UNL     1     -18.589  16.964  -6.680  1.00  0.00     0.014 A 
HETATM   31  C20 UNL     1     -18.375  15.973  -7.620  1.00  0.00     0.017 A 
HETATM   32  C21 UNL     1     -17.702  14.837  -7.214  1.00  0.00     0.025 A 
HETATM   33  C22 UNL     1     -17.193  14.609  -5.968  1.00  0.00     0.037 A 
HETATM   34 CL5  UNL     1     -16.330  13.171  -5.497  1.00  0.00    -0.084 Cl
HETATM   35  C23 UNL     1     -17.430  15.641  -5.003  1.00  0.00     0.066 A 
HETATM   36  C24 UNL     1     -18.099  16.741  -5.403  1.00  0.00     0.129 A 
HETATM   37  F1  UNL     1     -18.348  17.752  -4.504  1.00  0.00    -0.205 F 
ENDBRANCH  29  30
ENDBRANCH  19  22
ENDBRANCH  18  19
ENDBRANCH  10  12
ENDBRANCH   5   9
ENDBRANCH   3   4
TORSDOF 8
ENDMDL
MODEL 2
REMARK VINA RESULT: -9.216895309      0.888      1.180
REMARK  8 active torsions:
REMARK  status: ('A' for Active; 'I' for Inactive)
REMARK    1  A    between atoms: C2_3  and  C3_4 
REMARK    2  A    between atoms: N2_5  and  C4_6 
REMARK    3  A    between atoms: N2_5  and  N3_9 
REMARK    4  A    between atoms: C4_6  and  C5_7 
REMARK       I    between atoms: N3_9  and  C6_10 
REMARK    5  A    between atoms: C6_10  and  C7_12 
REMARK    6  A    between atoms: C12_18  and  S1_19 
REMARK    7  A    between atoms: S1_19  and  C13_22 
REMARK    8  A    between atoms: C18_29  and  C19_30 
ROOT
HETATM    1  N1  UNL     1     -24.303  25.590  -7.734  1.00  0.00    -0.197 NA
HETATM    2  C1  UNL     1     -24.455  24.771  -6.934  1.00  0.00     0.064 C 
HETATM    3  C2  UNL     1     -24.588  23.690  -5.973  1.00  0.00     0.171 C 
ENDROOT
BRANCH   3   4
HETATM    4  C3  UNL     1     -23.467  22.678  -6.254  1.00  0.00     0.111 C 
HETATM    5  N2  UNL     1     -23.821  21.379  -6.337  1.00  0.00    -0.237 N 
BRANCH   5   6
HETATM    6  C4  UNL     1     -24.568  20.990  -7.545  1.00  0.00     0.177 C 
BRANCH   6   7
HETATM    7  C5  UNL     1     -23.698  20.970  -8.817  1.00  0.00     0.137 C 
HETATM    8 CL1  UNL     1     -23.976  22.481  -9.742  1.00  0.00    -0.129 Cl
ENDBRANCH   6   7
ENDBRANCH   5   6
BRANCH   5   9
HETATM    9  N3  UNL     1     -23.787  20.369  -5.551  1.00  0.00    -0.280 NA
HETATM   10  C6  UNL     1     -23.779  19.246  -4.687  1.00  0.00     0.347 C 
HETATM   11  O1  UNL     1     -24.658  18.478  -4.444  1.00  0.00    -0.249 OA
BRANCH  10  12
HETATM   12  C7  UNL     1     -22.456  19.022  -4.009  1.00  0.00     0.070 A 
HETATM   13  C8  UNL     1     -22.406  19.756  -2.788  1.00  0.00     0.021 A 
HETATM   14  C9  UNL     1     -21.334  19.506  -1.935  1.00  0.00     0.025 A 
HETATM   15  C10 UNL     1     -20.372  18.611  -2.249  1.00  0.00     0.035 A 
HETATM   16 CL2  UNL     1     -19.051  18.355  -1.119  1.00  0.00    -0.084 Cl
HETATM   17  C11 UNL     1     -20.396  17.887  -3.455  1.00  0.00     0.048 A 
HETATM   18  C12 UNL     1     -21.468  18.119  -4.314  1.00  0.00     0.082 A 
BRANCH  18  19
HETATM   19  S1  UNL     1     -21.285  17.455  -5.962  1.00  0.00     0.208 S 
HETATM   20  O2  UNL     1     -22.624  17.644  -6.642  1.00  0.00    -0.217 OA
HETATM   21  O3  UNL     1     -20.989  16.030  -5.884  1.00  0.00    -0.217 OA
BRANCH  19  22
HETATM   22  C13 UNL     1     -20.095  18.361  -6.867  1.00  0.00     0.077 A 
HETATM   23  C14 UNL     1     -20.515  19.539  -7.541  1.00  0.00     0.050 A 
HETATM   24  C15 UNL     1     -19.635  20.313  -8.225  1.00  0.00     0.057 A 
HETATM   25 CL3  UNL     1     -20.194  21.739  -9.144  1.00  0.00    -0.083 Cl
HETATM   26  C16 UNL     1     -18.333  19.993  -8.287  1.00  0.00     0.056 A 
HETATM   27 CL4  UNL     1     -17.173  20.913  -9.187  1.00  0.00    -0.083 Cl
HETATM   28  C17 UNL     1     -17.894  18.884  -7.663  1.00  0.00     0.039 A 
HETATM   29  C18 UNL     1     -18.799  18.064  -6.949  1.00  0.00     0.001 A 
BRANCH  29  30
HETATM   30  C19 UNL     1     -18.139  16.814  -6.504  1.00  0.00     0.014 A 
HETATM   31  C20 UNL     1     -17.849  16.580  -5.173  1.00  0.00     0.017 A 
HETATM   32  C21 UNL     1     -17.366  15.331  -4.831  1.00  0.00     0.025 A 
HETATM   33  C22 UNL     1     -17.176  14.284  -5.685  1.00  0.00     0.037 A 
HETATM   34 CL5  UNL     1     -16.585  12.714  -5.215  1.00  0.00    -0.084 Cl
HETATM   35  C23 UNL     1     -17.474  14.544  -7.062  1.00  0.00     0.066 A 
HETATM   36  C24 UNL     1     -17.932  15.769  -7.391  1.00  0.00     0.129 A 
HETATM   37  F1  UNL     1     -18.226  16.058  -8.703  1.00  0.00    -0.205 F 
ENDBRANCH  29  30
ENDBRANCH  19  22
ENDBRANCH  18  19
ENDBRANCH  10  12
ENDBRANCH   5   9
ENDBRANCH   3   4
TORSDOF 8
ENDMDL
MODEL 3
REMARK VINA RESULT: -9.150618001      2.452      4.904
REMARK  8 active torsions:
REMARK  status: ('A' for Active; 'I' for Inactive)
REMARK    1  A    between atoms: C2_3  and  C3_4 
REMARK    2  A    between atoms: N2_5  and  C4_6 
REMARK    3  A    between atoms: N2_5  and  N3_9 
REMARK    4  A    between atoms: C4_6  and  C5_7 
REMARK       I    between atoms: N3_9  and  C6_10 
REMARK    5  A    between atoms: C6_10  and  C7_12 
REMARK    6  A    between atoms: C12_18  and  S1_19 
REMARK    7  A    between atoms: S1_19  and  C13_22 
REMARK    8  A    between atoms: C18_29  and  C19_30 
ROOT
HETATM    1  N1  UNL     1     -27.648  21.585  -1.334  1.00  0.00    -0.197 NA
HETATM    2  C1  UNL     1     -27.579  21.271  -2.442  1.00  0.00     0.064 C 
HETATM    3  C2  UNL     1     -27.401  20.884  -3.832  1.00  0.00     0.171 C 
ENDROOT
BRANCH   3   4
HETATM    4  C3  UNL     1     -25.904  20.618  -4.052  1.00  0.00     0.111 C 
HETATM    5  N2  UNL     1     -25.296  21.317  -5.032  1.00  0.00    -0.237 N 
BRANCH   5   6
HETATM    6  C4  UNL     1     -25.071  22.747  -4.759  1.00  0.00     0.177 C 
BRANCH   6   7
HETATM    7  C5  UNL     1     -25.999  23.673  -5.568  1.00  0.00     0.137 C 
HETATM    8 CL1  UNL     1     -25.060  25.092  -6.137  1.00  0.00    -0.129 Cl
ENDBRANCH   6   7
ENDBRANCH   5   6
BRANCH   5   9
HETATM    9  N3  UNL     1     -24.955  21.087  -6.244  1.00  0.00    -0.280 NA
HETATM   10  C6  UNL     1     -24.602  20.814  -7.589  1.00  0.00     0.347 C 
HETATM   11  O1  UNL     1     -25.168  20.139  -8.393  1.00  0.00    -0.249 OA
BRANCH  10  12
HETATM   12  C7  UNL     1     -23.335  21.496  -8.025  1.00  0.00     0.070 A 
HETATM   13  C8  UNL     1     -23.634  22.790  -8.543  1.00  0.00     0.021 A 
HETATM   14  C9  UNL     1     -22.561  23.637  -8.807  1.00  0.00     0.025 A 
HETATM   15  C10 UNL     1     -21.284  23.253  -8.591  1.00  0.00     0.035 A 
HETATM   16 CL2  UNL     1     -19.986  24.380  -8.953  1.00  0.00    -0.084 Cl
HETATM   17  C11 UNL     1     -20.968  21.975  -8.095  1.00  0.00     0.048 A 
HETATM   18  C12 UNL     1     -22.032  21.120  -7.816  1.00  0.00     0.082 A 
BRANCH  18  19
HETATM   19  S1  UNL     1     -21.586  19.414  -7.524  1.00  0.00     0.208 S 
HETATM   20  O2  UNL     1     -20.347  19.156  -8.355  1.00  0.00    -0.217 OA
HETATM   21  O3  UNL     1     -22.659  18.544  -7.989  1.00  0.00    -0.217 OA
BRANCH  19  22
HETATM   22  C13 UNL     1     -21.166  19.162  -5.846  1.00  0.00     0.077 A 
HETATM   23  C14 UNL     1     -21.975  19.772  -4.850  1.00  0.00     0.050 A 
HETATM   24  C15 UNL     1     -21.731  19.581  -3.530  1.00  0.00     0.057 A 
HETATM   25 CL3  UNL     1     -22.699  20.429  -2.290  1.00  0.00    -0.083 Cl
HETATM   26  C16 UNL     1     -20.716  18.807  -3.116  1.00  0.00     0.056 A 
HETATM   27 CL4  UNL     1     -20.324  18.569  -1.445  1.00  0.00    -0.083 Cl
HETATM   28  C17 UNL     1     -19.924  18.212  -4.028  1.00  0.00     0.039 A 
HETATM   29  C18 UNL     1     -20.162  18.403  -5.409  1.00  0.00     0.001 A 
BRANCH  29  30
HETATM   30  C19 UNL     1     -19.070  17.813  -6.218  1.00  0.00     0.014 A 
HETATM   31  C20 UNL     1     -17.864  18.465  -6.397  1.00  0.00     0.017 A 
HETATM   32  C21 UNL     1     -16.853  17.781  -7.044  1.00  0.00     0.025 A 
HETATM   33  C22 UNL     1     -16.920  16.497  -7.500  1.00  0.00     0.037 A 
HETATM   34 CL5  UNL     1     -15.616  15.656  -8.294  1.00  0.00    -0.084 Cl
HETATM   35  C23 UNL     1     -18.178  15.836  -7.315  1.00  0.00     0.066 A 
HETATM   36  C24 UNL     1     -19.164  16.515  -6.695  1.00  0.00     0.129 A 
HETATM   37  F1  UNL     1     -20.387  15.915  -6.502  1.00  0.00    -0.205 F 
ENDBRANCH  29  30
ENDBRANCH  19  22
ENDBRANCH  18  19
ENDBRANCH  10  12
ENDBRANCH   5   9
ENDBRANCH   3   4
TORSDOF 8
ENDMDL
MODEL 4
REMARK VINA RESULT: -9.145431979      1.921      2.646
REMARK  8 active torsions:
REMARK  status: ('A' for Active; 'I' for Inactive)
REMARK    1  A    between atoms: C2_3  and  C3_4 
REMARK    2  A    between atoms: N2_5  and  C4_6 
REMARK    3  A    between atoms: N2_5  and  N3_9 
REMARK    4  A    between atoms: C4_6  and  C5_7 
REMARK       I    between atoms: N3_9  and  C6_10 
REMARK    5  A    between atoms: C6_10  and  C7_12 
REMARK    6  A    between atoms: C12_18  and  S1_19 
REMARK    7  A    between atoms: S1_19  and  C13_22 
REMARK    8  A    between atoms: C18_29  and  C19_30 
ROOT
HETATM    1  N1  UNL     1     -24.664  20.260  -2.150  1.00  0.00    -0.197 NA
HETATM    2  C1  UNL     1     -25.320  20.685  -3.000  1.00  0.00     0.064 C 
HETATM    3  C2  UNL     1     -26.086  21.288  -4.077  1.00  0.00     0.171 C 
ENDROOT
BRANCH   3   4
HETATM    4  C3  UNL     1     -25.213  22.377  -4.717  1.00  0.00     0.111 C 
HETATM    5  N2  UNL     1     -24.499  22.027  -5.807  1.00  0.00    -0.237 N 
BRANCH   5   6
HETATM    6  C4  UNL     1     -25.270  21.824  -7.045  1.00  0.00     0.177 C 
BRANCH   6   7
HETATM    7  C5  UNL     1     -24.995  22.898  -8.116  1.00  0.00     0.137 C 
HETATM    8 CL1  UNL     1     -23.955  22.195  -9.397  1.00  0.00    -0.129 Cl
ENDBRANCH   6   7
ENDBRANCH   5   6
BRANCH   5   9
HETATM    9  N3  UNL     1     -23.286  21.690  -6.037  1.00  0.00    -0.280 NA
HETATM   10  C6  UNL     1     -21.941  21.340  -6.311  1.00  0.00     0.347 C 
HETATM   11  O1  UNL     1     -21.151  21.884  -7.019  1.00  0.00    -0.249 OA
BRANCH  10  12
HETATM   12  C7  UNL     1     -21.482  20.109  -5.579  1.00  0.00     0.070 A 
HETATM   13  C8  UNL     1     -21.532  20.333  -4.173  1.00  0.00     0.021 A 
HETATM   14  C9  UNL     1     -21.332  19.233  -3.342  1.00  0.00     0.025 A 
HETATM   15  C10 UNL     1     -21.093  18.001  -3.842  1.00  0.00     0.035 A 
HETATM   16 CL2  UNL     1     -20.849  16.666  -2.726  1.00  0.00    -0.084 Cl
HETATM   17  C11 UNL     1     -21.026  17.762  -5.226  1.00  0.00     0.048 A 
HETATM   18  C12 UNL     1     -21.234  18.851  -6.071  1.00  0.00     0.082 A 
BRANCH  18  19
HETATM   19  S1  UNL     1     -20.801  18.585  -7.783  1.00  0.00     0.208 S 
HETATM   20  O2  UNL     1     -21.778  19.408  -8.595  1.00  0.00    -0.217 OA
HETATM   21  O3  UNL     1     -20.975  17.177  -8.118  1.00  0.00    -0.217 OA
BRANCH  19  22
HETATM   22  C13 UNL     1     -19.192  19.182  -8.116  1.00  0.00     0.077 A 
HETATM   23  C14 UNL     1     -19.062  20.405  -8.829  1.00  0.00     0.050 A 
HETATM   24  C15 UNL     1     -17.845  20.947  -9.082  1.00  0.00     0.057 A 
HETATM   25 CL3  UNL     1     -17.693  22.436 -10.059  1.00  0.00    -0.083 Cl
HETATM   26  C16 UNL     1     -16.718  20.348  -8.667  1.00  0.00     0.056 A 
HETATM   27 CL4  UNL     1     -15.135  20.966  -9.006  1.00  0.00    -0.083 Cl
HETATM   28  C17 UNL     1     -16.798  19.187  -7.990  1.00  0.00     0.039 A 
HETATM   29  C18 UNL     1     -18.059  18.606  -7.720  1.00  0.00     0.001 A 
BRANCH  29  30
HETATM   30  C19 UNL     1     -17.901  17.254  -7.134  1.00  0.00     0.014 A 
HETATM   31  C20 UNL     1     -17.706  16.137  -7.926  1.00  0.00     0.017 A 
HETATM   32  C21 UNL     1     -17.426  14.942  -7.292  1.00  0.00     0.025 A 
HETATM   33  C22 UNL     1     -17.289  14.762  -5.946  1.00  0.00     0.037 A 
HETATM   34 CL5  UNL     1     -16.913  13.241  -5.182  1.00  0.00    -0.084 Cl
HETATM   35  C23 UNL     1     -17.501  15.926  -5.139  1.00  0.00     0.066 A 
HETATM   36  C24 UNL     1     -17.787  17.086  -5.763  1.00  0.00     0.129 A 
HETATM   37  F1  UNL     1     -18.001  18.225  -5.021  1.00  0.00    -0.205 F 
ENDBRANCH  29  30
ENDBRANCH  19  22
ENDBRANCH  18  19
ENDBRANCH  10  12
ENDBRANCH   5   9
ENDBRANCH   3   4
TORSDOF 8
ENDMDL
MODEL 5
REMARK VINA RESULT: -9.008410723      1.142      1.426
REMARK  8 active torsions:
REMARK  status: ('A' for Active; 'I' for Inactive)
REMARK    1  A    between atoms: C2_3  and  C3_4 
REMARK    2  A    between atoms: N2_5  and  C4_6 
REMARK    3  A    between atoms: N2_5  and  N3_9 
REMARK    4  A    between atoms: C4_6  and  C5_7 
REMARK       I    between atoms: N3_9  and  C6_10 
REMARK    5  A    between atoms: C6_10  and  C7_12 
REMARK    6  A    between atoms: C12_18  and  S1_19 
REMARK    7  A    between atoms: S1_19  and  C13_22 
REMARK    8  A    between atoms: C18_29  and  C19_30 
ROOT
HETATM    1  N1  UNL     1     -22.049  24.758  -9.339  1.00  0.00    -0.197 NA
HETATM    2  C1  UNL     1     -22.005  24.066  -8.416  1.00  0.00     0.064 C 
HETATM    3  C2  UNL     1     -22.035  23.169  -7.273  1.00  0.00     0.171 C 
ENDROOT
BRANCH   3   4
HETATM    4  C3  UNL     1     -23.286  22.289  -7.405  1.00  0.00     0.111 C 
HETATM    5  N2  UNL     1     -23.854  21.856  -6.260  1.00  0.00    -0.237 N 
BRANCH   5   6
HETATM    6  C4  UNL     1     -24.569  22.874  -5.471  1.00  0.00     0.177 C 
BRANCH   6   7
HETATM    7  C5  UNL     1     -25.580  23.687  -6.301  1.00  0.00     0.137 C 
HETATM    8 CL1  UNL     1     -25.035  25.394  -6.381  1.00  0.00    -0.129 Cl
ENDBRANCH   6   7
ENDBRANCH   5   6
BRANCH   5   9
HETATM    9  N3  UNL     1     -23.833  20.771  -5.581  1.00  0.00    -0.280 NA
HETATM   10  C6  UNL     1     -23.839  19.566  -4.838  1.00  0.00     0.347 C 
HETATM   11  O1  UNL     1     -24.718  18.772  -4.698  1.00  0.00    -0.249 OA
BRANCH  10  12
HETATM   12  C7  UNL     1     -22.533  19.280  -4.151  1.00  0.00     0.070 A 
HETATM   13  C8  UNL     1     -22.462  20.000  -2.923  1.00  0.00     0.021 A 
HETATM   14  C9  UNL     1     -21.409  19.697  -2.064  1.00  0.00     0.025 A 
HETATM   15  C10 UNL     1     -20.483  18.765  -2.377  1.00  0.00     0.035 A 
HETATM   16 CL2  UNL     1     -19.184  18.443  -1.239  1.00  0.00    -0.084 Cl
HETATM   17  C11 UNL     1     -20.528  18.053  -3.589  1.00  0.00     0.048 A 
HETATM   18  C12 UNL     1     -21.581  18.337  -4.456  1.00  0.00     0.082 A 
BRANCH  18  19
HETATM   19  S1  UNL     1     -21.413  17.680  -6.108  1.00  0.00     0.208 S 
HETATM   20  O2  UNL     1     -22.681  18.060  -6.842  1.00  0.00    -0.217 OA
HETATM   21  O3  UNL     1     -21.317  16.227  -6.047  1.00  0.00    -0.217 OA
BRANCH  19  22
HETATM   22  C13 UNL     1     -20.070  18.429  -6.939  1.00  0.00     0.077 A 
HETATM   23  C14 UNL     1     -20.298  19.655  -7.620  1.00  0.00     0.050 A 
HETATM   24  C15 UNL     1     -19.291  20.311  -8.248  1.00  0.00     0.057 A 
HETATM   25 CL3  UNL     1     -19.612  21.802  -9.178  1.00  0.00    -0.083 Cl
HETATM   26  C16 UNL     1     -18.040  19.826  -8.247  1.00  0.00     0.056 A 
HETATM   27 CL4  UNL     1     -16.724  20.593  -9.074  1.00  0.00    -0.083 Cl
HETATM   28  C17 UNL     1     -17.781  18.666  -7.614  1.00  0.00     0.039 A 
HETATM   29  C18 UNL     1     -18.820  17.967  -6.957  1.00  0.00     0.001 A 
BRANCH  29  30
HETATM   30  C19 UNL     1     -18.352  16.640  -6.494  1.00  0.00     0.014 A 
HETATM   31  C20 UNL     1     -18.209  15.575  -7.365  1.00  0.00     0.017 A 
HETATM   32  C21 UNL     1     -17.632  14.419  -6.877  1.00  0.00     0.025 A 
HETATM   33  C22 UNL     1     -17.152  14.235  -5.613  1.00  0.00     0.037 A 
HETATM   34 CL5  UNL     1     -16.409  12.768  -5.037  1.00  0.00    -0.084 Cl
HETATM   35  C23 UNL     1     -17.313  15.344  -4.720  1.00  0.00     0.066 A 
HETATM   36  C24 UNL     1     -17.890  16.464  -5.199  1.00  0.00     0.129 A 
HETATM   37  F1  UNL     1     -18.066  17.549  -4.371  1.00  0.00    -0.205 F 
ENDBRANCH  29  30
ENDBRANCH  19  22
ENDBRANCH  18  19
ENDBRANCH  10  12
ENDBRANCH   5   9
ENDBRANCH   3   4
TORSDOF 8
ENDMDL
