MODEL 1
REMARK VINA RESULT: -10.311123330      0.000      0.000
REMARK  7 active torsions:
REMARK  status: ('A' for Active; 'I' for Inactive)
REMARK    1  A    between atoms: C2_2  and  C3_4 
REMARK    2  A    between atoms: C3_4  and  C4_5 
REMARK    3  A    between atoms: C4_5  and  N1_6 
REMARK    4  A    between atoms: C4_5  and  C11_20 
REMARK    5  A    between atoms: N1_6  and  S1_8 
REMARK    6  A    between atoms: S1_8  and  C5_11 
REMARK    7  A    between atoms: C20_33  and  C21_34 
ROOT
HETATM    1  C11 UNL     1     -20.458  17.005  -4.939  1.00  0.00     0.049 A 
HETATM    2  C12 UNL     1     -20.185  15.650  -4.979  1.00  0.00     0.115 A 
HETATM    3  N2  UNL     1     -19.133  15.246  -5.695  1.00  0.00    -0.361 N 
ATOM      4  H2  UNL     1     -18.918  14.249  -5.734  1.00  0.00     0.165 HD
HETATM    5  C13 UNL     1     -18.328  16.126  -6.383  1.00  0.00     0.073 A 
HETATM    6  C14 UNL     1     -17.212  15.641  -7.148  1.00  0.00     0.032 A 
HETATM    7  C15 UNL     1     -17.214  15.726  -8.512  1.00  0.00     0.020 A 
HETATM    8  C16 UNL     1     -16.163  15.267  -9.281  1.00  0.00     0.043 A 
HETATM    9  C17 UNL     1     -15.083  14.707  -8.669  1.00  0.00     0.119 A 
HETATM   10  F2  UNL     1     -14.028  14.247  -9.430  1.00  0.00    -0.206 F 
HETATM   11  C18 UNL     1     -15.043  14.602  -7.297  1.00  0.00     0.085 A 
HETATM   12  C19 UNL     1     -16.123  15.075  -6.536  1.00  0.00     0.131 A 
HETATM   13  F3  UNL     1     -16.017  14.940  -5.194  1.00  0.00    -0.205 F 
HETATM   14  C20 UNL     1     -18.606  17.467  -6.336  1.00  0.00     0.070 A 
HETATM   15  N3  UNL     1     -19.673  17.861  -5.607  1.00  0.00    -0.354 N 
ATOM     16  H3  UNL     1     -19.891  18.856  -5.563  1.00  0.00     0.166 HD
ENDROOT
BRANCH   1  17
HETATM   17  C4  UNL     1     -21.594  17.485  -4.150  1.00  0.00     0.151 C 
BRANCH  17  18
HETATM   18  C3  UNL     1     -21.306  17.356  -2.643  1.00  0.00     0.110 C 
BRANCH  18  19
HETATM   19  C2  UNL     1     -20.483  18.448  -2.099  1.00  0.00     0.125 C 
HETATM   20  C1  UNL     1     -19.044  18.143  -1.829  1.00  0.00     0.091 C 
HETATM   21  O1  UNL     1     -20.870  19.567  -1.850  1.00  0.00    -0.298 OA
ENDBRANCH  18  19
ENDBRANCH  17  18
BRANCH  17  22
HETATM   22  N1  UNL     1     -21.920  18.875  -4.353  1.00  0.00    -0.304 N 
ATOM     23  H1  UNL     1     -21.317  19.611  -3.986  1.00  0.00     0.173 HD
BRANCH  22  24
HETATM   24  S1  UNL     1     -23.304  19.251  -5.201  1.00  0.00     0.262 S 
HETATM   25  O2  UNL     1     -24.560  19.140  -4.322  1.00  0.00    -0.200 OA
HETATM   26  O3  UNL     1     -23.591  18.287  -6.342  1.00  0.00    -0.200 OA
BRANCH  24  27
HETATM   27  C5  UNL     1     -23.374  20.838  -5.899  1.00  0.00     0.119 A 
HETATM   28  C6  UNL     1     -24.354  21.773  -5.675  1.00  0.00     0.030 A 
HETATM   29  C7  UNL     1     -24.313  23.017  -6.322  1.00  0.00     0.027 A 
HETATM   30  C8  UNL     1     -23.302  23.344  -7.194  1.00  0.00     0.059 A 
HETATM   31 CL1  UNL     1     -23.222  24.894  -8.020  1.00  0.00    -0.082 Cl
HETATM   32  C9  UNL     1     -22.325  22.429  -7.427  1.00  0.00     0.095 A 
HETATM   33 CL2  UNL     1     -20.987  22.748  -8.527  1.00  0.00    -0.079 Cl
HETATM   34  C10 UNL     1     -22.368  21.223  -6.798  1.00  0.00     0.163 A 
HETATM   35  F1  UNL     1     -21.378  20.305  -7.039  1.00  0.00    -0.203 F 
ENDBRANCH  24  27
ENDBRANCH  22  24
ENDBRANCH  17  22
ENDBRANCH   1  17
BRANCH  14  36
HETATM   36  C21 UNL     1     -17.757  18.406  -7.046  1.00  0.00    -0.005 A 
HETATM   37  C22 UNL     1     -16.384  18.433  -6.820  1.00  0.00     0.014 A 
HETATM   38  C23 UNL     1     -15.529  19.309  -7.468  1.00  0.00     0.003 A 
HETATM   39  C24 UNL     1     -16.086  20.184  -8.374  1.00  0.00     0.024 A 
HETATM   40  C25 UNL     1     -17.444  20.163  -8.603  1.00  0.00     0.035 A 
HETATM   41 CL3  UNL     1     -18.141  21.284  -9.758  1.00  0.00    -0.084 Cl
HETATM   42  C26 UNL     1     -18.287  19.303  -7.967  1.00  0.00     0.037 A 
ENDBRANCH  14  36
TORSDOF 7
ENDMDL
MODEL 2
REMARK VINA RESULT: -10.184510437      1.217      1.469
REMARK  7 active torsions:
REMARK  status: ('A' for Active; 'I' for Inactive)
REMARK    1  A    between atoms: C2_2  and  C3_4 
REMARK    2  A    between atoms: C3_4  and  C4_5 
REMARK    3  A    between atoms: C4_5  and  N1_6 
REMARK    4  A    between atoms: C4_5  and  C11_20 
REMARK    5  A    between atoms: N1_6  and  S1_8 
REMARK    6  A    between atoms: S1_8  and  C5_11 
REMARK    7  A    between atoms: C20_33  and  C21_34 
ROOT
HETATM    1  C11 UNL     1     -20.784  17.513  -5.422  1.00  0.00     0.049 A 
HETATM    2  C12 UNL     1     -20.597  16.144  -5.386  1.00  0.00     0.115 A 
HETATM    3  N2  UNL     1     -19.499  15.647  -5.961  1.00  0.00    -0.361 N 
ATOM      4  H2  UNL     1     -19.347  14.638  -5.942  1.00  0.00     0.165 HD
HETATM    5  C13 UNL     1     -18.565  16.448  -6.580  1.00  0.00     0.073 A 
HETATM    6  C14 UNL     1     -17.404  15.864  -7.194  1.00  0.00     0.032 A 
HETATM    7  C15 UNL     1     -17.245  15.893  -8.551  1.00  0.00     0.020 A 
HETATM    8  C16 UNL     1     -16.147  15.341  -9.177  1.00  0.00     0.043 A 
HETATM    9  C17 UNL     1     -15.182  14.741  -8.426  1.00  0.00     0.119 A 
HETATM   10  F2  UNL     1     -14.080  14.186  -9.044  1.00  0.00    -0.206 F 
HETATM   11  C18 UNL     1     -15.305  14.689  -7.056  1.00  0.00     0.085 A 
HETATM   12  C19 UNL     1     -16.431  15.258  -6.441  1.00  0.00     0.131 A 
HETATM   13  F3  UNL     1     -16.487  15.171  -5.093  1.00  0.00    -0.205 F 
HETATM   14  C20 UNL     1     -18.759  17.804  -6.610  1.00  0.00     0.070 A 
HETATM   15  N3  UNL     1     -19.873  18.292  -6.023  1.00  0.00    -0.354 N 
ATOM     16  H3  UNL     1     -20.029  19.299  -6.038  1.00  0.00     0.166 HD
ENDROOT
BRANCH   1  17
HETATM   17  C4  UNL     1     -21.967  18.094  -4.787  1.00  0.00     0.151 C 
BRANCH  17  18
HETATM   18  C3  UNL     1     -21.920  17.898  -3.261  1.00  0.00     0.110 C 
BRANCH  18  19
HETATM   19  C2  UNL     1     -21.043  18.852  -2.565  1.00  0.00     0.125 C 
HETATM   20  C1  UNL     1     -19.724  18.335  -2.083  1.00  0.00     0.091 C 
HETATM   21  O1  UNL     1     -21.295  20.016  -2.349  1.00  0.00    -0.298 OA
ENDBRANCH  18  19
ENDBRANCH  17  18
BRANCH  17  22
HETATM   22  N1  UNL     1     -22.115  19.515  -4.980  1.00  0.00    -0.304 N 
ATOM     23  H1  UNL     1     -21.598  20.176  -4.401  1.00  0.00     0.173 HD
BRANCH  22  24
HETATM   24  S1  UNL     1     -23.150  20.053  -6.169  1.00  0.00     0.262 S 
HETATM   25  O2  UNL     1     -24.510  20.479  -5.593  1.00  0.00    -0.200 OA
HETATM   26  O3  UNL     1     -23.521  18.975  -7.176  1.00  0.00    -0.200 OA
BRANCH  24  27
HETATM   27  C5  UNL     1     -22.608  21.407  -7.110  1.00  0.00     0.119 A 
HETATM   28  C6  UNL     1     -21.411  22.062  -6.962  1.00  0.00     0.030 A 
HETATM   29  C7  UNL     1     -21.098  23.165  -7.770  1.00  0.00     0.027 A 
HETATM   30  C8  UNL     1     -21.967  23.626  -8.730  1.00  0.00     0.059 A 
HETATM   31 CL1  UNL     1     -21.604  25.006  -9.758  1.00  0.00    -0.082 Cl
HETATM   32  C9  UNL     1     -23.156  22.990  -8.888  1.00  0.00     0.095 A 
HETATM   33 CL2  UNL     1     -24.341  23.502 -10.086  1.00  0.00    -0.079 Cl
HETATM   34  C10 UNL     1     -23.457  21.920  -8.102  1.00  0.00     0.163 A 
HETATM   35  F1  UNL     1     -24.660  21.283  -8.268  1.00  0.00    -0.203 F 
ENDBRANCH  24  27
ENDBRANCH  22  24
ENDBRANCH  17  22
ENDBRANCH   1  17
BRANCH  14  36
HETATM   36  C21 UNL     1     -17.775  18.659  -7.248  1.00  0.00    -0.005 A 
HETATM   37  C22 UNL     1     -16.422  18.539  -6.940  1.00  0.00     0.014 A 
HETATM   38  C23 UNL     1     -15.443  19.330  -7.516  1.00  0.00     0.003 A 
HETATM   39  C24 UNL     1     -15.849  20.272  -8.434  1.00  0.00     0.024 A 
HETATM   40  C25 UNL     1     -17.186  20.398  -8.744  1.00  0.00     0.035 A 
HETATM   41 CL3  UNL     1     -17.690  21.603  -9.914  1.00  0.00    -0.084 Cl
HETATM   42  C26 UNL     1     -18.151  19.621  -8.178  1.00  0.00     0.037 A 
ENDBRANCH  14  36
TORSDOF 7
ENDMDL
MODEL 3
REMARK VINA RESULT: -10.136069012      1.818      2.106
REMARK  7 active torsions:
REMARK  status: ('A' for Active; 'I' for Inactive)
REMARK    1  A    between atoms: C2_2  and  C3_4 
REMARK    2  A    between atoms: C3_4  and  C4_5 
REMARK    3  A    between atoms: C4_5  and  N1_6 
REMARK    4  A    between atoms: C4_5  and  C11_20 
REMARK    5  A    between atoms: N1_6  and  S1_8 
REMARK    6  A    between atoms: S1_8  and  C5_11 
REMARK    7  A    between atoms: C20_33  and  C21_34 
ROOT
HETATM    1  C11 UNL     1     -20.928  17.847  -6.197  1.00  0.00     0.049 A 
HETATM    2  C12 UNL     1     -20.812  16.472  -6.107  1.00  0.00     0.115 A 
HETATM    3  N2  UNL     1     -19.662  15.915  -6.493  1.00  0.00    -0.361 N 
ATOM      4  H2  UNL     1     -19.561  14.901  -6.432  1.00  0.00     0.165 HD
HETATM    5  C13 UNL     1     -18.606  16.659  -6.971  1.00  0.00     0.073 A 
HETATM    6  C14 UNL     1     -17.391  16.012  -7.383  1.00  0.00     0.032 A 
HETATM    7  C15 UNL     1     -17.020  16.001  -8.698  1.00  0.00     0.020 A 
HETATM    8  C16 UNL     1     -15.864  15.387  -9.133  1.00  0.00     0.043 A 
HETATM    9  C17 UNL     1     -15.058  14.764  -8.228  1.00  0.00     0.119 A 
HETATM   10  F2  UNL     1     -13.899  14.148  -8.655  1.00  0.00    -0.206 F 
HETATM   11  C18 UNL     1     -15.396  14.752  -6.894  1.00  0.00     0.085 A 
HETATM   12  C19 UNL     1     -16.577  15.384  -6.475  1.00  0.00     0.131 A 
HETATM   13  F3  UNL     1     -16.849  15.332  -5.151  1.00  0.00    -0.205 F 
HETATM   14  C20 UNL     1     -18.730  18.021  -7.055  1.00  0.00     0.070 A 
HETATM   15  N3  UNL     1     -19.899  18.571  -6.660  1.00  0.00    -0.354 N 
ATOM     16  H3  UNL     1     -20.004  19.583  -6.717  1.00  0.00     0.166 HD
ENDROOT
BRANCH   1  17
HETATM   17  C4  UNL     1     -22.169  18.493  -5.767  1.00  0.00     0.151 C 
BRANCH  17  18
HETATM   18  C3  UNL     1     -22.219  18.613  -4.233  1.00  0.00     0.110 C 
BRANCH  18  19
HETATM   19  C2  UNL     1     -23.478  19.176  -3.721  1.00  0.00     0.125 C 
HETATM   20  C1  UNL     1     -23.380  20.117  -2.562  1.00  0.00     0.091 C 
HETATM   21  O1  UNL     1     -24.583  18.945  -4.156  1.00  0.00    -0.298 OA
ENDBRANCH  18  19
ENDBRANCH  17  18
BRANCH  17  22
HETATM   22  N1  UNL     1     -22.345  19.838  -6.256  1.00  0.00    -0.304 N 
ATOM     23  H1  UNL     1     -22.138  20.640  -5.661  1.00  0.00     0.173 HD
BRANCH  22  24
HETATM   24  S1  UNL     1     -22.894  20.052  -7.814  1.00  0.00     0.262 S 
HETATM   25  O2  UNL     1     -24.354  19.596  -7.973  1.00  0.00    -0.200 OA
HETATM   26  O3  UNL     1     -22.151  19.206  -8.835  1.00  0.00    -0.200 OA
BRANCH  24  27
HETATM   27  C5  UNL     1     -22.854  21.674  -8.430  1.00  0.00     0.119 A 
HETATM   28  C6  UNL     1     -23.926  22.374  -8.925  1.00  0.00     0.030 A 
HETATM   29  C7  UNL     1     -23.759  23.675  -9.421  1.00  0.00     0.027 A 
HETATM   30  C8  UNL     1     -22.532  24.293  -9.430  1.00  0.00     0.059 A 
HETATM   31 CL1  UNL     1     -22.290  25.922 -10.044  1.00  0.00    -0.082 Cl
HETATM   32  C9  UNL     1     -21.460  23.614  -8.944  1.00  0.00     0.095 A 
HETATM   33 CL2  UNL     1     -19.844  24.313  -8.911  1.00  0.00    -0.079 Cl
HETATM   34  C10 UNL     1     -21.625  22.351  -8.464  1.00  0.00     0.163 A 
HETATM   35  F1  UNL     1     -20.538  21.672  -7.975  1.00  0.00    -0.203 F 
ENDBRANCH  24  27
ENDBRANCH  22  24
ENDBRANCH  17  22
ENDBRANCH   1  17
BRANCH  14  36
HETATM   36  C21 UNL     1     -17.620  18.818  -7.544  1.00  0.00    -0.005 A 
HETATM   37  C22 UNL     1     -16.331  18.617  -7.056  1.00  0.00     0.014 A 
HETATM   38  C23 UNL     1     -15.238  19.350  -7.485  1.00  0.00     0.003 A 
HETATM   39  C24 UNL     1     -15.459  20.316  -8.441  1.00  0.00     0.024 A 
HETATM   40  C25 UNL     1     -16.731  20.521  -8.929  1.00  0.00     0.035 A 
HETATM   41 CL3  UNL     1     -16.999  21.756 -10.145  1.00  0.00    -0.084 Cl
HETATM   42  C26 UNL     1     -17.809  19.802  -8.508  1.00  0.00     0.037 A 
ENDBRANCH  14  36
TORSDOF 7
ENDMDL
MODEL 4
REMARK VINA RESULT: -10.076000852      5.230      8.607
REMARK  7 active torsions:
REMARK  status: ('A' for Active; 'I' for Inactive)
REMARK    1  A    between atoms: C2_2  and  C3_4 
REMARK    2  A    between atoms: C3_4  and  C4_5 
REMARK    3  A    between atoms: C4_5  and  N1_6 
REMARK    4  A    between atoms: C4_5  and  C11_20 
REMARK    5  A    between atoms: N1_6  and  S1_8 
REMARK    6  A    between atoms: S1_8  and  C5_11 
REMARK    7  A    between atoms: C20_33  and  C21_34 
ROOT
HETATM    1  C11 UNL     1     -17.631  20.308  -8.749  1.00  0.00     0.049 A 
HETATM    2  C12 UNL     1     -18.846  20.889  -9.061  1.00  0.00     0.115 A 
HETATM    3  N2  UNL     1     -19.926  20.477  -8.393  1.00  0.00    -0.361 N 
ATOM      4  H2  UNL     1     -20.830  20.896  -8.612  1.00  0.00     0.165 HD
HETATM    5  C13 UNL     1     -19.863  19.506  -7.419  1.00  0.00     0.073 A 
HETATM    6  C14 UNL     1     -21.056  19.089  -6.734  1.00  0.00     0.032 A 
HETATM    7  C15 UNL     1     -21.561  17.833  -6.916  1.00  0.00     0.020 A 
HETATM    8  C16 UNL     1     -22.705  17.397  -6.280  1.00  0.00     0.043 A 
HETATM    9  C17 UNL     1     -23.364  18.243  -5.440  1.00  0.00     0.119 A 
HETATM   10  F2  UNL     1     -24.509  17.816  -4.798  1.00  0.00    -0.206 F 
HETATM   11  C18 UNL     1     -22.889  19.518  -5.229  1.00  0.00     0.085 A 
HETATM   12  C19 UNL     1     -21.723  19.938  -5.888  1.00  0.00     0.131 A 
HETATM   13  F3  UNL     1     -21.314  21.202  -5.636  1.00  0.00    -0.205 F 
HETATM   14  C20 UNL     1     -18.654  18.937  -7.116  1.00  0.00     0.070 A 
HETATM   15  N3  UNL     1     -17.571  19.364  -7.800  1.00  0.00    -0.354 N 
ATOM     16  H3  UNL     1     -16.665  18.949  -7.584  1.00  0.00     0.166 HD
ENDROOT
BRANCH   1  17
HETATM   17  C4  UNL     1     -16.423  20.747  -9.450  1.00  0.00     0.151 C 
BRANCH  17  18
HETATM   18  C3  UNL     1     -15.837  19.604 -10.298  1.00  0.00     0.110 C 
BRANCH  18  19
HETATM   19  C2  UNL     1     -14.896  18.742  -9.565  1.00  0.00     0.125 C 
HETATM   20  C1  UNL     1     -15.323  17.331  -9.313  1.00  0.00     0.091 C 
HETATM   21  O1  UNL     1     -13.810  19.076  -9.150  1.00  0.00    -0.298 OA
ENDBRANCH  18  19
ENDBRANCH  17  18
BRANCH  17  22
HETATM   22  N1  UNL     1     -16.628  21.835 -10.374  1.00  0.00    -0.304 N 
ATOM     23  H1  UNL     1     -17.384  21.801 -11.059  1.00  0.00     0.173 HD
BRANCH  22  24
HETATM   24  S1  UNL     1     -15.604  23.146 -10.299  1.00  0.00     0.262 S 
HETATM   25  O2  UNL     1     -14.724  23.112  -9.039  1.00  0.00    -0.200 OA
HETATM   26  O3  UNL     1     -16.335  24.474 -10.178  1.00  0.00    -0.200 OA
BRANCH  24  27
HETATM   27  C5  UNL     1     -14.498  23.339 -11.623  1.00  0.00     0.119 A 
HETATM   28  C6  UNL     1     -13.135  23.465 -11.521  1.00  0.00     0.030 A 
HETATM   29  C7  UNL     1     -12.349  23.642 -12.668  1.00  0.00     0.027 A 
HETATM   30  C8  UNL     1     -12.905  23.695 -13.924  1.00  0.00     0.059 A 
HETATM   31 CL1  UNL     1     -11.946  23.916 -15.381  1.00  0.00    -0.082 Cl
HETATM   32  C9  UNL     1     -14.253  23.572 -14.042  1.00  0.00     0.095 A 
HETATM   33 CL2  UNL     1     -15.065  23.628 -15.604  1.00  0.00    -0.079 Cl
HETATM   34  C10 UNL     1     -15.013  23.400 -12.926  1.00  0.00     0.163 A 
HETATM   35  F1  UNL     1     -16.373  23.278 -13.054  1.00  0.00    -0.203 F 
ENDBRANCH  24  27
ENDBRANCH  22  24
ENDBRANCH  17  22
ENDBRANCH   1  17
BRANCH  14  36
HETATM   36  C21 UNL     1     -18.573  17.921  -6.082  1.00  0.00    -0.005 A 
HETATM   37  C22 UNL     1     -18.825  18.241  -4.750  1.00  0.00     0.014 A 
HETATM   38  C23 UNL     1     -18.759  17.313  -3.725  1.00  0.00     0.003 A 
HETATM   39  C24 UNL     1     -18.429  16.020  -4.062  1.00  0.00     0.024 A 
HETATM   40  C25 UNL     1     -18.178  15.695  -5.377  1.00  0.00     0.035 A 
HETATM   41 CL3  UNL     1     -17.757  14.044  -5.792  1.00  0.00    -0.084 Cl
HETATM   42  C26 UNL     1     -18.242  16.606  -6.388  1.00  0.00     0.037 A 
ENDBRANCH  14  36
TORSDOF 7
ENDMDL
MODEL 5
REMARK VINA RESULT: -10.023631194      1.694      2.078
REMARK  7 active torsions:
REMARK  status: ('A' for Active; 'I' for Inactive)
REMARK    1  A    between atoms: C2_2  and  C3_4 
REMARK    2  A    between atoms: C3_4  and  C4_5 
REMARK    3  A    between atoms: C4_5  and  N1_6 
REMARK    4  A    between atoms: C4_5  and  C11_20 
REMARK    5  A    between atoms: N1_6  and  S1_8 
REMARK    6  A    between atoms: S1_8  and  C5_11 
REMARK    7  A    between atoms: C20_33  and  C21_34 
ROOT
HETATM    1  C11 UNL     1     -20.678  17.622  -5.404  1.00  0.00     0.049 A 
HETATM    2  C12 UNL     1     -20.515  16.250  -5.365  1.00  0.00     0.115 A 
HETATM    3  N2  UNL     1     -19.434  15.732  -5.952  1.00  0.00    -0.361 N 
ATOM      4  H2  UNL     1     -19.299  14.721  -5.931  1.00  0.00     0.165 HD
HETATM    5  C13 UNL     1     -18.494  16.514  -6.586  1.00  0.00     0.073 A 
HETATM    6  C14 UNL     1     -17.351  15.907  -7.213  1.00  0.00     0.032 A 
HETATM    7  C15 UNL     1     -17.209  15.929  -8.571  1.00  0.00     0.020 A 
HETATM    8  C16 UNL     1     -16.129  15.355  -9.209  1.00  0.00     0.043 A 
HETATM    9  C17 UNL     1     -15.165  14.741  -8.468  1.00  0.00     0.119 A 
HETATM   10  F2  UNL     1     -14.081  14.165  -9.098  1.00  0.00    -0.206 F 
HETATM   11  C18 UNL     1     -15.271  14.696  -7.096  1.00  0.00     0.085 A 
HETATM   12  C19 UNL     1     -16.379  15.287  -6.470  1.00  0.00     0.131 A 
HETATM   13  F3  UNL     1     -16.420  15.206  -5.120  1.00  0.00    -0.205 F 
HETATM   14  C20 UNL     1     -18.664  17.873  -6.619  1.00  0.00     0.070 A 
HETATM   15  N3  UNL     1     -19.762  18.383  -6.020  1.00  0.00    -0.354 N 
ATOM     16  H3  UNL     1     -19.900  19.393  -6.037  1.00  0.00     0.166 HD
ENDROOT
BRANCH   1  17
HETATM   17  C4  UNL     1     -21.844  18.226  -4.756  1.00  0.00     0.151 C 
BRANCH  17  18
HETATM   18  C3  UNL     1     -21.862  17.901  -3.252  1.00  0.00     0.110 C 
BRANCH  18  19
HETATM   19  C2  UNL     1     -21.057  18.823  -2.434  1.00  0.00     0.125 C 
HETATM   20  C1  UNL     1     -19.713  18.339  -1.990  1.00  0.00     0.091 C 
HETATM   21  O1  UNL     1     -21.389  19.934  -2.091  1.00  0.00    -0.298 OA
ENDBRANCH  18  19
ENDBRANCH  17  18
BRANCH  17  22
HETATM   22  N1  UNL     1     -21.893  19.665  -4.832  1.00  0.00    -0.304 N 
ATOM     23  H1  UNL     1     -21.563  20.239  -4.055  1.00  0.00     0.173 HD
BRANCH  22  24
HETATM   24  S1  UNL     1     -22.501  20.369  -6.213  1.00  0.00     0.262 S 
HETATM   25  O2  UNL     1     -23.278  19.359  -7.074  1.00  0.00    -0.200 OA
HETATM   26  O3  UNL     1     -21.421  20.873  -7.157  1.00  0.00    -0.200 OA
BRANCH  24  27
HETATM   27  C5  UNL     1     -23.587  21.704  -5.986  1.00  0.00     0.119 A 
HETATM   28  C6  UNL     1     -23.437  22.961  -6.515  1.00  0.00     0.030 A 
HETATM   29  C7  UNL     1     -24.373  23.968  -6.236  1.00  0.00     0.027 A 
HETATM   30  C8  UNL     1     -25.464  23.737  -5.432  1.00  0.00     0.059 A 
HETATM   31 CL1  UNL     1     -26.655  24.976  -5.063  1.00  0.00    -0.082 Cl
HETATM   32  C9  UNL     1     -25.626  22.497  -4.900  1.00  0.00     0.095 A 
HETATM   33 CL2  UNL     1     -26.987  22.097  -3.856  1.00  0.00    -0.079 Cl
HETATM   34  C10 UNL     1     -24.715  21.523  -5.173  1.00  0.00     0.163 A 
HETATM   35  F1  UNL     1     -24.886  20.275  -4.631  1.00  0.00    -0.203 F 
ENDBRANCH  24  27
ENDBRANCH  22  24
ENDBRANCH  17  22
ENDBRANCH   1  17
BRANCH  14  36
HETATM   36  C21 UNL     1     -17.674  18.709  -7.273  1.00  0.00    -0.005 A 
HETATM   37  C22 UNL     1     -16.323  18.591  -6.955  1.00  0.00     0.014 A 
HETATM   38  C23 UNL     1     -15.338  19.363  -7.545  1.00  0.00     0.003 A 
HETATM   39  C24 UNL     1     -15.736  20.285  -8.488  1.00  0.00     0.024 A 
HETATM   40  C25 UNL     1     -17.070  20.407  -8.808  1.00  0.00     0.035 A 
HETATM   41 CL3  UNL     1     -17.564  21.585 -10.010  1.00  0.00    -0.084 Cl
HETATM   42  C26 UNL     1     -18.042  19.649  -8.229  1.00  0.00     0.037 A 
ENDBRANCH  14  36
TORSDOF 7
ENDMDL
