MODEL 1
REMARK VINA RESULT: -7.438082853      0.000      0.000
REMARK  9 active torsions:
REMARK  status: ('A' for Active; 'I' for Inactive)
REMARK    1  A    between atoms: C2_2  and  C3_3 
REMARK    2  A    between atoms: C3_3  and  C4_4 
REMARK    3  A    between atoms: C3_3  and  N4_17 
REMARK    4  A    between atoms: C4_4  and  C5_5 
REMARK    5  A    between atoms: C7_11  and  N3_12 
REMARK    6  A    between atoms: N3_12  and  C8_14 
REMARK    7  A    between atoms: C8_14  and  C9_15 
REMARK    8  A    between atoms: N4_17  and  C10_19 
REMARK    9  A    between atoms: C10_19  and  C11_20 
ROOT
HETATM    1  C3  UNL     1       6.592  24.953  30.750  1.00  0.00     0.105 C 
ENDROOT
BRANCH   1   2
HETATM    2  C2  UNL     1       5.790  24.883  29.546  1.00  0.00    -0.012 C 
HETATM    3  C1  UNL     1       6.123  25.812  28.606  1.00  0.00     0.009 C 
ENDBRANCH   1   2
BRANCH   1   4
HETATM    4  C4  UNL     1       5.823  25.810  31.774  1.00  0.00     0.089 C 
BRANCH   4   5
HETATM    5  C5  UNL     1       4.848  25.096  32.598  1.00  0.00     0.056 A 
HETATM    6  N1  UNL     1       4.738  23.880  33.068  1.00  0.00    -0.353 N 
HETATM    7  C6  UNL     1       3.651  23.704  33.810  1.00  0.00     0.182 A 
ATOM      8  H1  UNL     1       5.418  23.143  32.884  1.00  0.00     0.166 HD
HETATM    9  N2  UNL     1       3.035  24.895  33.806  1.00  0.00    -0.337 N 
HETATM   10  C7  UNL     1       3.710  25.789  33.088  1.00  0.00     0.125 A 
ATOM     11  H2  UNL     1       2.160  25.090  34.290  1.00  0.00     0.168 HD
BRANCH  10  12
HETATM   12  N3  UNL     1       3.504  27.158  32.913  1.00  0.00    -0.368 N 
ATOM     13  H3  UNL     1       4.011  27.563  32.125  1.00  0.00     0.161 HD
BRANCH  12  14
HETATM   14  C8  UNL     1       2.700  28.101  33.653  1.00  0.00     0.190 C 
BRANCH  14  15
HETATM   15  C9  UNL     1       1.840  28.853  32.745  1.00  0.00     0.250 C 
HETATM   16  O1  UNL     1       0.628  28.817  32.736  1.00  0.00    -0.305 OA
ENDBRANCH  14  15
ENDBRANCH  12  14
ENDBRANCH  10  12
ENDBRANCH   4   5
ENDBRANCH   1   4
BRANCH   1  17
HETATM   17  N4  UNL     1       7.888  25.294  30.851  1.00  0.00    -0.407 N 
ATOM     18  H4  UNL     1       8.151  26.134  31.366  1.00  0.00     0.154 HD
BRANCH  17  19
HETATM   19  C10 UNL     1       8.910  24.480  30.237  1.00  0.00     0.194 C 
BRANCH  19  20
HETATM   20  C11 UNL     1       9.901  25.515  29.748  1.00  0.00     0.130 A 
HETATM   21  N5  UNL     1      11.180  25.475  29.502  1.00  0.00    -0.271 N 
HETATM   22  N6  UNL     1      11.612  26.726  29.220  1.00  0.00    -0.227 N 
ATOM     23  H5  UNL     1      11.761  24.636  29.518  1.00  0.00     0.190 HD
HETATM   24  N7  UNL     1      10.595  27.545  29.287  1.00  0.00    -0.227 N 
ATOM     25  H6  UNL     1      12.571  26.988  28.991  1.00  0.00     0.210 HD
HETATM   26  N8  UNL     1       9.541  26.840  29.605  1.00  0.00    -0.271 N 
ATOM     27  H7  UNL     1      10.620  28.551  29.123  1.00  0.00     0.210 HD
ATOM     28  H8  UNL     1       8.599  27.211  29.727  1.00  0.00     0.190 HD
ENDBRANCH  19  20
ENDBRANCH  17  19
ENDBRANCH   1  17
TORSDOF 9
ENDMDL
MODEL 2
REMARK VINA RESULT: -7.215177475      3.453      7.651
REMARK  9 active torsions:
REMARK  status: ('A' for Active; 'I' for Inactive)
REMARK    1  A    between atoms: C2_2  and  C3_3 
REMARK    2  A    between atoms: C3_3  and  C4_4 
REMARK    3  A    between atoms: C3_3  and  N4_17 
REMARK    4  A    between atoms: C4_4  and  C5_5 
REMARK    5  A    between atoms: C7_11  and  N3_12 
REMARK    6  A    between atoms: N3_12  and  C8_14 
REMARK    7  A    between atoms: C8_14  and  C9_15 
REMARK    8  A    between atoms: N4_17  and  C10_19 
REMARK    9  A    between atoms: C10_19  and  C11_20 
ROOT
HETATM    1  C3  UNL     1       6.639  26.011  30.416  1.00  0.00     0.105 C 
ENDROOT
BRANCH   1   2
HETATM    2  C2  UNL     1       5.722  25.532  29.402  1.00  0.00    -0.012 C 
HETATM    3  C1  UNL     1       5.940  24.240  29.027  1.00  0.00     0.009 C 
ENDBRANCH   1   2
BRANCH   1   4
HETATM    4  C4  UNL     1       8.019  25.391  30.128  1.00  0.00     0.089 C 
BRANCH   4   5
HETATM    5  C5  UNL     1       9.100  26.339  29.860  1.00  0.00     0.056 A 
HETATM    6  N1  UNL     1       9.279  27.622  30.040  1.00  0.00    -0.353 N 
HETATM    7  C6  UNL     1      10.476  28.042  29.646  1.00  0.00     0.182 A 
ATOM      8  H1  UNL     1       8.572  28.237  30.441  1.00  0.00     0.166 HD
HETATM    9  N2  UNL     1      11.092  26.944  29.187  1.00  0.00    -0.337 N 
HETATM   10  C7  UNL     1      10.312  25.870  29.290  1.00  0.00     0.125 A 
ATOM     11  H2  UNL     1      12.038  26.932  28.807  1.00  0.00     0.168 HD
BRANCH  10  12
HETATM   12  N3  UNL     1      10.583  24.522  29.049  1.00  0.00    -0.368 N 
ATOM     13  H3  UNL     1      10.489  23.921  29.869  1.00  0.00     0.161 HD
BRANCH  12  14
HETATM   14  C8  UNL     1      10.973  23.831  27.843  1.00  0.00     0.190 C 
BRANCH  14  15
HETATM   15  C9  UNL     1      10.854  24.719  26.692  1.00  0.00     0.250 C 
HETATM   16  O1  UNL     1      11.692  25.520  26.335  1.00  0.00    -0.305 OA
ENDBRANCH  14  15
ENDBRANCH  12  14
ENDBRANCH  10  12
ENDBRANCH   4   5
ENDBRANCH   1   4
BRANCH   1  17
HETATM   17  N4  UNL     1       6.470  25.985  31.749  1.00  0.00    -0.407 N 
ATOM     18  H4  UNL     1       6.460  26.860  32.274  1.00  0.00     0.154 HD
BRANCH  17  19
HETATM   19  C10 UNL     1       6.304  24.731  32.444  1.00  0.00     0.194 C 
BRANCH  19  20
HETATM   20  C11 UNL     1       4.959  24.905  33.116  1.00  0.00     0.130 A 
HETATM   21  N5  UNL     1       4.350  25.935  33.633  1.00  0.00    -0.271 N 
HETATM   22  N6  UNL     1       3.215  25.514  34.238  1.00  0.00    -0.227 N 
ATOM     23  H5  UNL     1       4.676  26.901  33.588  1.00  0.00     0.190 HD
HETATM   24  N7  UNL     1       3.119  24.218  34.092  1.00  0.00    -0.227 N 
ATOM     25  H6  UNL     1       2.546  26.109  34.727  1.00  0.00     0.210 HD
HETATM   26  N8  UNL     1       4.161  23.818  33.414  1.00  0.00    -0.271 N 
ATOM     27  H7  UNL     1       2.366  23.627  34.445  1.00  0.00     0.210 HD
ATOM     28  H8  UNL     1       4.355  22.853  33.145  1.00  0.00     0.190 HD
ENDBRANCH  19  20
ENDBRANCH  17  19
ENDBRANCH   1  17
TORSDOF 9
ENDMDL
MODEL 3
REMARK VINA RESULT: -7.129652568      3.484      7.736
REMARK  9 active torsions:
REMARK  status: ('A' for Active; 'I' for Inactive)
REMARK    1  A    between atoms: C2_2  and  C3_3 
REMARK    2  A    between atoms: C3_3  and  C4_4 
REMARK    3  A    between atoms: C3_3  and  N4_17 
REMARK    4  A    between atoms: C4_4  and  C5_5 
REMARK    5  A    between atoms: C7_11  and  N3_12 
REMARK    6  A    between atoms: N3_12  and  C8_14 
REMARK    7  A    between atoms: C8_14  and  C9_15 
REMARK    8  A    between atoms: N4_17  and  C10_19 
REMARK    9  A    between atoms: C10_19  and  C11_20 
ROOT
HETATM    1  C3  UNL     1       6.562  25.861  30.315  1.00  0.00     0.105 C 
ENDROOT
BRANCH   1   2
HETATM    2  C2  UNL     1       5.817  25.496  29.127  1.00  0.00    -0.012 C 
HETATM    3  C1  UNL     1       5.491  24.175  29.064  1.00  0.00     0.009 C 
ENDBRANCH   1   2
BRANCH   1   4
HETATM    4  C4  UNL     1       8.015  25.389  30.117  1.00  0.00     0.089 C 
BRANCH   4   5
HETATM    5  C5  UNL     1       8.958  26.408  29.656  1.00  0.00     0.056 A 
HETATM    6  N1  UNL     1       9.425  27.531  30.138  1.00  0.00    -0.353 N 
HETATM    7  C6  UNL     1      10.309  28.114  29.337  1.00  0.00     0.182 A 
ATOM      8  H1  UNL     1       9.140  27.919  31.036  1.00  0.00     0.166 HD
HETATM    9  N2  UNL     1      10.404  27.299  28.277  1.00  0.00    -0.337 N 
HETATM   10  C7  UNL     1       9.610  26.240  28.406  1.00  0.00     0.125 A 
ATOM     11  H2  UNL     1      11.008  27.470  27.474  1.00  0.00     0.168 HD
BRANCH  10  12
HETATM   12  N3  UNL     1       9.481  25.097  27.615  1.00  0.00    -0.368 N 
ATOM     13  H3  UNL     1       8.535  24.928  27.271  1.00  0.00     0.161 HD
BRANCH  12  14
HETATM   14  C8  UNL     1      10.452  24.113  27.200  1.00  0.00     0.190 C 
BRANCH  14  15
HETATM   15  C9  UNL     1      11.712  24.318  27.907  1.00  0.00     0.250 C 
HETATM   16  O1  UNL     1      12.614  25.040  27.538  1.00  0.00    -0.305 OA
ENDBRANCH  14  15
ENDBRANCH  12  14
ENDBRANCH  10  12
ENDBRANCH   4   5
ENDBRANCH   1   4
BRANCH   1  17
HETATM   17  N4  UNL     1       6.239  25.604  31.594  1.00  0.00    -0.407 N 
ATOM     18  H4  UNL     1       6.795  24.938  32.132  1.00  0.00     0.154 HD
BRANCH  17  19
HETATM   19  C10 UNL     1       5.113  26.262  32.213  1.00  0.00     0.194 C 
BRANCH  19  20
HETATM   20  C11 UNL     1       4.495  25.150  33.033  1.00  0.00     0.130 A 
HETATM   21  N5  UNL     1       4.687  23.862  33.071  1.00  0.00    -0.271 N 
HETATM   22  N6  UNL     1       3.763  23.306  33.889  1.00  0.00    -0.227 N 
ATOM     23  H5  UNL     1       5.415  23.355  32.568  1.00  0.00     0.190 HD
HETATM   24  N7  UNL     1       2.997  24.254  34.362  1.00  0.00    -0.227 N 
ATOM     25  H6  UNL     1       3.677  22.311  34.102  1.00  0.00     0.210 HD
HETATM   26  N8  UNL     1       3.417  25.386  33.862  1.00  0.00    -0.271 N 
ATOM     27  H7  UNL     1       2.214  24.132  35.004  1.00  0.00     0.210 HD
ATOM     28  H8  UNL     1       3.012  26.302  34.056  1.00  0.00     0.190 HD
ENDBRANCH  19  20
ENDBRANCH  17  19
ENDBRANCH   1  17
TORSDOF 9
ENDMDL
MODEL 4
REMARK VINA RESULT: -6.665120223      2.215      3.246
REMARK  9 active torsions:
REMARK  status: ('A' for Active; 'I' for Inactive)
REMARK    1  A    between atoms: C2_2  and  C3_3 
REMARK    2  A    between atoms: C3_3  and  C4_4 
REMARK    3  A    between atoms: C3_3  and  N4_17 
REMARK    4  A    between atoms: C4_4  and  C5_5 
REMARK    5  A    between atoms: C7_11  and  N3_12 
REMARK    6  A    between atoms: N3_12  and  C8_14 
REMARK    7  A    between atoms: C8_14  and  C9_15 
REMARK    8  A    between atoms: N4_17  and  C10_19 
REMARK    9  A    between atoms: C10_19  and  C11_20 
ROOT
HETATM    1  C3  UNL     1       6.724  24.493  30.840  1.00  0.00     0.105 C 
ENDROOT
BRANCH   1   2
HETATM    2  C2  UNL     1       5.605  24.864  30.000  1.00  0.00    -0.012 C 
HETATM    3  C1  UNL     1       5.946  25.655  28.944  1.00  0.00     0.009 C 
ENDBRANCH   1   2
BRANCH   1   4
HETATM    4  C4  UNL     1       6.218  24.433  32.294  1.00  0.00     0.089 C 
BRANCH   4   5
HETATM    5  C5  UNL     1       5.048  25.258  32.595  1.00  0.00     0.056 A 
HETATM    6  N1  UNL     1       4.670  26.477  32.310  1.00  0.00    -0.353 N 
HETATM    7  C6  UNL     1       3.475  26.782  32.804  1.00  0.00     0.182 A 
ATOM      8  H1  UNL     1       5.235  27.128  31.765  1.00  0.00     0.166 HD
HETATM    9  N2  UNL     1       3.075  25.674  33.443  1.00  0.00    -0.337 N 
HETATM   10  C7  UNL     1       3.984  24.706  33.355  1.00  0.00     0.125 A 
ATOM     11  H2  UNL     1       2.187  25.584  33.936  1.00  0.00     0.168 HD
BRANCH  10  12
HETATM   12  N3  UNL     1       3.935  23.371  33.761  1.00  0.00    -0.368 N 
ATOM     13  H3  UNL     1       4.729  22.809  33.454  1.00  0.00     0.161 HD
BRANCH  12  14
HETATM   14  C8  UNL     1       2.956  22.650  34.539  1.00  0.00     0.190 C 
BRANCH  14  15
HETATM   15  C9  UNL     1       3.580  21.510  35.203  1.00  0.00     0.250 C 
HETATM   16  O1  UNL     1       4.667  21.521  35.741  1.00  0.00    -0.305 OA
ENDBRANCH  14  15
ENDBRANCH  12  14
ENDBRANCH  10  12
ENDBRANCH   4   5
ENDBRANCH   1   4
BRANCH   1  17
HETATM   17  N4  UNL     1       7.944  25.057  30.875  1.00  0.00    -0.407 N 
ATOM     18  H4  UNL     1       8.074  25.951  31.348  1.00  0.00     0.154 HD
BRANCH  17  19
HETATM   19  C10 UNL     1       9.071  24.407  30.248  1.00  0.00     0.194 C 
BRANCH  19  20
HETATM   20  C11 UNL     1       9.886  25.580  29.746  1.00  0.00     0.130 A 
HETATM   21  N5  UNL     1      11.146  25.723  29.446  1.00  0.00    -0.271 N 
HETATM   22  N6  UNL     1      11.387  27.028  29.180  1.00  0.00    -0.227 N 
ATOM     23  H5  UNL     1      11.838  24.974  29.417  1.00  0.00     0.190 HD
HETATM   24  N7  UNL     1      10.270  27.696  29.311  1.00  0.00    -0.227 N 
ATOM     25  H6  UNL     1      12.290  27.426  28.919  1.00  0.00     0.210 HD
HETATM   26  N8  UNL     1       9.339  26.844  29.652  1.00  0.00    -0.271 N 
ATOM     27  H7  UNL     1      10.148  28.698  29.172  1.00  0.00     0.210 HD
ATOM     28  H8  UNL     1       8.361  27.078  29.822  1.00  0.00     0.190 HD
ENDBRANCH  19  20
ENDBRANCH  17  19
ENDBRANCH   1  17
TORSDOF 9
ENDMDL
MODEL 5
REMARK VINA RESULT: -6.615152663      4.473      8.639
REMARK  9 active torsions:
REMARK  status: ('A' for Active; 'I' for Inactive)
REMARK    1  A    between atoms: C2_2  and  C3_3 
REMARK    2  A    between atoms: C3_3  and  C4_4 
REMARK    3  A    between atoms: C3_3  and  N4_17 
REMARK    4  A    between atoms: C4_4  and  C5_5 
REMARK    5  A    between atoms: C7_11  and  N3_12 
REMARK    6  A    between atoms: N3_12  and  C8_14 
REMARK    7  A    between atoms: C8_14  and  C9_15 
REMARK    8  A    between atoms: N4_17  and  C10_19 
REMARK    9  A    between atoms: C10_19  and  C11_20 
ROOT
HETATM    1  C3  UNL     1       9.623  25.869  29.769  1.00  0.00     0.105 C 
ENDROOT
BRANCH   1   2
HETATM    2  C2  UNL     1       9.785  27.289  29.537  1.00  0.00    -0.012 C 
HETATM    3  C1  UNL     1       9.967  27.618  28.227  1.00  0.00     0.009 C 
ENDBRANCH   1   2
BRANCH   1   4
HETATM    4  C4  UNL     1      10.530  25.127  28.769  1.00  0.00     0.089 C 
BRANCH   4   5
HETATM    5  C5  UNL     1      11.962  25.157  29.064  1.00  0.00     0.056 A 
HETATM    6  N1  UNL     1      12.692  25.100  30.149  1.00  0.00    -0.353 N 
HETATM    7  C6  UNL     1      13.996  25.143  29.903  1.00  0.00     0.182 A 
ATOM      8  H1  UNL     1      12.298  25.030  31.087  1.00  0.00     0.166 HD
HETATM    9  N2  UNL     1      14.092  25.233  28.569  1.00  0.00    -0.337 N 
HETATM   10  C7  UNL     1      12.892  25.245  27.995  1.00  0.00     0.125 A 
ATOM     11  H2  UNL     1      14.974  25.286  28.060  1.00  0.00     0.168 HD
BRANCH  10  12
HETATM   12  N3  UNL     1      12.527  25.207  26.648  1.00  0.00    -0.368 N 
ATOM     13  H3  UNL     1      12.360  24.269  26.284  1.00  0.00     0.161 HD
BRANCH  12  14
HETATM   14  C8  UNL     1      12.346  26.264  25.682  1.00  0.00     0.190 C 
BRANCH  14  15
HETATM   15  C9  UNL     1      13.495  27.164  25.697  1.00  0.00     0.250 C 
HETATM   16  O1  UNL     1      14.656  26.818  25.667  1.00  0.00    -0.305 OA
ENDBRANCH  14  15
ENDBRANCH  12  14
ENDBRANCH  10  12
ENDBRANCH   4   5
ENDBRANCH   1   4
BRANCH   1  17
HETATM   17  N4  UNL     1       8.473  25.177  29.839  1.00  0.00    -0.407 N 
ATOM     18  H4  UNL     1       8.498  24.159  29.890  1.00  0.00     0.154 HD
BRANCH  17  19
HETATM   19  C10 UNL     1       7.203  25.864  29.844  1.00  0.00     0.194 C 
BRANCH  19  20
HETATM   20  C11 UNL     1       6.586  25.400  31.147  1.00  0.00     0.130 A 
HETATM   21  N5  UNL     1       6.320  24.222  31.635  1.00  0.00    -0.271 N 
HETATM   22  N6  UNL     1       5.631  24.372  32.791  1.00  0.00    -0.227 N 
ATOM     23  H5  UNL     1       6.588  23.331  31.215  1.00  0.00     0.190 HD
HETATM   24  N7  UNL     1       5.474  25.649  33.021  1.00  0.00    -0.227 N 
ATOM     25  H6  UNL     1       5.292  23.614  33.384  1.00  0.00     0.210 HD
HETATM   26  N8  UNL     1       6.044  26.301  32.042  1.00  0.00    -0.271 N 
ATOM     27  H7  UNL     1       4.993  26.062  33.820  1.00  0.00     0.210 HD
ATOM     28  H8  UNL     1       6.082  27.316  31.954  1.00  0.00     0.190 HD
ENDBRANCH  19  20
ENDBRANCH  17  19
ENDBRANCH   1  17
TORSDOF 9
ENDMDL
