MODEL 1
REMARK VINA RESULT: -5.035677127      0.000      0.000
REMARK  10 active torsions:
REMARK  status: ('A' for Active; 'I' for Inactive)
REMARK    1  A    between atoms: C2_2  and  C3_3 
REMARK    2  A    between atoms: C3_3  and  N1_4 
REMARK    3  A    between atoms: N1_4  and  C4_5 
REMARK    4  A    between atoms: N1_4  and  C6_9 
REMARK    5  A    between atoms: C4_5  and  C5_6 
REMARK    6  A    between atoms: C5_6  and  O1_7 
REMARK    7  A    between atoms: C9_20  and  N6_21 
REMARK    8  A    between atoms: N6_21  and  C10_23 
REMARK    9  A    between atoms: C10_23  and  C11_24 
REMARK   10  A    between atoms: C11_24  and  N7_25 
ROOT
HETATM    1  C6  UNL     1       2.643  27.221  33.768  1.00  0.00     0.136 A 
HETATM    2  N2  UNL     1       1.868  27.118  34.914  1.00  0.00    -0.283 N 
ATOM      3  H2  UNL     1       1.323  27.880  35.316  1.00  0.00     0.188 HD
HETATM    4  N3  UNL     1       1.932  25.917  35.406  1.00  0.00    -0.283 N 
ATOM      5  H3  UNL     1       1.457  25.577  36.243  1.00  0.00     0.188 HD
HETATM    6  C7  UNL     1       2.748  25.202  34.596  1.00  0.00     0.138 A 
HETATM    7  N4  UNL     1       3.135  23.931  34.671  1.00  0.00    -0.337 N 
ATOM      8  H4  UNL     1       2.807  23.333  35.429  1.00  0.00     0.168 HD
HETATM    9  C8  UNL     1       3.964  23.450  33.732  1.00  0.00     0.183 A 
HETATM   10  N5  UNL     1       4.415  24.199  32.724  1.00  0.00    -0.338 N 
ATOM     11  H5  UNL     1       5.043  23.793  32.030  1.00  0.00     0.168 HD
HETATM   12  C9  UNL     1       4.040  25.499  32.619  1.00  0.00     0.120 A 
HETATM   13  C12 UNL     1       3.206  26.009  33.555  1.00  0.00     0.098 A 
ENDROOT
BRANCH   1  14
HETATM   14  N1  UNL     1       2.769  28.445  33.086  1.00  0.00    -0.360 N 
BRANCH  14  15
HETATM   15  C3  UNL     1       3.784  29.373  33.500  1.00  0.00     0.151 C 
BRANCH  15  16
HETATM   16  C2  UNL     1       3.090  30.502  34.180  1.00  0.00    -0.017 C 
HETATM   17  C1  UNL     1       3.550  31.755  34.126  1.00  0.00     0.008 C 
ENDBRANCH  15  16
ENDBRANCH  14  15
BRANCH  14  18
HETATM   18  C4  UNL     1       1.861  28.802  32.042  1.00  0.00     0.151 C 
BRANCH  18  19
HETATM   19  C5  UNL     1       0.551  29.376  32.435  1.00  0.00     0.183 C 
BRANCH  19  20
HETATM   20  O1  UNL     1      -0.192  28.496  33.206  1.00  0.00    -0.399 OA
ATOM     21  H1  UNL     1       0.332  27.771  33.525  1.00  0.00     0.209 HD
ENDBRANCH  19  20
ENDBRANCH  18  19
ENDBRANCH  14  18
ENDBRANCH   1  14
BRANCH  12  22
HETATM   22  N6  UNL     1       4.498  26.227  31.506  1.00  0.00    -0.374 N 
ATOM     23  H6  UNL     1       3.925  26.982  31.130  1.00  0.00     0.161 HD
BRANCH  22  24
HETATM   24  C10 UNL     1       5.767  25.920  30.884  1.00  0.00     0.148 C 
BRANCH  24  25
HETATM   25  C11 UNL     1       5.666  25.474  29.458  1.00  0.00     0.249 C 
BRANCH  25  26
HETATM   26  N7  UNL     1       5.546  24.029  29.337  1.00  0.00    -0.078 N 
ATOM     27  H73 UNL     1       6.327  23.638  28.811  1.00  0.00     0.274 HD
ATOM     28  H72 UNL     1       5.708  23.570  30.233  1.00  0.00     0.274 HD
ATOM     29  H71 UNL     1       4.653  23.746  28.934  1.00  0.00     0.274 HD
ENDBRANCH  25  26
ENDBRANCH  24  25
ENDBRANCH  22  24
ENDBRANCH  12  22
TORSDOF 10
ENDMDL
MODEL 2
REMARK VINA RESULT: -4.767599041      1.261      2.121
REMARK  10 active torsions:
REMARK  status: ('A' for Active; 'I' for Inactive)
REMARK    1  A    between atoms: C2_2  and  C3_3 
REMARK    2  A    between atoms: C3_3  and  N1_4 
REMARK    3  A    between atoms: N1_4  and  C4_5 
REMARK    4  A    between atoms: N1_4  and  C6_9 
REMARK    5  A    between atoms: C4_5  and  C5_6 
REMARK    6  A    between atoms: C5_6  and  O1_7 
REMARK    7  A    between atoms: C9_20  and  N6_21 
REMARK    8  A    between atoms: N6_21  and  C10_23 
REMARK    9  A    between atoms: C10_23  and  C11_24 
REMARK   10  A    between atoms: C11_24  and  N7_25 
ROOT
HETATM    1  C6  UNL     1       2.591  27.331  33.781  1.00  0.00     0.136 A 
HETATM    2  N2  UNL     1       1.793  27.231  34.912  1.00  0.00    -0.283 N 
ATOM      3  H2  UNL     1       1.242  27.995  35.302  1.00  0.00     0.188 HD
HETATM    4  N3  UNL     1       1.844  26.030  35.407  1.00  0.00    -0.283 N 
ATOM      5  H3  UNL     1       1.352  25.694  36.235  1.00  0.00     0.188 HD
HETATM    6  C7  UNL     1       2.674  25.312  34.615  1.00  0.00     0.138 A 
HETATM    7  N4  UNL     1       3.056  24.041  34.699  1.00  0.00    -0.337 N 
ATOM      8  H4  UNL     1       2.712  23.445  35.451  1.00  0.00     0.168 HD
HETATM    9  C8  UNL     1       3.902  23.556  33.776  1.00  0.00     0.183 A 
HETATM   10  N5  UNL     1       4.375  24.302  32.777  1.00  0.00    -0.338 N 
ATOM     11  H5  UNL     1       5.015  23.893  32.096  1.00  0.00     0.168 HD
HETATM   12  C9  UNL     1       4.005  25.603  32.662  1.00  0.00     0.120 A 
HETATM   13  C12 UNL     1       3.155  26.117  33.581  1.00  0.00     0.098 A 
ENDROOT
BRANCH   1  14
HETATM   14  N1  UNL     1       2.733  28.553  33.100  1.00  0.00    -0.360 N 
BRANCH  14  15
HETATM   15  C3  UNL     1       1.864  28.840  31.992  1.00  0.00     0.151 C 
BRANCH  15  16
HETATM   16  C2  UNL     1       0.709  29.609  32.533  1.00  0.00    -0.017 C 
HETATM   17  C1  UNL     1      -0.487  29.050  32.733  1.00  0.00     0.008 C 
ENDBRANCH  15  16
ENDBRANCH  14  15
BRANCH  14  18
HETATM   18  C4  UNL     1       3.769  29.473  33.448  1.00  0.00     0.151 C 
BRANCH  18  19
HETATM   19  C5  UNL     1       3.375  30.729  34.130  1.00  0.00     0.183 C 
BRANCH  19  20
HETATM   20  O1  UNL     1       4.149  31.806  33.724  1.00  0.00    -0.399 OA
ATOM     21  H1  UNL     1       4.005  32.573  34.266  1.00  0.00     0.209 HD
ENDBRANCH  19  20
ENDBRANCH  18  19
ENDBRANCH  14  18
ENDBRANCH   1  14
BRANCH  12  22
HETATM   22  N6  UNL     1       4.487  26.327  31.557  1.00  0.00    -0.374 N 
ATOM     23  H6  UNL     1       3.934  27.099  31.184  1.00  0.00     0.161 HD
BRANCH  22  24
HETATM   24  C10 UNL     1       5.752  25.995  30.940  1.00  0.00     0.148 C 
BRANCH  24  25
HETATM   25  C11 UNL     1       5.646  25.534  29.519  1.00  0.00     0.249 C 
BRANCH  25  26
HETATM   26  N7  UNL     1       5.557  24.085  29.413  1.00  0.00    -0.078 N 
ATOM     27  H73 UNL     1       5.291  23.666  30.304  1.00  0.00     0.274 HD
ATOM     28  H72 UNL     1       4.751  23.806  28.855  1.00  0.00     0.274 HD
ATOM     29  H71 UNL     1       6.415  23.669  29.053  1.00  0.00     0.274 HD
ENDBRANCH  25  26
ENDBRANCH  24  25
ENDBRANCH  22  24
ENDBRANCH  12  22
TORSDOF 10
ENDMDL
MODEL 3
REMARK VINA RESULT: -4.735147709      2.292      5.193
REMARK  10 active torsions:
REMARK  status: ('A' for Active; 'I' for Inactive)
REMARK    1  A    between atoms: C2_2  and  C3_3 
REMARK    2  A    between atoms: C3_3  and  N1_4 
REMARK    3  A    between atoms: N1_4  and  C4_5 
REMARK    4  A    between atoms: N1_4  and  C6_9 
REMARK    5  A    between atoms: C4_5  and  C5_6 
REMARK    6  A    between atoms: C5_6  and  O1_7 
REMARK    7  A    between atoms: C9_20  and  N6_21 
REMARK    8  A    between atoms: N6_21  and  C10_23 
REMARK    9  A    between atoms: C10_23  and  C11_24 
REMARK   10  A    between atoms: C11_24  and  N7_25 
ROOT
HETATM    1  C6  UNL     1       4.772  25.118  32.367  1.00  0.00     0.136 A 
HETATM    2  N2  UNL     1       4.970  23.772  32.642  1.00  0.00    -0.283 N 
ATOM      3  H2  UNL     1       5.621  23.168  32.143  1.00  0.00     0.188 HD
HETATM    4  N3  UNL     1       4.210  23.387  33.625  1.00  0.00    -0.283 N 
ATOM      5  H3  UNL     1       4.162  22.449  34.023  1.00  0.00     0.188 HD
HETATM    6  C7  UNL     1       3.497  24.468  34.019  1.00  0.00     0.138 A 
HETATM    7  N4  UNL     1       2.585  24.592  34.979  1.00  0.00    -0.337 N 
ATOM      8  H4  UNL     1       2.327  23.792  35.555  1.00  0.00     0.168 HD
HETATM    9  C8  UNL     1       2.010  25.789  35.175  1.00  0.00     0.183 A 
HETATM   10  N5  UNL     1       2.321  26.861  34.444  1.00  0.00    -0.338 N 
ATOM     11  H5  UNL     1       1.861  27.753  34.628  1.00  0.00     0.168 HD
HETATM   12  C9  UNL     1       3.247  26.768  33.456  1.00  0.00     0.120 A 
HETATM   13  C12 UNL     1       3.840  25.572  33.237  1.00  0.00     0.098 A 
ENDROOT
BRANCH   1  14
HETATM   14  N1  UNL     1       5.450  25.748  31.308  1.00  0.00    -0.360 N 
BRANCH  14  15
HETATM   15  C3  UNL     1       6.708  26.392  31.570  1.00  0.00     0.151 C 
BRANCH  15  16
HETATM   16  C2  UNL     1       7.711  25.773  30.661  1.00  0.00    -0.017 C 
HETATM   17  C1  UNL     1       8.587  26.503  29.967  1.00  0.00     0.008 C 
ENDBRANCH  15  16
ENDBRANCH  14  15
BRANCH  14  18
HETATM   18  C4  UNL     1       4.874  25.815  30.002  1.00  0.00     0.151 C 
BRANCH  18  19
HETATM   19  C5  UNL     1       5.439  24.932  28.954  1.00  0.00     0.183 C 
BRANCH  19  20
HETATM   20  O1  UNL     1       5.274  23.590  29.260  1.00  0.00    -0.399 OA
ATOM     21  H1  UNL     1       6.106  23.146  29.376  1.00  0.00     0.209 HD
ENDBRANCH  19  20
ENDBRANCH  18  19
ENDBRANCH  14  18
ENDBRANCH   1  14
BRANCH  12  22
HETATM   22  N6  UNL     1       3.578  27.941  32.755  1.00  0.00    -0.374 N 
ATOM     23  H6  UNL     1       4.471  27.997  32.265  1.00  0.00     0.161 HD
BRANCH  22  24
HETATM   24  C10 UNL     1       2.675  29.070  32.718  1.00  0.00     0.148 C 
BRANCH  24  25
HETATM   25  C11 UNL     1       2.895  30.075  33.807  1.00  0.00     0.249 C 
BRANCH  25  26
HETATM   26  N7  UNL     1       4.061  30.910  33.563  1.00  0.00    -0.078 N 
ATOM     27  H73 UNL     1       4.906  30.481  33.940  1.00  0.00     0.274 HD
ATOM     28  H72 UNL     1       4.308  30.916  32.574  1.00  0.00     0.274 HD
ATOM     29  H71 UNL     1       3.940  31.858  33.918  1.00  0.00     0.274 HD
ENDBRANCH  25  26
ENDBRANCH  24  25
ENDBRANCH  22  24
ENDBRANCH  12  22
TORSDOF 10
ENDMDL
MODEL 4
REMARK VINA RESULT: -4.569433196      9.484     12.738
REMARK  10 active torsions:
REMARK  status: ('A' for Active; 'I' for Inactive)
REMARK    1  A    between atoms: C2_2  and  C3_3 
REMARK    2  A    between atoms: C3_3  and  N1_4 
REMARK    3  A    between atoms: N1_4  and  C4_5 
REMARK    4  A    between atoms: N1_4  and  C6_9 
REMARK    5  A    between atoms: C4_5  and  C5_6 
REMARK    6  A    between atoms: C5_6  and  O1_7 
REMARK    7  A    between atoms: C9_20  and  N6_21 
REMARK    8  A    between atoms: N6_21  and  C10_23 
REMARK    9  A    between atoms: C10_23  and  C11_24 
REMARK   10  A    between atoms: C11_24  and  N7_25 
ROOT
HETATM    1  C6  UNL     1      13.617  25.214  27.326  1.00  0.00     0.136 A 
HETATM    2  N2  UNL     1      13.981  24.039  27.969  1.00  0.00    -0.283 N 
ATOM      3  H2  UNL     1      13.415  23.564  28.672  1.00  0.00     0.188 HD
HETATM    4  N3  UNL     1      15.140  23.626  27.551  1.00  0.00    -0.283 N 
ATOM      5  H3  UNL     1      15.635  22.789  27.862  1.00  0.00     0.188 HD
HETATM    6  C7  UNL     1      15.566  24.516  26.625  1.00  0.00     0.138 A 
HETATM    7  N4  UNL     1      16.687  24.543  25.910  1.00  0.00    -0.337 N 
ATOM      8  H4  UNL     1      17.389  23.810  26.018  1.00  0.00     0.168 HD
HETATM    9  C8  UNL     1      16.880  25.550  25.045  1.00  0.00     0.183 A 
HETATM   10  N5  UNL     1      15.988  26.527  24.873  1.00  0.00    -0.338 N 
ATOM     11  H5  UNL     1      16.174  27.273  24.203  1.00  0.00     0.168 HD
HETATM   12  C9  UNL     1      14.834  26.530  25.587  1.00  0.00     0.120 A 
HETATM   13  C12 UNL     1      14.616  25.527  26.468  1.00  0.00     0.098 A 
ENDROOT
BRANCH   1  14
HETATM   14  N1  UNL     1      12.420  25.878  27.651  1.00  0.00    -0.360 N 
BRANCH  14  15
HETATM   15  C3  UNL     1      12.339  26.604  28.888  1.00  0.00     0.151 C 
BRANCH  15  16
HETATM   16  C2  UNL     1      11.200  27.555  28.760  1.00  0.00    -0.017 C 
HETATM   17  C1  UNL     1      10.134  27.499  29.561  1.00  0.00     0.008 C 
ENDBRANCH  15  16
ENDBRANCH  14  15
BRANCH  14  18
HETATM   18  C4  UNL     1      11.272  25.778  26.806  1.00  0.00     0.151 C 
BRANCH  18  19
HETATM   19  C5  UNL     1      10.310  24.683  27.077  1.00  0.00     0.183 C 
BRANCH  19  20
HETATM   20  O1  UNL     1      10.869  23.682  27.857  1.00  0.00    -0.399 OA
ATOM     21  H1  UNL     1      11.618  23.277  27.435  1.00  0.00     0.209 HD
ENDBRANCH  19  20
ENDBRANCH  18  19
ENDBRANCH  14  18
ENDBRANCH   1  14
BRANCH  12  22
HETATM   22  N6  UNL     1      13.903  27.551  25.325  1.00  0.00    -0.374 N 
ATOM     23  H6  UNL     1      12.955  27.471  25.692  1.00  0.00     0.161 HD
BRANCH  22  24
HETATM   24  C10 UNL     1      14.267  28.712  24.543  1.00  0.00     0.148 C 
BRANCH  24  25
HETATM   25  C11 UNL     1      13.105  29.459  23.965  1.00  0.00     0.249 C 
BRANCH  25  26
HETATM   26  N7  UNL     1      13.196  29.592  22.519  1.00  0.00    -0.078 N 
ATOM     27  H73 UNL     1      13.108  28.686  22.060  1.00  0.00     0.274 HD
ATOM     28  H72 UNL     1      12.367  30.048  22.139  1.00  0.00     0.274 HD
ATOM     29  H71 UNL     1      14.046  30.073  22.226  1.00  0.00     0.274 HD
ENDBRANCH  25  26
ENDBRANCH  24  25
ENDBRANCH  22  24
ENDBRANCH  12  22
TORSDOF 10
ENDMDL
MODEL 5
REMARK VINA RESULT: -4.426471566      9.829     13.025
REMARK  10 active torsions:
REMARK  status: ('A' for Active; 'I' for Inactive)
REMARK    1  A    between atoms: C2_2  and  C3_3 
REMARK    2  A    between atoms: C3_3  and  N1_4 
REMARK    3  A    between atoms: N1_4  and  C4_5 
REMARK    4  A    between atoms: N1_4  and  C6_9 
REMARK    5  A    between atoms: C4_5  and  C5_6 
REMARK    6  A    between atoms: C5_6  and  O1_7 
REMARK    7  A    between atoms: C9_20  and  N6_21 
REMARK    8  A    between atoms: N6_21  and  C10_23 
REMARK    9  A    between atoms: C10_23  and  C11_24 
REMARK   10  A    between atoms: C11_24  and  N7_25 
ROOT
HETATM    1  C6  UNL     1      13.378  25.855  26.933  1.00  0.00     0.136 A 
HETATM    2  N2  UNL     1      12.832  27.007  26.383  1.00  0.00    -0.283 N 
ATOM      3  H2  UNL     1      11.928  27.400  26.641  1.00  0.00     0.188 HD
HETATM    4  N3  UNL     1      13.631  27.515  25.493  1.00  0.00    -0.283 N 
ATOM      5  H3  UNL     1      13.469  28.359  24.942  1.00  0.00     0.188 HD
HETATM    6  C7  UNL     1      14.721  26.713  25.437  1.00  0.00     0.138 A 
HETATM    7  N4  UNL     1      15.814  26.801  24.686  1.00  0.00    -0.337 N 
ATOM      8  H4  UNL     1      15.927  27.566  24.021  1.00  0.00     0.168 HD
HETATM    9  C8  UNL     1      16.767  25.864  24.817  1.00  0.00     0.183 A 
HETATM   10  N5  UNL     1      16.659  24.848  25.674  1.00  0.00    -0.338 N 
ATOM     11  H5  UNL     1      17.408  24.159  25.744  1.00  0.00     0.168 HD
HETATM   12  C9  UNL     1      15.555  24.729  26.456  1.00  0.00     0.120 A 
HETATM   13  C12 UNL     1      14.579  25.660  26.341  1.00  0.00     0.098 A 
ENDROOT
BRANCH   1  14
HETATM   14  N1  UNL     1      12.669  25.101  27.886  1.00  0.00    -0.360 N 
BRANCH  14  15
HETATM   15  C3  UNL     1      12.763  25.465  29.272  1.00  0.00     0.151 C 
BRANCH  15  16
HETATM   16  C2  UNL     1      12.200  26.837  29.401  1.00  0.00    -0.017 C 
HETATM   17  C1  UNL     1      10.885  27.067  29.420  1.00  0.00     0.008 C 
ENDBRANCH  15  16
ENDBRANCH  14  15
BRANCH  14  18
HETATM   18  C4  UNL     1      11.922  23.946  27.501  1.00  0.00     0.151 C 
BRANCH  18  19
HETATM   19  C5  UNL     1      10.455  23.971  27.716  1.00  0.00     0.183 C 
BRANCH  19  20
HETATM   20  O1  UNL     1       9.826  24.901  26.902  1.00  0.00    -0.399 OA
ATOM     21  H1  UNL     1      10.449  25.453  26.444  1.00  0.00     0.209 HD
ENDBRANCH  19  20
ENDBRANCH  18  19
ENDBRANCH  14  18
ENDBRANCH   1  14
BRANCH  12  22
HETATM   22  N6  UNL     1      15.518  23.673  27.383  1.00  0.00    -0.374 N 
ATOM     23  H6  UNL     1      14.941  23.760  28.220  1.00  0.00     0.161 HD
BRANCH  22  24
HETATM   24  C10 UNL     1      16.285  22.466  27.171  1.00  0.00     0.148 C 
BRANCH  24  25
HETATM   25  C11 UNL     1      16.699  21.765  28.429  1.00  0.00     0.249 C 
BRANCH  25  26
HETATM   26  N7  UNL     1      18.087  21.331  28.390  1.00  0.00    -0.078 N 
ATOM     27  H73 UNL     1      18.222  20.593  27.700  1.00  0.00     0.274 HD
ATOM     28  H72 UNL     1      18.685  22.048  27.981  1.00  0.00     0.274 HD
ATOM     29  H71 UNL     1      18.430  21.045  29.307  1.00  0.00     0.274 HD
ENDBRANCH  25  26
ENDBRANCH  24  25
ENDBRANCH  22  24
ENDBRANCH  12  22
TORSDOF 10
ENDMDL
