MODEL 1
REMARK VINA RESULT: -6.882051932      0.000      0.000
REMARK  9 active torsions:
REMARK  status: ('A' for Active; 'I' for Inactive)
REMARK    1  A    between atoms: C3_3  and  C4_4 
REMARK    2  A    between atoms: C4_4  and  N1_5 
REMARK    3  A    between atoms: N1_5  and  C5_7 
REMARK    4  A    between atoms: C5_7  and  C6_8 
REMARK    5  A    between atoms: C6_8  and  O1_9 
REMARK    6  A    between atoms: O1_9  and  C7_10 
REMARK    7  A    between atoms: C7_10  and  C8_11 
REMARK    8  A    between atoms: C8_11  and  S1_12 
REMARK    9  A    between atoms: S1_12  and  C9_13 
ROOT
HETATM    1  C6  UNL     1       6.068  24.544  29.286  1.00  0.00     0.186 C 
ENDROOT
BRANCH   1   2
HETATM    2  C5  UNL     1       6.631  25.863  28.886  1.00  0.00     0.140 C 
BRANCH   2   3
HETATM    3  N1  UNL     1       8.037  25.920  28.758  1.00  0.00    -0.414 N 
ATOM      4  H1  UNL     1       8.501  25.531  27.937  1.00  0.00     0.153 HD
BRANCH   3   5
HETATM    5  C4  UNL     1       8.789  26.526  29.793  1.00  0.00     0.172 C 
BRANCH   5   6
HETATM    6  C3  UNL     1      10.239  26.192  29.519  1.00  0.00     0.044 A 
HETATM    7  C2  UNL     1      11.217  27.036  29.029  1.00  0.00     0.047 A 
HETATM    8  C1  UNL     1      12.418  26.332  28.924  1.00  0.00     0.109 A 
HETATM    9  N6  UNL     1      12.130  25.102  29.347  1.00  0.00    -0.312 N 
HETATM   10  N5  UNL     1      10.858  25.005  29.699  1.00  0.00    -0.304 N 
ATOM     11  H6  UNL     1      12.802  24.335  29.394  1.00  0.00     0.186 HD
ATOM     12  H5  UNL     1      10.410  24.160  30.054  1.00  0.00     0.186 HD
ENDBRANCH   5   6
ENDBRANCH   3   5
ENDBRANCH   2   3
ENDBRANCH   1   2
BRANCH   1  13
HETATM   13  O1  UNL     1       5.326  24.557  30.428  1.00  0.00    -0.389 OA
BRANCH  13  14
HETATM   14  C7  UNL     1       5.795  25.334  31.462  1.00  0.00     0.178 C 
BRANCH  14  15
HETATM   15  C8  UNL     1       5.556  24.710  32.805  1.00  0.00     0.108 C 
BRANCH  15  16
HETATM   16  S1  UNL     1       3.751  24.765  33.101  1.00  0.00    -0.090 SA
BRANCH  16  17
HETATM   17  C9  UNL     1       3.352  26.408  33.667  1.00  0.00     0.160 A 
HETATM   18  N2  UNL     1       2.869  27.416  32.929  1.00  0.00    -0.331 N 
HETATM   19  C10 UNL     1       2.689  28.505  33.688  1.00  0.00     0.199 A 
ATOM     20  H2  UNL     1       2.667  27.361  31.930  1.00  0.00     0.168 HD
HETATM   21  N3  UNL     1       3.065  28.170  34.923  1.00  0.00    -0.294 N 
HETATM   22  N4  UNL     1       3.465  26.910  34.917  1.00  0.00    -0.279 N 
ATOM     23  H3  UNL     1       3.048  28.784  35.737  1.00  0.00     0.187 HD
ATOM     24  H4  UNL     1       3.806  26.395  35.729  1.00  0.00     0.189 HD
ENDBRANCH  16  17
ENDBRANCH  15  16
ENDBRANCH  14  15
ENDBRANCH  13  14
ENDBRANCH   1  13
TORSDOF 9
ENDMDL
MODEL 2
REMARK VINA RESULT: -6.790191860      2.270      3.303
REMARK  9 active torsions:
REMARK  status: ('A' for Active; 'I' for Inactive)
REMARK    1  A    between atoms: C3_3  and  C4_4 
REMARK    2  A    between atoms: C4_4  and  N1_5 
REMARK    3  A    between atoms: N1_5  and  C5_7 
REMARK    4  A    between atoms: C5_7  and  C6_8 
REMARK    5  A    between atoms: C6_8  and  O1_9 
REMARK    6  A    between atoms: O1_9  and  C7_10 
REMARK    7  A    between atoms: C7_10  and  C8_11 
REMARK    8  A    between atoms: C8_11  and  S1_12 
REMARK    9  A    between atoms: S1_12  and  C9_13 
ROOT
HETATM    1  C6  UNL     1       9.270  26.241  29.621  1.00  0.00     0.186 C 
ENDROOT
BRANCH   1   2
HETATM    2  C5  UNL     1       9.996  24.952  29.791  1.00  0.00     0.140 C 
BRANCH   2   3
HETATM    3  N1  UNL     1      11.101  24.749  28.934  1.00  0.00    -0.414 N 
ATOM      4  H1  UNL     1      10.995  24.233  28.060  1.00  0.00     0.153 HD
BRANCH   3   5
HETATM    5  C4  UNL     1      12.358  25.277  29.313  1.00  0.00     0.172 C 
BRANCH   5   6
HETATM    6  C3  UNL     1      13.237  25.210  28.082  1.00  0.00     0.044 A 
HETATM    7  C2  UNL     1      14.526  24.722  27.997  1.00  0.00     0.047 A 
HETATM    8  C1  UNL     1      14.975  24.843  26.681  1.00  0.00     0.109 A 
HETATM    9  N6  UNL     1      13.955  25.393  26.022  1.00  0.00    -0.312 N 
HETATM   10  N5  UNL     1      12.930  25.613  26.830  1.00  0.00    -0.304 N 
ATOM     11  H6  UNL     1      13.963  25.615  25.026  1.00  0.00     0.186 HD
ATOM     12  H5  UNL     1      12.041  26.025  26.549  1.00  0.00     0.186 HD
ENDBRANCH   5   6
ENDBRANCH   3   5
ENDBRANCH   2   3
ENDBRANCH   1   2
BRANCH   1  13
HETATM   13  O1  UNL     1       8.007  26.261  30.130  1.00  0.00    -0.389 OA
BRANCH  13  14
HETATM   14  C7  UNL     1       6.995  25.852  29.292  1.00  0.00     0.178 C 
BRANCH  14  15
HETATM   15  C8  UNL     1       5.765  25.428  30.039  1.00  0.00     0.108 C 
BRANCH  15  16
HETATM   16  S1  UNL     1       6.286  25.064  31.755  1.00  0.00    -0.090 SA
BRANCH  16  17
HETATM   17  C9  UNL     1       4.822  25.088  32.774  1.00  0.00     0.160 A 
HETATM   18  N2  UNL     1       4.124  26.167  33.151  1.00  0.00    -0.331 N 
HETATM   19  C10 UNL     1       3.084  25.806  33.914  1.00  0.00     0.199 A 
ATOM     20  H2  UNL     1       4.353  27.127  32.893  1.00  0.00     0.168 HD
HETATM   21  N3  UNL     1       3.133  24.477  34.014  1.00  0.00    -0.294 N 
HETATM   22  N4  UNL     1       4.176  24.039  33.330  1.00  0.00    -0.279 N 
ATOM     23  H3  UNL     1       2.474  23.895  34.531  1.00  0.00     0.187 HD
ATOM     24  H4  UNL     1       4.452  23.061  33.236  1.00  0.00     0.189 HD
ENDBRANCH  16  17
ENDBRANCH  15  16
ENDBRANCH  14  15
ENDBRANCH  13  14
ENDBRANCH   1  13
TORSDOF 9
ENDMDL
MODEL 3
REMARK VINA RESULT: -6.765461664      2.195      3.056
REMARK  9 active torsions:
REMARK  status: ('A' for Active; 'I' for Inactive)
REMARK    1  A    between atoms: C3_3  and  C4_4 
REMARK    2  A    between atoms: C4_4  and  N1_5 
REMARK    3  A    between atoms: N1_5  and  C5_7 
REMARK    4  A    between atoms: C5_7  and  C6_8 
REMARK    5  A    between atoms: C6_8  and  O1_9 
REMARK    6  A    between atoms: O1_9  and  C7_10 
REMARK    7  A    between atoms: C7_10  and  C8_11 
REMARK    8  A    between atoms: C8_11  and  S1_12 
REMARK    9  A    between atoms: S1_12  and  C9_13 
ROOT
HETATM    1  C6  UNL     1       9.237  26.194  29.665  1.00  0.00     0.186 C 
ENDROOT
BRANCH   1   2
HETATM    2  C5  UNL     1       9.853  24.851  29.849  1.00  0.00     0.140 C 
BRANCH   2   3
HETATM    3  N1  UNL     1      10.586  24.354  28.748  1.00  0.00    -0.414 N 
ATOM      4  H1  UNL     1      11.066  23.455  28.804  1.00  0.00     0.153 HD
BRANCH   3   5
HETATM    5  C4  UNL     1      10.641  25.128  27.564  1.00  0.00     0.172 C 
BRANCH   5   6
HETATM    6  C3  UNL     1      12.104  25.244  27.197  1.00  0.00     0.044 A 
HETATM    7  C2  UNL     1      12.645  25.869  26.090  1.00  0.00     0.047 A 
HETATM    8  C1  UNL     1      14.036  25.746  26.129  1.00  0.00     0.109 A 
HETATM    9  N6  UNL     1      14.286  25.058  27.244  1.00  0.00    -0.312 N 
HETATM   10  N5  UNL     1      13.164  24.757  27.879  1.00  0.00    -0.304 N 
ATOM     11  H6  UNL     1      15.218  24.797  27.564  1.00  0.00     0.186 HD
ATOM     12  H5  UNL     1      13.107  24.237  28.754  1.00  0.00     0.186 HD
ENDBRANCH   5   6
ENDBRANCH   3   5
ENDBRANCH   2   3
ENDBRANCH   1   2
BRANCH   1  13
HETATM   13  O1  UNL     1       7.958  26.306  30.119  1.00  0.00    -0.389 OA
BRANCH  13  14
HETATM   14  C7  UNL     1       6.963  25.844  29.289  1.00  0.00     0.178 C 
BRANCH  14  15
HETATM   15  C8  UNL     1       5.746  25.395  30.043  1.00  0.00     0.108 C 
BRANCH  15  16
HETATM   16  S1  UNL     1       6.273  25.092  31.769  1.00  0.00    -0.090 SA
BRANCH  16  17
HETATM   17  C9  UNL     1       4.808  25.113  32.786  1.00  0.00     0.160 A 
HETATM   18  N2  UNL     1       4.111  26.191  33.166  1.00  0.00    -0.331 N 
HETATM   19  C10 UNL     1       3.070  25.828  33.927  1.00  0.00     0.199 A 
ATOM     20  H2  UNL     1       4.340  27.152  32.912  1.00  0.00     0.168 HD
HETATM   21  N3  UNL     1       3.118  24.498  34.023  1.00  0.00    -0.294 N 
HETATM   22  N4  UNL     1       4.162  24.063  33.339  1.00  0.00    -0.279 N 
ATOM     23  H3  UNL     1       2.459  23.915  34.538  1.00  0.00     0.187 HD
ATOM     24  H4  UNL     1       4.437  23.085  33.242  1.00  0.00     0.189 HD
ENDBRANCH  16  17
ENDBRANCH  15  16
ENDBRANCH  14  15
ENDBRANCH  13  14
ENDBRANCH   1  13
TORSDOF 9
ENDMDL
MODEL 4
REMARK VINA RESULT: -6.699147517      1.168      1.447
REMARK  9 active torsions:
REMARK  status: ('A' for Active; 'I' for Inactive)
REMARK    1  A    between atoms: C3_3  and  C4_4 
REMARK    2  A    between atoms: C4_4  and  N1_5 
REMARK    3  A    between atoms: N1_5  and  C5_7 
REMARK    4  A    between atoms: C5_7  and  C6_8 
REMARK    5  A    between atoms: C6_8  and  O1_9 
REMARK    6  A    between atoms: O1_9  and  C7_10 
REMARK    7  A    between atoms: C7_10  and  C8_11 
REMARK    8  A    between atoms: C8_11  and  S1_12 
REMARK    9  A    between atoms: S1_12  and  C9_13 
ROOT
HETATM    1  C6  UNL     1       6.980  25.858  29.134  1.00  0.00     0.186 C 
ENDROOT
BRANCH   1   2
HETATM    2  C5  UNL     1       8.336  26.209  28.630  1.00  0.00     0.140 C 
BRANCH   2   3
HETATM    3  N1  UNL     1       9.285  26.569  29.613  1.00  0.00    -0.414 N 
ATOM      4  H1  UNL     1       9.238  26.172  30.552  1.00  0.00     0.153 HD
BRANCH   3   5
HETATM    5  C4  UNL     1      10.301  27.492  29.269  1.00  0.00     0.172 C 
BRANCH   5   6
HETATM    6  C3  UNL     1      11.434  26.678  28.679  1.00  0.00     0.044 A 
HETATM    7  C2  UNL     1      12.318  25.859  29.354  1.00  0.00     0.047 A 
HETATM    8  C1  UNL     1      13.208  25.294  28.437  1.00  0.00     0.109 A 
HETATM    9  N6  UNL     1      12.835  25.784  27.255  1.00  0.00    -0.312 N 
HETATM   10  N5  UNL     1      11.798  26.596  27.381  1.00  0.00    -0.304 N 
ATOM     11  H6  UNL     1      13.290  25.563  26.369  1.00  0.00     0.186 HD
ATOM     12  H5  UNL     1      11.340  27.087  26.614  1.00  0.00     0.186 HD
ENDBRANCH   5   6
ENDBRANCH   3   5
ENDBRANCH   2   3
ENDBRANCH   1   2
BRANCH   1  13
HETATM   13  O1  UNL     1       6.859  25.839  30.491  1.00  0.00    -0.389 OA
BRANCH  13  14
HETATM   14  C7  UNL     1       5.653  25.415  30.999  1.00  0.00     0.178 C 
BRANCH  14  15
HETATM   15  C8  UNL     1       5.759  24.949  32.421  1.00  0.00     0.108 C 
BRANCH  15  16
HETATM   16  S1  UNL     1       4.049  24.750  33.043  1.00  0.00    -0.090 SA
BRANCH  16  17
HETATM   17  C9  UNL     1       3.508  26.343  33.635  1.00  0.00     0.160 A 
HETATM   18  N2  UNL     1       2.973  27.331  32.906  1.00  0.00    -0.331 N 
HETATM   19  C10 UNL     1       2.687  28.382  33.684  1.00  0.00     0.199 A 
ATOM     20  H2  UNL     1       2.807  27.288  31.900  1.00  0.00     0.168 HD
HETATM   21  N3  UNL     1       3.049  28.045  34.923  1.00  0.00    -0.294 N 
HETATM   22  N4  UNL     1       3.544  26.819  34.899  1.00  0.00    -0.279 N 
ATOM     23  H3  UNL     1       2.959  28.634  35.750  1.00  0.00     0.187 HD
ATOM     24  H4  UNL     1       3.898  26.310  35.710  1.00  0.00     0.189 HD
ENDBRANCH  16  17
ENDBRANCH  15  16
ENDBRANCH  14  15
ENDBRANCH  13  14
ENDBRANCH   1  13
TORSDOF 9
ENDMDL
MODEL 5
REMARK VINA RESULT: -6.662540118      2.283      3.246
REMARK  9 active torsions:
REMARK  status: ('A' for Active; 'I' for Inactive)
REMARK    1  A    between atoms: C3_3  and  C4_4 
REMARK    2  A    between atoms: C4_4  and  N1_5 
REMARK    3  A    between atoms: N1_5  and  C5_7 
REMARK    4  A    between atoms: C5_7  and  C6_8 
REMARK    5  A    between atoms: C6_8  and  O1_9 
REMARK    6  A    between atoms: O1_9  and  C7_10 
REMARK    7  A    between atoms: C7_10  and  C8_11 
REMARK    8  A    between atoms: C8_11  and  S1_12 
REMARK    9  A    between atoms: S1_12  and  C9_13 
ROOT
HETATM    1  C6  UNL     1       9.347  26.064  29.755  1.00  0.00     0.186 C 
ENDROOT
BRANCH   1   2
HETATM    2  C5  UNL     1      10.094  27.278  29.326  1.00  0.00     0.140 C 
BRANCH   2   3
HETATM    3  N1  UNL     1      11.352  27.047  28.725  1.00  0.00    -0.414 N 
ATOM      4  H1  UNL     1      12.214  27.306  29.204  1.00  0.00     0.153 HD
BRANCH   3   5
HETATM    5  C4  UNL     1      11.391  26.447  27.443  1.00  0.00     0.172 C 
BRANCH   5   6
HETATM    6  C3  UNL     1      12.743  25.777  27.327  1.00  0.00     0.044 A 
HETATM    7  C2  UNL     1      13.429  25.094  28.313  1.00  0.00     0.047 A 
HETATM    8  C1  UNL     1      14.639  24.631  27.792  1.00  0.00     0.109 A 
HETATM    9  N6  UNL     1      14.644  25.044  26.524  1.00  0.00    -0.312 N 
HETATM   10  N5  UNL     1      13.539  25.716  26.238  1.00  0.00    -0.304 N 
ATOM     11  H6  UNL     1      15.399  24.866  25.862  1.00  0.00     0.186 HD
ATOM     12  H5  UNL     1      13.322  26.126  25.331  1.00  0.00     0.186 HD
ENDBRANCH   5   6
ENDBRANCH   3   5
ENDBRANCH   2   3
ENDBRANCH   1   2
BRANCH   1  13
HETATM   13  O1  UNL     1       8.068  26.292  30.165  1.00  0.00    -0.389 OA
BRANCH  13  14
HETATM   14  C7  UNL     1       7.064  25.859  29.331  1.00  0.00     0.178 C 
BRANCH  14  15
HETATM   15  C8  UNL     1       5.797  25.542  30.070  1.00  0.00     0.108 C 
BRANCH  15  16
HETATM   16  S1  UNL     1       6.282  25.024  31.757  1.00  0.00    -0.090 SA
BRANCH  16  17
HETATM   17  C9  UNL     1       4.819  25.078  32.774  1.00  0.00     0.160 A 
HETATM   18  N2  UNL     1       4.123  26.168  33.121  1.00  0.00    -0.331 N 
HETATM   19  C10 UNL     1       3.082  25.830  33.894  1.00  0.00     0.199 A 
ATOM     20  H2  UNL     1       4.353  27.121  32.838  1.00  0.00     0.168 HD
HETATM   21  N3  UNL     1       3.129  24.504  34.031  1.00  0.00    -0.294 N 
HETATM   22  N4  UNL     1       4.172  24.046  33.359  1.00  0.00    -0.279 N 
ATOM     23  H3  UNL     1       2.470  23.938  34.564  1.00  0.00     0.187 HD
ATOM     24  H4  UNL     1       4.446  23.066  33.292  1.00  0.00     0.189 HD
ENDBRANCH  16  17
ENDBRANCH  15  16
ENDBRANCH  14  15
ENDBRANCH  13  14
ENDBRANCH   1  13
TORSDOF 9
ENDMDL
