MODEL 1
REMARK VINA RESULT: -7.834131106      0.000      0.000
REMARK  8 active torsions:
REMARK  status: ('A' for Active; 'I' for Inactive)
REMARK    1  A    between atoms: C2_2  and  C3_3 
REMARK    2  A    between atoms: C3_3  and  N1_4 
REMARK       I    between atoms: N1_4  and  C4_6 
REMARK    3  A    between atoms: C4_6  and  C5_8 
REMARK    4  A    between atoms: C5_8  and  S1_9 
REMARK    5  A    between atoms: S1_9  and  C6_10 
REMARK    6  A    between atoms: C7_15  and  N4_16 
REMARK    7  A    between atoms: N4_16  and  N5_18 
REMARK    8  A    between atoms: N6_20  and  N7_22 
ROOT
HETATM    1  C6  UNL     1       6.080  25.326  31.607  1.00  0.00     0.174 A 
HETATM    2  N2  UNL     1       6.039  24.155  32.241  1.00  0.00    -0.265 N 
ATOM      3  H2  UNL     1       6.644  23.361  32.031  1.00  0.00     0.189 HD
HETATM    4  N3  UNL     1       5.107  24.161  33.180  1.00  0.00    -0.129 N 
ATOM      5  H3  UNL     1       4.884  23.382  33.800  1.00  0.00     0.205 HD
HETATM    6  C7  UNL     1       4.511  25.342  33.184  1.00  0.00     0.714 A 
HETATM    7  N8  UNL     1       5.108  26.063  32.217  1.00  0.00    -0.166 N 
ATOM      8  H8  UNL     1       4.867  27.025  31.975  1.00  0.00     0.186 HD
ENDROOT
BRANCH   1   9
HETATM    9  S1  UNL     1       7.091  25.937  30.275  1.00  0.00    -0.083 SA
BRANCH   9  10
HETATM   10  C5  UNL     1       8.597  24.981  30.031  1.00  0.00     0.185 C 
BRANCH  10  11
HETATM   11  C4  UNL     1       9.787  25.762  29.736  1.00  0.00     0.227 C 
HETATM   12  N1  UNL     1      11.059  25.230  29.531  1.00  0.00    -0.357 N 
ATOM     13  H1  UNL     1      11.192  24.220  29.585  1.00  0.00     0.162 HD
HETATM   14  O1  UNL     1       9.651  27.031  29.658  1.00  0.00    -0.273 OA
BRANCH  12  15
HETATM   15  C3  UNL     1      12.202  26.082  29.243  1.00  0.00     0.149 C 
BRANCH  15  16
HETATM   16  C2  UNL     1      13.483  25.350  29.367  1.00  0.00    -0.018 C 
HETATM   17  C1  UNL     1      14.152  24.926  28.321  1.00  0.00     0.008 C 
ENDBRANCH  15  16
ENDBRANCH  12  15
ENDBRANCH  10  11
ENDBRANCH   9  10
ENDBRANCH   1   9
BRANCH   6  18
HETATM   18  N4  UNL     1       3.447  25.827  34.012  1.00  0.00    -0.115 N 
ATOM     19  H4  UNL     1       2.510  25.447  33.877  1.00  0.00     0.207 HD
BRANCH  18  20
HETATM   20  N5  UNL     1       3.639  26.793  34.990  1.00  0.00    -0.214 N 
HETATM   21  N6  UNL     1       2.995  27.892  34.867  1.00  0.00    -0.233 N 
ATOM     22  H6  UNL     1       3.113  28.623  35.568  1.00  0.00     0.209 HD
ATOM     23  H5  UNL     1       4.269  26.633  35.777  1.00  0.00     0.210 HD
BRANCH  21  24
HETATM   24  N7  UNL     1       2.133  28.109  33.787  1.00  0.00    -0.325 N 
HETATM   25  C8  UNL     1       2.491  29.134  32.830  1.00  0.00     0.169 C 
ATOM     26  H7  UNL     1       1.278  27.562  33.678  1.00  0.00     0.181 HD
ENDBRANCH  21  24
ENDBRANCH  18  20
ENDBRANCH   6  18
TORSDOF 8
ENDMDL
MODEL 2
REMARK VINA RESULT: -7.687045807      2.141      3.046
REMARK  8 active torsions:
REMARK  status: ('A' for Active; 'I' for Inactive)
REMARK    1  A    between atoms: C2_2  and  C3_3 
REMARK    2  A    between atoms: C3_3  and  N1_4 
REMARK       I    between atoms: N1_4  and  C4_6 
REMARK    3  A    between atoms: C4_6  and  C5_8 
REMARK    4  A    between atoms: C5_8  and  S1_9 
REMARK    5  A    between atoms: S1_9  and  C6_10 
REMARK    6  A    between atoms: C7_15  and  N4_16 
REMARK    7  A    between atoms: N4_16  and  N5_18 
REMARK    8  A    between atoms: N6_20  and  N7_22 
ROOT
HETATM    1  C6  UNL     1       6.402  25.626  30.992  1.00  0.00     0.174 A 
HETATM    2  N2  UNL     1       6.353  26.395  32.079  1.00  0.00    -0.265 N 
ATOM      3  H2  UNL     1       6.889  27.253  32.206  1.00  0.00     0.189 HD
HETATM    4  N3  UNL     1       5.515  25.893  32.971  1.00  0.00    -0.129 N 
ATOM      5  H3  UNL     1       5.307  26.300  33.884  1.00  0.00     0.205 HD
HETATM    6  C7  UNL     1       4.993  24.777  32.489  1.00  0.00     0.714 A 
HETATM    7  N8  UNL     1       5.536  24.610  31.269  1.00  0.00    -0.166 N 
ATOM      8  H8  UNL     1       5.329  23.833  30.641  1.00  0.00     0.186 HD
ENDROOT
BRANCH   1   9
HETATM    9  S1  UNL     1       7.318  25.753  29.470  1.00  0.00    -0.083 SA
BRANCH   9  10
HETATM   10  C5  UNL     1       8.891  26.610  29.658  1.00  0.00     0.185 C 
BRANCH  10  11
HETATM   11  C4  UNL     1      10.063  25.752  29.699  1.00  0.00     0.227 C 
HETATM   12  N1  UNL     1      11.354  26.149  29.353  1.00  0.00    -0.357 N 
ATOM     13  H1  UNL     1      11.515  27.109  29.048  1.00  0.00     0.162 HD
HETATM   14  O1  UNL     1       9.893  24.543  30.083  1.00  0.00    -0.273 OA
BRANCH  12  15
HETATM   15  C3  UNL     1      12.476  25.226  29.419  1.00  0.00     0.149 C 
BRANCH  15  16
HETATM   16  C2  UNL     1      13.239  25.193  28.150  1.00  0.00    -0.018 C 
HETATM   17  C1  UNL     1      14.502  24.839  28.101  1.00  0.00     0.008 C 
ENDBRANCH  15  16
ENDBRANCH  12  15
ENDBRANCH  10  11
ENDBRANCH   9  10
ENDBRANCH   1   9
BRANCH   6  18
HETATM   18  N4  UNL     1       4.044  23.881  33.080  1.00  0.00    -0.115 N 
ATOM     19  H4  UNL     1       4.094  22.891  32.842  1.00  0.00     0.207 HD
BRANCH  18  20
HETATM   20  N5  UNL     1       3.060  24.306  33.962  1.00  0.00    -0.214 N 
HETATM   21  N6  UNL     1       2.701  23.491  34.880  1.00  0.00    -0.233 N 
ATOM     22  H6  UNL     1       1.980  23.771  35.545  1.00  0.00     0.209 HD
ATOM     23  H5  UNL     1       2.639  25.233  33.880  1.00  0.00     0.210 HD
BRANCH  21  24
HETATM   24  N7  UNL     1       3.279  22.222  34.989  1.00  0.00    -0.325 N 
HETATM   25  C8  UNL     1       2.431  21.125  35.404  1.00  0.00     0.169 C 
ATOM     26  H7  UNL     1       4.267  22.074  34.782  1.00  0.00     0.181 HD
ENDBRANCH  21  24
ENDBRANCH  18  20
ENDBRANCH   6  18
TORSDOF 8
ENDMDL
MODEL 3
REMARK VINA RESULT: -7.629044669      2.000      2.381
REMARK  8 active torsions:
REMARK  status: ('A' for Active; 'I' for Inactive)
REMARK    1  A    between atoms: C2_2  and  C3_3 
REMARK    2  A    between atoms: C3_3  and  N1_4 
REMARK       I    between atoms: N1_4  and  C4_6 
REMARK    3  A    between atoms: C4_6  and  C5_8 
REMARK    4  A    between atoms: C5_8  and  S1_9 
REMARK    5  A    between atoms: S1_9  and  C6_10 
REMARK    6  A    between atoms: C7_15  and  N4_16 
REMARK    7  A    between atoms: N4_16  and  N5_18 
REMARK    8  A    between atoms: N6_20  and  N7_22 
ROOT
HETATM    1  C6  UNL     1       4.838  24.956  32.918  1.00  0.00     0.174 A 
HETATM    2  N2  UNL     1       4.012  24.033  33.410  1.00  0.00    -0.265 N 
ATOM      3  H2  UNL     1       4.115  23.028  33.268  1.00  0.00     0.189 HD
HETATM    4  N3  UNL     1       3.041  24.597  34.109  1.00  0.00    -0.129 N 
ATOM      5  H3  UNL     1       2.287  24.101  34.584  1.00  0.00     0.205 HD
HETATM    6  C7  UNL     1       3.206  25.910  34.091  1.00  0.00     0.714 A 
HETATM    7  N8  UNL     1       4.313  26.135  33.358  1.00  0.00    -0.166 N 
ATOM      8  H8  UNL     1       4.704  27.056  33.161  1.00  0.00     0.186 HD
ENDROOT
BRANCH   1   9
HETATM    9  S1  UNL     1       6.305  24.843  31.916  1.00  0.00    -0.083 SA
BRANCH   9  10
HETATM   10  C5  UNL     1       6.017  25.256  30.186  1.00  0.00     0.185 C 
BRANCH  10  11
HETATM   11  C4  UNL     1       7.135  25.887  29.505  1.00  0.00     0.227 C 
HETATM   12  N1  UNL     1       8.332  26.261  30.115  1.00  0.00    -0.357 N 
ATOM     13  H1  UNL     1       8.458  26.089  31.112  1.00  0.00     0.162 HD
HETATM   14  O1  UNL     1       7.008  26.112  28.252  1.00  0.00    -0.273 OA
BRANCH  12  15
HETATM   15  C3  UNL     1       9.404  26.892  29.361  1.00  0.00     0.149 C 
BRANCH  15  16
HETATM   16  C2  UNL     1      10.658  26.107  29.422  1.00  0.00    -0.018 C 
HETATM   17  C1  UNL     1      10.662  24.805  29.587  1.00  0.00     0.008 C 
ENDBRANCH  15  16
ENDBRANCH  12  15
ENDBRANCH  10  11
ENDBRANCH   9  10
ENDBRANCH   1   9
BRANCH   6  18
HETATM   18  N4  UNL     1       2.417  26.940  34.697  1.00  0.00    -0.115 N 
ATOM     19  H4  UNL     1       1.476  26.710  35.017  1.00  0.00     0.207 HD
BRANCH  18  20
HETATM   20  N5  UNL     1       2.881  28.237  34.866  1.00  0.00    -0.214 N 
HETATM   21  N6  UNL     1       2.062  29.191  34.625  1.00  0.00    -0.233 N 
ATOM     22  H6  UNL     1       2.370  30.156  34.739  1.00  0.00     0.209 HD
ATOM     23  H5  UNL     1       3.837  28.423  35.171  1.00  0.00     0.210 HD
BRANCH  21  24
HETATM   24  N7  UNL     1       0.752  28.933  34.207  1.00  0.00    -0.325 N 
HETATM   25  C8  UNL     1       0.409  29.233  32.834  1.00  0.00     0.169 C 
ATOM     26  H7  UNL     1       0.061  28.546  34.850  1.00  0.00     0.181 HD
ENDBRANCH  21  24
ENDBRANCH  18  20
ENDBRANCH   6  18
TORSDOF 8
ENDMDL
MODEL 4
REMARK VINA RESULT: -7.618031812      1.383      1.797
REMARK  8 active torsions:
REMARK  status: ('A' for Active; 'I' for Inactive)
REMARK    1  A    between atoms: C2_2  and  C3_3 
REMARK    2  A    between atoms: C3_3  and  N1_4 
REMARK       I    between atoms: N1_4  and  C4_6 
REMARK    3  A    between atoms: C4_6  and  C5_8 
REMARK    4  A    between atoms: C5_8  and  S1_9 
REMARK    5  A    between atoms: S1_9  and  C6_10 
REMARK    6  A    between atoms: C7_15  and  N4_16 
REMARK    7  A    between atoms: N4_16  and  N5_18 
REMARK    8  A    between atoms: N6_20  and  N7_22 
ROOT
HETATM    1  C6  UNL     1       7.182  25.310  30.396  1.00  0.00     0.174 A 
HETATM    2  N2  UNL     1       7.117  24.074  30.890  1.00  0.00    -0.265 N 
ATOM      3  H2  UNL     1       7.592  23.265  30.490  1.00  0.00     0.189 HD
HETATM    4  N3  UNL     1       6.354  24.039  31.970  1.00  0.00    -0.129 N 
ATOM      5  H3  UNL     1       6.151  23.208  32.527  1.00  0.00     0.205 HD
HETATM    6  C7  UNL     1       5.897  25.257  32.212  1.00  0.00     0.714 A 
HETATM    7  N8  UNL     1       6.405  26.043  31.244  1.00  0.00    -0.166 N 
ATOM      8  H8  UNL     1       6.233  27.045  31.158  1.00  0.00     0.186 HD
ENDROOT
BRANCH   1   9
HETATM    9  S1  UNL     1       8.026  25.999  28.989  1.00  0.00    -0.083 SA
BRANCH   9  10
HETATM   10  C5  UNL     1       9.583  26.798  29.415  1.00  0.00     0.185 C 
BRANCH  10  11
HETATM   11  C4  UNL     1      10.744  25.924  29.427  1.00  0.00     0.227 C 
HETATM   12  N1  UNL     1      12.065  26.352  29.296  1.00  0.00    -0.357 N 
ATOM     13  H1  UNL     1      12.257  27.348  29.185  1.00  0.00     0.162 HD
HETATM   14  O1  UNL     1      10.534  24.671  29.571  1.00  0.00    -0.273 OA
BRANCH  12  15
HETATM   15  C3  UNL     1      13.174  25.412  29.316  1.00  0.00     0.149 C 
BRANCH  15  16
HETATM   16  C2  UNL     1      13.677  25.123  27.953  1.00  0.00    -0.018 C 
HETATM   17  C1  UNL     1      14.745  24.391  27.741  1.00  0.00     0.008 C 
ENDBRANCH  15  16
ENDBRANCH  12  15
ENDBRANCH  10  11
ENDBRANCH   9  10
ENDBRANCH   1   9
BRANCH   6  18
HETATM   18  N4  UNL     1       5.038  25.721  33.260  1.00  0.00    -0.115 N 
ATOM     19  H4  UNL     1       5.300  26.564  33.770  1.00  0.00     0.207 HD
BRANCH  18  20
HETATM   20  N5  UNL     1       3.863  25.069  33.610  1.00  0.00    -0.214 N 
HETATM   21  N6  UNL     1       3.100  25.648  34.458  1.00  0.00    -0.233 N 
ATOM     22  H6  UNL     1       2.229  25.197  34.737  1.00  0.00     0.209 HD
ATOM     23  H5  UNL     1       3.619  24.164  33.207  1.00  0.00     0.210 HD
BRANCH  21  24
HETATM   24  N7  UNL     1       3.437  26.888  35.009  1.00  0.00    -0.325 N 
HETATM   25  C8  UNL     1       2.618  28.029  34.663  1.00  0.00     0.169 C 
ATOM     26  H7  UNL     1       4.237  26.985  35.636  1.00  0.00     0.181 HD
ENDBRANCH  21  24
ENDBRANCH  18  20
ENDBRANCH   6  18
TORSDOF 8
ENDMDL
MODEL 5
REMARK VINA RESULT: -7.593414202      2.056      2.514
REMARK  8 active torsions:
REMARK  status: ('A' for Active; 'I' for Inactive)
REMARK    1  A    between atoms: C2_2  and  C3_3 
REMARK    2  A    between atoms: C3_3  and  N1_4 
REMARK       I    between atoms: N1_4  and  C4_6 
REMARK    3  A    between atoms: C4_6  and  C5_8 
REMARK    4  A    between atoms: C5_8  and  S1_9 
REMARK    5  A    between atoms: S1_9  and  C6_10 
REMARK    6  A    between atoms: C7_15  and  N4_16 
REMARK    7  A    between atoms: N4_16  and  N5_18 
REMARK    8  A    between atoms: N6_20  and  N7_22 
ROOT
HETATM    1  C6  UNL     1       4.759  25.012  32.921  1.00  0.00     0.174 A 
HETATM    2  N2  UNL     1       3.943  24.107  33.459  1.00  0.00    -0.265 N 
ATOM      3  H2  UNL     1       4.049  23.097  33.355  1.00  0.00     0.189 HD
HETATM    4  N3  UNL     1       2.978  24.694  34.147  1.00  0.00    -0.129 N 
ATOM      5  H3  UNL     1       2.232  24.214  34.651  1.00  0.00     0.205 HD
HETATM    6  C7  UNL     1       3.137  26.005  34.075  1.00  0.00     0.714 A 
HETATM    7  N8  UNL     1       4.234  26.206  33.321  1.00  0.00    -0.166 N 
ATOM      8  H8  UNL     1       4.618  27.121  33.082  1.00  0.00     0.186 HD
ENDROOT
BRANCH   1   9
HETATM    9  S1  UNL     1       6.214  24.866  31.906  1.00  0.00    -0.083 SA
BRANCH   9  10
HETATM   10  C5  UNL     1       5.939  25.358  30.195  1.00  0.00     0.185 C 
BRANCH  10  11
HETATM   11  C4  UNL     1       7.087  25.948  29.527  1.00  0.00     0.227 C 
HETATM   12  N1  UNL     1       8.284  26.293  30.155  1.00  0.00    -0.357 N 
ATOM     13  H1  UNL     1       8.387  26.128  31.156  1.00  0.00     0.162 HD
HETATM   14  O1  UNL     1       6.989  26.163  28.270  1.00  0.00    -0.273 OA
BRANCH  12  15
HETATM   15  C3  UNL     1       9.387  26.884  29.414  1.00  0.00     0.149 C 
BRANCH  15  16
HETATM   16  C2  UNL     1      10.566  25.989  29.373  1.00  0.00    -0.018 C 
HETATM   17  C1  UNL     1      10.487  24.711  29.663  1.00  0.00     0.008 C 
ENDBRANCH  15  16
ENDBRANCH  12  15
ENDBRANCH  10  11
ENDBRANCH   9  10
ENDBRANCH   1   9
BRANCH   6  18
HETATM   18  N4  UNL     1       2.351  27.056  34.650  1.00  0.00    -0.115 N 
ATOM     19  H4  UNL     1       2.415  27.221  35.654  1.00  0.00     0.207 HD
BRANCH  18  20
HETATM   20  N5  UNL     1       1.506  27.858  33.895  1.00  0.00    -0.214 N 
HETATM   21  N6  UNL     1       1.862  29.073  33.707  1.00  0.00    -0.233 N 
ATOM     22  H6  UNL     1       1.264  29.691  33.158  1.00  0.00     0.209 HD
ATOM     23  H5  UNL     1       0.636  27.494  33.506  1.00  0.00     0.210 HD
BRANCH  21  24
HETATM   24  N7  UNL     1       3.055  29.570  34.242  1.00  0.00    -0.325 N 
HETATM   25  C8  UNL     1       3.426  30.931  33.919  1.00  0.00     0.169 C 
ATOM     26  H7  UNL     1       3.644  28.992  34.841  1.00  0.00     0.181 HD
ENDBRANCH  21  24
ENDBRANCH  18  20
ENDBRANCH   6  18
TORSDOF 8
ENDMDL
