MODEL 1
REMARK VINA RESULT: -7.676434380      0.000      0.000
REMARK  9 active torsions:
REMARK  status: ('A' for Active; 'I' for Inactive)
REMARK    1  A    between atoms: C2_3  and  N1_4 
REMARK    2  A    between atoms: N1_4  and  C3_6 
REMARK    3  A    between atoms: C3_6  and  C4_7 
REMARK    4  A    between atoms: C4_7  and  N2_8 
REMARK    5  A    between atoms: N2_8  and  C5_11 
REMARK    6  A    between atoms: C5_11  and  C6_12 
REMARK    7  A    between atoms: C6_12  and  O2_13 
REMARK    8  A    between atoms: C7_15  and  N3_16 
REMARK    9  A    between atoms: N3_16  and  C8_18 
ROOT
HETATM    1  O1  UNL     1       5.412  25.842  29.227  1.00  0.00    -0.281 OA
HETATM    2  C1  UNL     1       6.614  25.525  29.505  1.00  0.00     0.252 A 
HETATM    3  C2  UNL     1       7.245  24.801  30.481  1.00  0.00     0.114 A 
HETATM    4  C7  UNL     1       8.454  25.086  29.860  1.00  0.00     0.119 A 
HETATM    5  C13 UNL     1       7.813  25.808  28.894  1.00  0.00     0.253 A 
HETATM    6  O3  UNL     1       8.125  26.469  27.869  1.00  0.00    -0.281 OA
ENDROOT
BRANCH   3   7
HETATM    7  N1  UNL     1       6.776  24.054  31.607  1.00  0.00    -0.383 N 
ATOM      8  H1  UNL     1       6.876  23.039  31.634  1.00  0.00     0.159 HD
BRANCH   7   9
HETATM    9  C3  UNL     1       6.168  24.750  32.687  1.00  0.00     0.147 C 
BRANCH   9  10
HETATM   10  C4  UNL     1       4.696  25.001  32.578  1.00  0.00     0.251 C 
BRANCH  10  11
HETATM   11  N2  UNL     1       4.464  26.397  32.304  1.00  0.00    -0.072 N 
ATOM     12  H22 UNL     1       5.282  26.949  32.560  1.00  0.00     0.277 HD
ATOM     13  H21 UNL     1       4.447  26.563  31.298  1.00  0.00     0.277 HD
BRANCH  11  14
HETATM   14  C5  UNL     1       3.286  26.937  32.916  1.00  0.00     0.258 C 
BRANCH  14  15
HETATM   15  C6  UNL     1       3.014  26.239  34.258  1.00  0.00     0.191 C 
BRANCH  15  16
HETATM   16  O2  UNL     1       3.779  26.801  35.285  1.00  0.00    -0.399 OA
ATOM     17  H2  UNL     1       3.250  26.967  36.056  1.00  0.00     0.209 HD
ENDBRANCH  15  16
ENDBRANCH  14  15
ENDBRANCH  11  14
ENDBRANCH  10  11
ENDBRANCH   9  10
ENDBRANCH   7   9
ENDBRANCH   3   7
BRANCH   4  18
HETATM   18  N3  UNL     1       9.803  24.727  30.134  1.00  0.00    -0.337 N 
ATOM     19  H3  UNL     1      10.046  24.314  31.034  1.00  0.00     0.167 HD
BRANCH  18  20
HETATM   20  C8  UNL     1      10.805  24.939  29.163  1.00  0.00     0.105 A 
HETATM   21  C9  UNL     1      12.092  25.268  29.596  1.00  0.00     0.048 A 
HETATM   22  C10 UNL     1      13.106  25.481  28.699  1.00  0.00     0.005 A 
HETATM   23  C11 UNL     1      12.831  25.364  27.335  1.00  0.00     0.017 A 
HETATM   24  C12 UNL     1      11.542  25.035  26.919  1.00  0.00     0.089 A 
HETATM   25  N4  UNL     1      10.596  24.839  27.850  1.00  0.00    -0.352 N 
ATOM     26  H4  UNL     1       9.657  24.597  27.533  1.00  0.00     0.166 HD
ENDBRANCH  18  20
ENDBRANCH   4  18
TORSDOF 9
ENDMDL
MODEL 2
REMARK VINA RESULT: -7.399309025      3.502      5.607
REMARK  9 active torsions:
REMARK  status: ('A' for Active; 'I' for Inactive)
REMARK    1  A    between atoms: C2_3  and  N1_4 
REMARK    2  A    between atoms: N1_4  and  C3_6 
REMARK    3  A    between atoms: C3_6  and  C4_7 
REMARK    4  A    between atoms: C4_7  and  N2_8 
REMARK    5  A    between atoms: N2_8  and  C5_11 
REMARK    6  A    between atoms: C5_11  and  C6_12 
REMARK    7  A    between atoms: C6_12  and  O2_13 
REMARK    8  A    between atoms: C7_15  and  N3_16 
REMARK    9  A    between atoms: N3_16  and  C8_18 
ROOT
HETATM    1  O1  UNL     1       2.931  25.825  35.240  1.00  0.00    -0.281 OA
HETATM    2  C1  UNL     1       3.300  25.518  34.060  1.00  0.00     0.252 A 
HETATM    3  C2  UNL     1       3.588  26.196  32.906  1.00  0.00     0.114 A 
HETATM    4  C7  UNL     1       3.857  24.976  32.299  1.00  0.00     0.119 A 
HETATM    5  C13 UNL     1       3.565  24.311  33.456  1.00  0.00     0.253 A 
HETATM    6  O3  UNL     1       3.531  23.118  33.857  1.00  0.00    -0.281 OA
ENDROOT
BRANCH   3   7
HETATM    7  N1  UNL     1       3.620  27.585  32.566  1.00  0.00    -0.383 N 
ATOM      8  H1  UNL     1       4.446  27.993  32.128  1.00  0.00     0.159 HD
BRANCH   7   9
HETATM    9  C3  UNL     1       2.481  28.387  32.850  1.00  0.00     0.147 C 
BRANCH   9  10
HETATM   10  C4  UNL     1       2.472  29.092  34.171  1.00  0.00     0.251 C 
BRANCH  10  11
HETATM   11  N2  UNL     1       1.122  29.155  34.674  1.00  0.00    -0.072 N 
ATOM     12  H22 UNL     1       0.609  28.311  34.419  1.00  0.00     0.277 HD
ATOM     13  H21 UNL     1       1.117  29.063  35.690  1.00  0.00     0.277 HD
BRANCH  11  14
HETATM   14  C5  UNL     1       0.391  30.322  34.277  1.00  0.00     0.258 C 
BRANCH  14  15
HETATM   15  C6  UNL     1      -0.953  29.923  33.650  1.00  0.00     0.191 C 
BRANCH  15  16
HETATM   16  O2  UNL     1      -0.910  28.617  33.148  1.00  0.00    -0.399 OA
ATOM     17  H2  UNL     1      -1.562  28.067  33.566  1.00  0.00     0.209 HD
ENDBRANCH  15  16
ENDBRANCH  14  15
ENDBRANCH  11  14
ENDBRANCH  10  11
ENDBRANCH   9  10
ENDBRANCH   7   9
ENDBRANCH   3   7
BRANCH   4  18
HETATM   18  N3  UNL     1       4.292  24.607  30.997  1.00  0.00    -0.337 N 
ATOM     19  H3  UNL     1       3.634  24.184  30.342  1.00  0.00     0.167 HD
BRANCH  18  20
HETATM   20  C8  UNL     1       5.631  24.824  30.607  1.00  0.00     0.105 A 
HETATM   21  C9  UNL     1       5.883  25.698  29.547  1.00  0.00     0.048 A 
HETATM   22  C10 UNL     1       7.164  25.950  29.128  1.00  0.00     0.005 A 
HETATM   23  C11 UNL     1       8.221  25.315  29.782  1.00  0.00     0.017 A 
HETATM   24  C12 UNL     1       7.954  24.445  30.838  1.00  0.00     0.089 A 
HETATM   25  N4  UNL     1       6.676  24.244  31.198  1.00  0.00    -0.352 N 
ATOM     26  H4  UNL     1       6.494  23.606  31.973  1.00  0.00     0.166 HD
ENDBRANCH  18  20
ENDBRANCH   4  18
TORSDOF 9
ENDMDL
MODEL 3
REMARK VINA RESULT: -7.386348073      1.318      1.538
REMARK  9 active torsions:
REMARK  status: ('A' for Active; 'I' for Inactive)
REMARK    1  A    between atoms: C2_3  and  N1_4 
REMARK    2  A    between atoms: N1_4  and  C3_6 
REMARK    3  A    between atoms: C3_6  and  C4_7 
REMARK    4  A    between atoms: C4_7  and  N2_8 
REMARK    5  A    between atoms: N2_8  and  C5_11 
REMARK    6  A    between atoms: C5_11  and  C6_12 
REMARK    7  A    between atoms: C6_12  and  O2_13 
REMARK    8  A    between atoms: C7_15  and  N3_16 
REMARK    9  A    between atoms: N3_16  and  C8_18 
ROOT
HETATM    1  O1  UNL     1       5.054  23.959  29.068  1.00  0.00    -0.281 OA
HETATM    2  C1  UNL     1       6.014  24.706  29.447  1.00  0.00     0.252 A 
HETATM    3  C2  UNL     1       6.731  24.887  30.599  1.00  0.00     0.114 A 
HETATM    4  C7  UNL     1       7.465  25.868  29.946  1.00  0.00     0.119 A 
HETATM    5  C13 UNL     1       6.740  25.680  28.803  1.00  0.00     0.253 A 
HETATM    6  O3  UNL     1       6.704  26.157  27.639  1.00  0.00    -0.281 OA
ENDROOT
BRANCH   3   7
HETATM    7  N1  UNL     1       6.703  24.254  31.882  1.00  0.00    -0.383 N 
ATOM      8  H1  UNL     1       7.270  23.426  32.064  1.00  0.00     0.159 HD
BRANCH   7   9
HETATM    9  C3  UNL     1       5.871  24.799  32.898  1.00  0.00     0.147 C 
BRANCH   9  10
HETATM   10  C4  UNL     1       4.492  25.212  32.485  1.00  0.00     0.251 C 
BRANCH  10  11
HETATM   11  N2  UNL     1       4.343  26.636  32.660  1.00  0.00    -0.072 N 
ATOM     12  H22 UNL     1       5.061  26.992  33.290  1.00  0.00     0.277 HD
ATOM     13  H21 UNL     1       4.599  27.128  31.804  1.00  0.00     0.277 HD
BRANCH  11  14
HETATM   14  C5  UNL     1       3.044  27.048  33.101  1.00  0.00     0.258 C 
BRANCH  14  15
HETATM   15  C6  UNL     1       2.763  26.512  34.513  1.00  0.00     0.191 C 
BRANCH  15  16
HETATM   16  O2  UNL     1       3.816  26.810  35.386  1.00  0.00    -0.399 OA
ATOM     17  H2  UNL     1       3.493  27.029  36.252  1.00  0.00     0.209 HD
ENDBRANCH  15  16
ENDBRANCH  14  15
ENDBRANCH  11  14
ENDBRANCH  10  11
ENDBRANCH   9  10
ENDBRANCH   7   9
ENDBRANCH   3   7
BRANCH   4  18
HETATM   18  N3  UNL     1       8.553  26.697  30.335  1.00  0.00    -0.337 N 
ATOM     19  H3  UNL     1       8.397  27.467  30.984  1.00  0.00     0.167 HD
BRANCH  18  20
HETATM   20  C8  UNL     1       9.847  26.457  29.825  1.00  0.00     0.105 A 
HETATM   21  C9  UNL     1      10.284  25.135  29.714  1.00  0.00     0.048 A 
HETATM   22  C10 UNL     1      11.529  24.841  29.221  1.00  0.00     0.005 A 
HETATM   23  C11 UNL     1      12.360  25.892  28.829  1.00  0.00     0.017 A 
HETATM   24  C12 UNL     1      11.910  27.206  28.946  1.00  0.00     0.089 A 
HETATM   25  N4  UNL     1      10.679  27.423  29.436  1.00  0.00    -0.352 N 
ATOM     26  H4  UNL     1      10.360  28.389  29.515  1.00  0.00     0.166 HD
ENDBRANCH  18  20
ENDBRANCH   4  18
TORSDOF 9
ENDMDL
MODEL 4
REMARK VINA RESULT: -7.200430264      2.536      8.449
REMARK  9 active torsions:
REMARK  status: ('A' for Active; 'I' for Inactive)
REMARK    1  A    between atoms: C2_3  and  N1_4 
REMARK    2  A    between atoms: N1_4  and  C3_6 
REMARK    3  A    between atoms: C3_6  and  C4_7 
REMARK    4  A    between atoms: C4_7  and  N2_8 
REMARK    5  A    between atoms: N2_8  and  C5_11 
REMARK    6  A    between atoms: C5_11  and  C6_12 
REMARK    7  A    between atoms: C6_12  and  O2_13 
REMARK    8  A    between atoms: C7_15  and  N3_16 
REMARK    9  A    between atoms: N3_16  and  C8_18 
ROOT
HETATM    1  O1  UNL     1       3.668  22.982  33.848  1.00  0.00    -0.281 OA
HETATM    2  C1  UNL     1       3.691  24.213  33.522  1.00  0.00     0.252 A 
HETATM    3  C2  UNL     1       4.252  24.961  32.522  1.00  0.00     0.114 A 
HETATM    4  C7  UNL     1       3.679  26.089  33.093  1.00  0.00     0.119 A 
HETATM    5  C13 UNL     1       3.128  25.333  34.087  1.00  0.00     0.253 A 
HETATM    6  O3  UNL     1       2.409  25.519  35.105  1.00  0.00    -0.281 OA
ENDROOT
BRANCH   3   7
HETATM    7  N1  UNL     1       5.044  24.631  31.377  1.00  0.00    -0.383 N 
ATOM      8  H1  UNL     1       5.058  23.678  31.013  1.00  0.00     0.159 HD
BRANCH   7   9
HETATM    9  C3  UNL     1       5.811  25.655  30.755  1.00  0.00     0.147 C 
BRANCH   9  10
HETATM   10  C4  UNL     1       5.943  25.581  29.266  1.00  0.00     0.251 C 
BRANCH  10  11
HETATM   11  N2  UNL     1       7.289  25.932  28.884  1.00  0.00    -0.072 N 
ATOM     12  H22 UNL     1       7.691  25.202  28.295  1.00  0.00     0.277 HD
ATOM     13  H21 UNL     1       7.279  26.707  28.221  1.00  0.00     0.277 HD
BRANCH  11  14
HETATM   14  C5  UNL     1       8.162  26.226  29.981  1.00  0.00     0.258 C 
BRANCH  14  15
HETATM   15  C6  UNL     1       9.536  25.576  29.759  1.00  0.00     0.191 C 
BRANCH  15  16
HETATM   16  O2  UNL     1       9.556  24.259  30.234  1.00  0.00    -0.399 OA
ATOM     17  H2  UNL     1       8.918  23.721  29.781  1.00  0.00     0.209 HD
ENDBRANCH  15  16
ENDBRANCH  14  15
ENDBRANCH  11  14
ENDBRANCH  10  11
ENDBRANCH   9  10
ENDBRANCH   7   9
ENDBRANCH   3   7
BRANCH   4  18
HETATM   18  N3  UNL     1       3.668  27.466  32.738  1.00  0.00    -0.337 N 
ATOM     19  H3  UNL     1       4.364  27.829  32.087  1.00  0.00     0.167 HD
BRANCH  18  20
HETATM   20  C8  UNL     1       2.698  28.333  33.285  1.00  0.00     0.105 A 
HETATM   21  C9  UNL     1       1.795  28.954  32.418  1.00  0.00     0.048 A 
HETATM   22  C10 UNL     1       0.829  29.802  32.893  1.00  0.00     0.005 A 
HETATM   23  C11 UNL     1       0.760  30.037  34.268  1.00  0.00     0.017 A 
HETATM   24  C12 UNL     1       1.667  29.411  35.120  1.00  0.00     0.089 A 
HETATM   25  N4  UNL     1       2.588  28.591  34.589  1.00  0.00    -0.352 N 
ATOM     26  H4  UNL     1       3.246  28.137  35.223  1.00  0.00     0.166 HD
ENDBRANCH  18  20
ENDBRANCH   4  18
TORSDOF 9
ENDMDL
MODEL 5
REMARK VINA RESULT: -7.160835109      2.604      8.414
REMARK  9 active torsions:
REMARK  status: ('A' for Active; 'I' for Inactive)
REMARK    1  A    between atoms: C2_3  and  N1_4 
REMARK    2  A    between atoms: N1_4  and  C3_6 
REMARK    3  A    between atoms: C3_6  and  C4_7 
REMARK    4  A    between atoms: C4_7  and  N2_8 
REMARK    5  A    between atoms: N2_8  and  C5_11 
REMARK    6  A    between atoms: C5_11  and  C6_12 
REMARK    7  A    between atoms: C6_12  and  O2_13 
REMARK    8  A    between atoms: C7_15  and  N3_16 
REMARK    9  A    between atoms: N3_16  and  C8_18 
ROOT
HETATM    1  O1  UNL     1       3.362  23.271  34.021  1.00  0.00    -0.281 OA
HETATM    2  C1  UNL     1       3.474  24.482  33.642  1.00  0.00     0.252 A 
HETATM    3  C2  UNL     1       4.049  25.140  32.588  1.00  0.00     0.114 A 
HETATM    4  C7  UNL     1       3.599  26.335  33.135  1.00  0.00     0.119 A 
HETATM    5  C13 UNL     1       3.033  25.667  34.183  1.00  0.00     0.253 A 
HETATM    6  O3  UNL     1       2.381  25.953  35.222  1.00  0.00    -0.281 OA
ENDROOT
BRANCH   3   7
HETATM    7  N1  UNL     1       4.756  24.700  31.425  1.00  0.00    -0.383 N 
ATOM      8  H1  UNL     1       4.562  23.786  31.015  1.00  0.00     0.159 HD
BRANCH   7   9
HETATM    9  C3  UNL     1       5.735  25.557  30.852  1.00  0.00     0.147 C 
BRANCH   9  10
HETATM   10  C4  UNL     1       5.831  25.560  29.358  1.00  0.00     0.251 C 
BRANCH  10  11
HETATM   11  N2  UNL     1       7.153  25.977  28.961  1.00  0.00    -0.072 N 
ATOM     12  H22 UNL     1       7.530  25.340  28.259  1.00  0.00     0.277 HD
ATOM     13  H21 UNL     1       7.104  26.835  28.411  1.00  0.00     0.277 HD
BRANCH  11  14
HETATM   14  C5  UNL     1       8.079  26.131  30.043  1.00  0.00     0.258 C 
BRANCH  14  15
HETATM   15  C6  UNL     1       9.475  26.485  29.505  1.00  0.00     0.191 C 
BRANCH  15  16
HETATM   16  O2  UNL     1       9.832  27.794  29.848  1.00  0.00    -0.399 OA
ATOM     17  H2  UNL     1      10.380  27.808  30.624  1.00  0.00     0.209 HD
ENDBRANCH  15  16
ENDBRANCH  14  15
ENDBRANCH  11  14
ENDBRANCH  10  11
ENDBRANCH   9  10
ENDBRANCH   7   9
ENDBRANCH   3   7
BRANCH   4  18
HETATM   18  N3  UNL     1       3.688  27.693  32.723  1.00  0.00    -0.337 N 
ATOM     19  H3  UNL     1       4.467  27.997  32.140  1.00  0.00     0.167 HD
BRANCH  18  20
HETATM   20  C8  UNL     1       2.701  28.621  33.119  1.00  0.00     0.105 A 
HETATM   21  C9  UNL     1       3.108  29.895  33.521  1.00  0.00     0.048 A 
HETATM   22  C10 UNL     1       2.193  30.838  33.912  1.00  0.00     0.005 A 
HETATM   23  C11 UNL     1       0.838  30.503  33.902  1.00  0.00     0.017 A 
HETATM   24  C12 UNL     1       0.447  29.228  33.499  1.00  0.00     0.089 A 
HETATM   25  N4  UNL     1       1.395  28.352  33.127  1.00  0.00    -0.352 N 
ATOM     26  H4  UNL     1       1.097  27.422  32.833  1.00  0.00     0.166 HD
ENDBRANCH  18  20
ENDBRANCH   4  18
TORSDOF 9
ENDMDL
