MODEL 1
REMARK VINA RESULT: -6.141785993      0.000      0.000
REMARK  10 active torsions:
REMARK  status: ('A' for Active; 'I' for Inactive)
REMARK    1  A    between atoms: N1_1  and  C1_5 
REMARK    2  A    between atoms: C1_5  and  C2_6 
REMARK    3  A    between atoms: C3_9  and  S1_10 
REMARK    4  A    between atoms: S1_10  and  C4_11 
REMARK    5  A    between atoms: C4_11  and  C5_12 
REMARK    6  A    between atoms: C5_12  and  O1_13 
REMARK    7  A    between atoms: O1_13  and  C6_14 
REMARK    8  A    between atoms: C6_14  and  C7_15 
REMARK    9  A    between atoms: C7_15  and  S2_16 
REMARK   10  A    between atoms: S2_16  and  N3_17 
ROOT
HETATM    1  C2  UNL     1       3.991  26.016  32.955  1.00  0.00     0.078 A 
HETATM    2  N2  UNL     1       4.932  26.395  32.061  1.00  0.00    -0.336 N 
ATOM      3  H2  UNL     1       5.057  27.347  31.716  1.00  0.00     0.168 HD
HETATM    4  C3  UNL     1       5.660  25.367  31.700  1.00  0.00     0.146 A 
HETATM    5  N4  UNL     1       5.201  24.265  32.346  1.00  0.00    -0.324 N 
ATOM      6  H4  UNL     1       5.567  23.317  32.257  1.00  0.00     0.169 HD
HETATM    7  C8  UNL     1       4.178  24.649  33.119  1.00  0.00     0.142 A 
HETATM    8  N5  UNL     1       3.426  23.738  33.944  1.00  0.00    -0.081 NA
ENDROOT
BRANCH   4   9
HETATM    9  S1  UNL     1       7.151  25.223  30.700  1.00  0.00    -0.092 SA
BRANCH   9  10
HETATM   10  C4  UNL     1       6.615  25.756  28.998  1.00  0.00     0.108 C 
BRANCH  10  11
HETATM   11  C5  UNL     1       7.871  26.142  28.293  1.00  0.00     0.178 C 
BRANCH  11  12
HETATM   12  O1  UNL     1       8.886  26.302  29.298  1.00  0.00    -0.390 OA
BRANCH  12  13
HETATM   13  C6  UNL     1       9.745  27.299  28.897  1.00  0.00     0.179 C 
BRANCH  13  14
HETATM   14  C7  UNL     1      11.184  26.926  29.085  1.00  0.00     0.123 C 
BRANCH  14  15
HETATM   15  S2  UNL     1      11.313  25.113  29.347  1.00  0.00    -0.061 SA
BRANCH  15  16
HETATM   16  N3  UNL     1      10.924  24.257  27.854  1.00  0.00    -0.374 N 
ATOM     17  H32 UNL     1       9.980  24.158  27.481  1.00  0.00     0.164 HD
ATOM     18  H31 UNL     1      11.774  23.884  27.432  1.00  0.00     0.164 HD
ENDBRANCH  15  16
ENDBRANCH  14  15
ENDBRANCH  13  14
ENDBRANCH  12  13
ENDBRANCH  11  12
ENDBRANCH  10  11
ENDBRANCH   9  10
ENDBRANCH   4   9
BRANCH   1  19
HETATM   19  C1  UNL     1       3.053  26.816  33.754  1.00  0.00     0.290 C 
BRANCH  19  20
HETATM   20  N1  UNL     1       3.435  26.808  35.169  1.00  0.00    -0.074 N 
ATOM     21  H13 UNL     1       2.801  27.372  35.735  1.00  0.00     0.274 HD
ATOM     22  H12 UNL     1       3.261  25.900  35.602  1.00  0.00     0.274 HD
ATOM     23  H11 UNL     1       4.405  27.101  35.284  1.00  0.00     0.274 HD
ENDBRANCH  19  20
ENDBRANCH   1  19
TORSDOF 10
ENDMDL
MODEL 2
REMARK VINA RESULT: -6.108417464      1.339      1.339
REMARK  10 active torsions:
REMARK  status: ('A' for Active; 'I' for Inactive)
REMARK    1  A    between atoms: N1_1  and  C1_5 
REMARK    2  A    between atoms: C1_5  and  C2_6 
REMARK    3  A    between atoms: C3_9  and  S1_10 
REMARK    4  A    between atoms: S1_10  and  C4_11 
REMARK    5  A    between atoms: C4_11  and  C5_12 
REMARK    6  A    between atoms: C5_12  and  O1_13 
REMARK    7  A    between atoms: O1_13  and  C6_14 
REMARK    8  A    between atoms: C6_14  and  C7_15 
REMARK    9  A    between atoms: C7_15  and  S2_16 
REMARK   10  A    between atoms: S2_16  and  N3_17 
ROOT
HETATM    1  C2  UNL     1       3.885  25.816  33.148  1.00  0.00     0.078 A 
HETATM    2  N2  UNL     1       4.749  26.445  32.318  1.00  0.00    -0.336 N 
ATOM      3  H2  UNL     1       4.744  27.446  32.125  1.00  0.00     0.168 HD
HETATM    4  C3  UNL     1       5.591  25.587  31.798  1.00  0.00     0.146 A 
HETATM    5  N4  UNL     1       5.291  24.349  32.267  1.00  0.00    -0.324 N 
ATOM      6  H4  UNL     1       5.772  23.481  32.030  1.00  0.00     0.169 HD
HETATM    7  C8  UNL     1       4.248  24.475  33.096  1.00  0.00     0.142 A 
HETATM    8  N5  UNL     1       3.638  23.359  33.774  1.00  0.00    -0.081 NA
ENDROOT
BRANCH   4   9
HETATM    9  S1  UNL     1       7.063  25.791  30.780  1.00  0.00    -0.092 SA
BRANCH   9  10
HETATM   10  C4  UNL     1       6.426  25.718  29.032  1.00  0.00     0.108 C 
BRANCH  10  11
HETATM   11  C5  UNL     1       7.608  26.003  28.169  1.00  0.00     0.178 C 
BRANCH  11  12
HETATM   12  O1  UNL     1       8.739  25.359  28.781  1.00  0.00    -0.390 OA
BRANCH  12  13
HETATM   13  C6  UNL     1       9.716  25.193  27.826  1.00  0.00     0.179 C 
BRANCH  13  14
HETATM   14  C7  UNL     1      11.050  24.857  28.423  1.00  0.00     0.123 C 
BRANCH  14  15
HETATM   15  S2  UNL     1      11.868  26.400  28.991  1.00  0.00    -0.061 SA
BRANCH  15  16
HETATM   16  N3  UNL     1      10.656  27.621  29.380  1.00  0.00    -0.374 N 
ATOM     17  H32 UNL     1      10.353  27.845  30.327  1.00  0.00     0.164 HD
ATOM     18  H31 UNL     1      10.312  28.058  28.525  1.00  0.00     0.164 HD
ENDBRANCH  15  16
ENDBRANCH  14  15
ENDBRANCH  13  14
ENDBRANCH  12  13
ENDBRANCH  11  12
ENDBRANCH  10  11
ENDBRANCH   9  10
ENDBRANCH   4   9
BRANCH   1  19
HETATM   19  C1  UNL     1       2.875  26.356  34.066  1.00  0.00     0.290 C 
BRANCH  19  20
HETATM   20  N1  UNL     1       3.508  26.958  35.242  1.00  0.00    -0.074 N 
ATOM     21  H13 UNL     1       4.162  27.697  34.982  1.00  0.00     0.274 HD
ATOM     22  H12 UNL     1       2.848  27.519  35.781  1.00  0.00     0.274 HD
ATOM     23  H11 UNL     1       3.955  26.245  35.818  1.00  0.00     0.274 HD
ENDBRANCH  19  20
ENDBRANCH   1  19
TORSDOF 10
ENDMDL
MODEL 3
REMARK VINA RESULT: -5.985268167      1.002      1.002
REMARK  10 active torsions:
REMARK  status: ('A' for Active; 'I' for Inactive)
REMARK    1  A    between atoms: N1_1  and  C1_5 
REMARK    2  A    between atoms: C1_5  and  C2_6 
REMARK    3  A    between atoms: C3_9  and  S1_10 
REMARK    4  A    between atoms: S1_10  and  C4_11 
REMARK    5  A    between atoms: C4_11  and  C5_12 
REMARK    6  A    between atoms: C5_12  and  O1_13 
REMARK    7  A    between atoms: O1_13  and  C6_14 
REMARK    8  A    between atoms: C6_14  and  C7_15 
REMARK    9  A    between atoms: C7_15  and  S2_16 
REMARK   10  A    between atoms: S2_16  and  N3_17 
ROOT
HETATM    1  C2  UNL     1       3.982  26.013  33.004  1.00  0.00     0.078 A 
HETATM    2  N2  UNL     1       4.942  26.265  32.085  1.00  0.00    -0.336 N 
ATOM      3  H2  UNL     1       5.132  27.181  31.680  1.00  0.00     0.168 HD
HETATM    4  C3  UNL     1       5.591  25.167  31.789  1.00  0.00     0.146 A 
HETATM    5  N4  UNL     1       5.060  24.144  32.505  1.00  0.00    -0.324 N 
ATOM      6  H4  UNL     1       5.357  23.169  32.476  1.00  0.00     0.169 HD
HETATM    7  C8  UNL     1       4.073  24.649  33.255  1.00  0.00     0.142 A 
HETATM    8  N5  UNL     1       3.263  23.848  34.139  1.00  0.00    -0.081 NA
ENDROOT
BRANCH   4   9
HETATM    9  S1  UNL     1       7.062  24.853  30.797  1.00  0.00    -0.092 SA
BRANCH   9  10
HETATM   10  C4  UNL     1       6.668  25.610  29.142  1.00  0.00     0.108 C 
BRANCH  10  11
HETATM   11  C5  UNL     1       7.968  26.123  28.623  1.00  0.00     0.178 C 
BRANCH  11  12
HETATM   12  O1  UNL     1       8.693  26.645  29.750  1.00  0.00    -0.390 OA
BRANCH  12  13
HETATM   13  C6  UNL     1       9.975  26.941  29.345  1.00  0.00     0.179 C 
BRANCH  13  14
HETATM   14  C7  UNL     1      10.887  25.753  29.414  1.00  0.00     0.123 C 
BRANCH  14  15
HETATM   15  S2  UNL     1      12.357  26.052  28.354  1.00  0.00    -0.061 SA
BRANCH  15  16
HETATM   16  N3  UNL     1      13.755  25.194  29.002  1.00  0.00    -0.374 N 
ATOM     17  H32 UNL     1      14.611  25.017  28.478  1.00  0.00     0.164 HD
ATOM     18  H31 UNL     1      13.575  24.907  29.964  1.00  0.00     0.164 HD
ENDBRANCH  15  16
ENDBRANCH  14  15
ENDBRANCH  13  14
ENDBRANCH  12  13
ENDBRANCH  11  12
ENDBRANCH  10  11
ENDBRANCH   9  10
ENDBRANCH   4   9
BRANCH   1  19
HETATM   19  C1  UNL     1       3.109  26.926  33.753  1.00  0.00     0.290 C 
BRANCH  19  20
HETATM   20  N1  UNL     1       3.444  26.914  35.180  1.00  0.00    -0.074 N 
ATOM     21  H13 UNL     1       4.357  26.492  35.350  1.00  0.00     0.274 HD
ATOM     22  H12 UNL     1       3.640  27.852  35.530  1.00  0.00     0.274 HD
ATOM     23  H11 UNL     1       2.711  26.455  35.720  1.00  0.00     0.274 HD
ENDBRANCH  19  20
ENDBRANCH   1  19
TORSDOF 10
ENDMDL
MODEL 4
REMARK VINA RESULT: -5.746337911      1.619      1.873
REMARK  10 active torsions:
REMARK  status: ('A' for Active; 'I' for Inactive)
REMARK    1  A    between atoms: N1_1  and  C1_5 
REMARK    2  A    between atoms: C1_5  and  C2_6 
REMARK    3  A    between atoms: C3_9  and  S1_10 
REMARK    4  A    between atoms: S1_10  and  C4_11 
REMARK    5  A    between atoms: C4_11  and  C5_12 
REMARK    6  A    between atoms: C5_12  and  O1_13 
REMARK    7  A    between atoms: O1_13  and  C6_14 
REMARK    8  A    between atoms: C6_14  and  C7_15 
REMARK    9  A    between atoms: C7_15  and  S2_16 
REMARK   10  A    between atoms: S2_16  and  N3_17 
ROOT
HETATM    1  C2  UNL     1       2.895  27.081  33.346  1.00  0.00     0.078 A 
HETATM    2  N2  UNL     1       3.836  26.980  32.381  1.00  0.00    -0.336 N 
ATOM      3  H2  UNL     1       3.953  27.640  31.611  1.00  0.00     0.168 HD
HETATM    4  C3  UNL     1       4.577  25.917  32.574  1.00  0.00     0.146 A 
HETATM    5  N4  UNL     1       4.126  25.271  33.679  1.00  0.00    -0.324 N 
ATOM      6  H4  UNL     1       4.503  24.408  34.069  1.00  0.00     0.169 HD
HETATM    7  C8  UNL     1       3.096  25.975  34.163  1.00  0.00     0.142 A 
HETATM    8  N5  UNL     1       2.349  25.580  35.331  1.00  0.00    -0.081 NA
ENDROOT
BRANCH   4   9
HETATM    9  S1  UNL     1       6.075  25.317  31.773  1.00  0.00    -0.092 SA
BRANCH   9  10
HETATM   10  C4  UNL     1       5.645  25.282  29.962  1.00  0.00     0.108 C 
BRANCH  10  11
HETATM   11  C5  UNL     1       6.820  25.879  29.266  1.00  0.00     0.178 C 
BRANCH  11  12
HETATM   12  O1  UNL     1       7.745  26.295  30.286  1.00  0.00    -0.390 OA
BRANCH  12  13
HETATM   13  C6  UNL     1       9.010  26.321  29.744  1.00  0.00     0.179 C 
BRANCH  13  14
HETATM   14  C7  UNL     1       9.710  25.001  29.861  1.00  0.00     0.123 C 
BRANCH  14  15
HETATM   15  S2  UNL     1      11.422  25.161  29.213  1.00  0.00    -0.061 SA
BRANCH  15  16
HETATM   16  N3  UNL     1      11.931  26.849  29.260  1.00  0.00    -0.374 N 
ATOM     17  H32 UNL     1      12.680  27.204  29.853  1.00  0.00     0.164 HD
ATOM     18  H31 UNL     1      11.370  27.402  28.613  1.00  0.00     0.164 HD
ENDBRANCH  15  16
ENDBRANCH  14  15
ENDBRANCH  13  14
ENDBRANCH  12  13
ENDBRANCH  11  12
ENDBRANCH  10  11
ENDBRANCH   9  10
ENDBRANCH   4   9
BRANCH   1  19
HETATM   19  C1  UNL     1       1.944  28.160  33.648  1.00  0.00     0.290 C 
BRANCH  19  20
HETATM   20  N1  UNL     1       2.013  28.533  35.063  1.00  0.00    -0.074 N 
ATOM     21  H13 UNL     1       2.890  29.003  35.288  1.00  0.00     0.274 HD
ATOM     22  H12 UNL     1       1.370  29.294  35.285  1.00  0.00     0.274 HD
ATOM     23  H11 UNL     1       1.856  27.722  35.661  1.00  0.00     0.274 HD
ENDBRANCH  19  20
ENDBRANCH   1  19
TORSDOF 10
ENDMDL
MODEL 5
REMARK VINA RESULT: -5.598576871      5.174      8.521
REMARK  10 active torsions:
REMARK  status: ('A' for Active; 'I' for Inactive)
REMARK    1  A    between atoms: N1_1  and  C1_5 
REMARK    2  A    between atoms: C1_5  and  C2_6 
REMARK    3  A    between atoms: C3_9  and  S1_10 
REMARK    4  A    between atoms: S1_10  and  C4_11 
REMARK    5  A    between atoms: C4_11  and  C5_12 
REMARK    6  A    between atoms: C5_12  and  O1_13 
REMARK    7  A    between atoms: O1_13  and  C6_14 
REMARK    8  A    between atoms: C6_14  and  C7_15 
REMARK    9  A    between atoms: C7_15  and  S2_16 
REMARK   10  A    between atoms: S2_16  and  N3_17 
ROOT
HETATM    1  C2  UNL     1       4.407  25.631  32.535  1.00  0.00     0.078 A 
HETATM    2  N2  UNL     1       4.046  26.894  32.856  1.00  0.00    -0.336 N 
ATOM      3  H2  UNL     1       4.385  27.733  32.386  1.00  0.00     0.168 HD
HETATM    4  C3  UNL     1       3.201  26.888  33.857  1.00  0.00     0.146 A 
HETATM    5  N4  UNL     1       2.990  25.603  34.237  1.00  0.00    -0.324 N 
ATOM      6  H4  UNL     1       2.385  25.289  34.996  1.00  0.00     0.169 HD
HETATM    7  C8  UNL     1       3.722  24.821  33.434  1.00  0.00     0.142 A 
HETATM    8  N5  UNL     1       3.764  23.385  33.553  1.00  0.00    -0.081 NA
ENDROOT
BRANCH   4   9
HETATM    9  S1  UNL     1       2.226  28.189  34.634  1.00  0.00    -0.092 SA
BRANCH   9  10
HETATM   10  C4  UNL     1       2.413  29.647  33.491  1.00  0.00     0.108 C 
BRANCH  10  11
HETATM   11  C5  UNL     1       1.022  30.056  33.141  1.00  0.00     0.178 C 
BRANCH  11  12
HETATM   12  O1  UNL     1       0.245  28.851  33.036  1.00  0.00    -0.390 OA
BRANCH  12  13
HETATM   13  C6  UNL     1      -0.904  29.132  32.333  1.00  0.00     0.179 C 
BRANCH  13  14
HETATM   14  C7  UNL     1      -2.050  29.495  33.228  1.00  0.00     0.123 C 
BRANCH  14  15
HETATM   15  S2  UNL     1      -3.632  29.175  32.351  1.00  0.00    -0.061 SA
BRANCH  15  16
HETATM   16  N3  UNL     1      -3.663  27.520  31.742  1.00  0.00    -0.374 N 
ATOM     17  H32 UNL     1      -2.975  26.808  31.984  1.00  0.00     0.164 HD
ATOM     18  H31 UNL     1      -4.461  27.390  31.121  1.00  0.00     0.164 HD
ENDBRANCH  15  16
ENDBRANCH  14  15
ENDBRANCH  13  14
ENDBRANCH  12  13
ENDBRANCH  11  12
ENDBRANCH  10  11
ENDBRANCH   9  10
ENDBRANCH   4   9
BRANCH   1  19
HETATM   19  C1  UNL     1       5.196  25.117  31.408  1.00  0.00     0.290 C 
BRANCH  19  20
HETATM   20  N1  UNL     1       6.331  24.324  31.886  1.00  0.00    -0.074 N 
ATOM     21  H13 UNL     1       6.463  24.421  32.894  1.00  0.00     0.274 HD
ATOM     22  H12 UNL     1       6.133  23.323  31.853  1.00  0.00     0.274 HD
ATOM     23  H11 UNL     1       7.180  24.557  31.372  1.00  0.00     0.274 HD
ENDBRANCH  19  20
ENDBRANCH   1  19
TORSDOF 10
ENDMDL
