MODEL 1
REMARK VINA RESULT: -8.670626247      0.000      0.000
REMARK  10 active torsions:
REMARK  status: ('A' for Active; 'I' for Inactive)
REMARK    1  A    between atoms: N1_1  and  C1_5 
REMARK    2  A    between atoms: C1_5  and  C2_6 
REMARK    3  A    between atoms: C2_6  and  C3_7 
REMARK    4  A    between atoms: C3_7  and  C4_8 
REMARK    5  A    between atoms: C4_8  and  N2_9 
REMARK    6  A    between atoms: C4_8  and  C5_13 
REMARK    7  A    between atoms: C5_13  and  N3_14 
REMARK    8  A    between atoms: C5_13  and  N4_18 
REMARK    9  A    between atoms: N4_18  and  C6_20 
REMARK   10  A    between atoms: C6_20  and  C7_21 
ROOT
HETATM    1  C5  UNL     1       2.792  27.607  33.335  1.00  0.00     0.312 C 
ENDROOT
BRANCH   1   2
HETATM    2  C4  UNL     1       2.518  29.039  32.910  1.00  0.00     0.233 C 
BRANCH   2   3
HETATM    3  C3  UNL     1       1.111  29.448  33.185  1.00  0.00     0.038 C 
BRANCH   3   4
HETATM    4  C2  UNL     1       0.720  30.144  34.409  1.00  0.00     0.029 C 
BRANCH   4   5
HETATM    5  C1  UNL     1      -0.010  31.449  34.172  1.00  0.00     0.229 C 
BRANCH   5   6
HETATM    6  N1  UNL     1       0.651  32.238  33.144  1.00  0.00    -0.079 N 
ATOM      7  H13 UNL     1       1.594  31.896  32.956  1.00  0.00     0.274 HD
ATOM      8  H12 UNL     1       0.241  32.076  32.224  1.00  0.00     0.274 HD
ATOM      9  H11 UNL     1       0.652  33.229  33.387  1.00  0.00     0.274 HD
ENDBRANCH   5   6
ENDBRANCH   4   5
ENDBRANCH   3   4
ENDBRANCH   2   3
BRANCH   2  10
HETATM   10  N2  UNL     1       3.435  29.973  33.500  1.00  0.00    -0.071 N 
ATOM     11  H23 UNL     1       3.105  30.308  34.405  1.00  0.00     0.274 HD
ATOM     12  H22 UNL     1       4.294  29.517  33.811  1.00  0.00     0.274 HD
ATOM     13  H21 UNL     1       3.624  30.742  32.857  1.00  0.00     0.274 HD
ENDBRANCH   2  10
ENDBRANCH   1   2
BRANCH   1  14
HETATM   14  N3  UNL     1       3.109  27.620  34.785  1.00  0.00    -0.056 N 
ATOM     15  H33 UNL     1       3.971  27.120  35.006  1.00  0.00     0.276 HD
ATOM     16  H32 UNL     1       3.397  28.539  35.120  1.00  0.00     0.276 HD
ATOM     17  H31 UNL     1       2.298  27.253  35.283  1.00  0.00     0.276 HD
ENDBRANCH   1  14
BRANCH   1  18
HETATM   18  N4  UNL     1       3.864  26.971  32.706  1.00  0.00    -0.367 N 
ATOM     19  H4  UNL     1       4.555  27.566  32.249  1.00  0.00     0.161 HD
BRANCH  18  20
HETATM   20  C6  UNL     1       4.075  25.579  32.645  1.00  0.00     0.143 C 
BRANCH  20  21
HETATM   21  C7  UNL     1       5.369  25.497  31.840  1.00  0.00     0.187 A 
HETATM   22  N5  UNL     1       6.456  26.184  31.661  1.00  0.00    -0.318 N 
HETATM   23  C8  UNL     1       7.287  25.535  30.778  1.00  0.00     0.138 A 
ATOM     24  H5  UNL     1       6.665  27.075  32.111  1.00  0.00     0.169 HD
HETATM   25  C9  UNL     1       8.537  25.823  30.135  1.00  0.00     0.010 A 
HETATM   26  N6  UNL     1       6.605  24.391  30.421  1.00  0.00    -0.242 N 
HETATM   27  C10 UNL     1       9.001  27.044  29.769  1.00  0.00     0.015 A 
HETATM   28  C14 UNL     1       9.406  24.739  29.983  1.00  0.00     0.015 A 
HETATM   29  C11 UNL     1      10.274  27.215  29.273  1.00  0.00     0.001 A 
HETATM   30  C12 UNL     1      11.090  26.180  29.127  1.00  0.00     0.000 A 
HETATM   31  C13 UNL     1      10.674  24.893  29.473  1.00  0.00     0.001 A 
HETATM   32  O1  UNL     1       5.502  24.416  31.058  1.00  0.00    -0.217 OA
ATOM     33  H6  UNL     1       6.922  23.668  29.774  1.00  0.00     0.196 HD
ENDBRANCH  20  21
ENDBRANCH  18  20
ENDBRANCH   1  18
TORSDOF 10
ENDMDL
MODEL 2
REMARK VINA RESULT: -8.588040564      1.802      2.446
REMARK  10 active torsions:
REMARK  status: ('A' for Active; 'I' for Inactive)
REMARK    1  A    between atoms: N1_1  and  C1_5 
REMARK    2  A    between atoms: C1_5  and  C2_6 
REMARK    3  A    between atoms: C2_6  and  C3_7 
REMARK    4  A    between atoms: C3_7  and  C4_8 
REMARK    5  A    between atoms: C4_8  and  N2_9 
REMARK    6  A    between atoms: C4_8  and  C5_13 
REMARK    7  A    between atoms: C5_13  and  N3_14 
REMARK    8  A    between atoms: C5_13  and  N4_18 
REMARK    9  A    between atoms: N4_18  and  C6_20 
REMARK   10  A    between atoms: C6_20  and  C7_21 
ROOT
HETATM    1  C5  UNL     1       2.412  29.079  34.299  1.00  0.00     0.312 C 
ENDROOT
BRANCH   1   2
HETATM    2  C4  UNL     1       1.183  28.937  33.419  1.00  0.00     0.233 C 
BRANCH   2   3
HETATM    3  C3  UNL     1       0.029  29.728  33.933  1.00  0.00     0.038 C 
BRANCH   3   4
HETATM    4  C2  UNL     1       0.200  30.950  34.715  1.00  0.00     0.029 C 
BRANCH   4   5
HETATM    5  C1  UNL     1       0.266  32.213  33.883  1.00  0.00     0.229 C 
BRANCH   5   6
HETATM    6  N1  UNL     1      -0.793  32.237  32.887  1.00  0.00    -0.079 N 
ATOM      7  H13 UNL     1      -0.495  32.709  32.032  1.00  0.00     0.274 HD
ATOM      8  H12 UNL     1      -0.966  31.310  32.499  1.00  0.00     0.274 HD
ATOM      9  H11 UNL     1      -1.645  32.651  33.267  1.00  0.00     0.274 HD
ENDBRANCH   5   6
ENDBRANCH   4   5
ENDBRANCH   3   4
ENDBRANCH   2   3
BRANCH   2  10
HETATM   10  N2  UNL     1       1.448  29.269  32.047  1.00  0.00    -0.071 N 
ATOM     11  H23 UNL     1       1.662  30.260  31.932  1.00  0.00     0.274 HD
ATOM     12  H22 UNL     1       2.336  28.883  31.727  1.00  0.00     0.274 HD
ATOM     13  H21 UNL     1       0.671  28.978  31.454  1.00  0.00     0.274 HD
ENDBRANCH   2  10
ENDBRANCH   1   2
BRANCH   1  14
HETATM   14  N3  UNL     1       3.437  29.826  33.527  1.00  0.00    -0.056 N 
ATOM     15  H33 UNL     1       4.355  29.382  33.553  1.00  0.00     0.276 HD
ATOM     16  H32 UNL     1       3.290  29.772  32.519  1.00  0.00     0.276 HD
ATOM     17  H31 UNL     1       3.450  30.785  33.875  1.00  0.00     0.276 HD
ENDBRANCH   1  14
BRANCH   1  18
HETATM   18  N4  UNL     1       3.021  27.890  34.708  1.00  0.00    -0.367 N 
ATOM     19  H4  UNL     1       3.875  27.971  35.259  1.00  0.00     0.161 HD
BRANCH  18  20
HETATM   20  C6  UNL     1       2.559  26.589  34.425  1.00  0.00     0.143 C 
BRANCH  20  21
HETATM   21  C7  UNL     1       3.628  26.084  33.460  1.00  0.00     0.187 A 
HETATM   22  N5  UNL     1       4.288  26.502  32.423  1.00  0.00    -0.318 N 
HETATM   23  C8  UNL     1       5.166  25.534  31.998  1.00  0.00     0.138 A 
ATOM     24  H5  UNL     1       4.173  27.418  31.988  1.00  0.00     0.169 HD
HETATM   25  C9  UNL     1       6.066  25.371  30.892  1.00  0.00     0.010 A 
HETATM   26  N6  UNL     1       4.976  24.476  32.861  1.00  0.00    -0.242 N 
HETATM   27  C10 UNL     1       5.917  25.871  29.641  1.00  0.00     0.015 A 
HETATM   28  C14 UNL     1       7.273  24.727  31.182  1.00  0.00     0.015 A 
HETATM   29  C11 UNL     1       6.910  25.757  28.693  1.00  0.00     0.001 A 
HETATM   30  C12 UNL     1       8.049  25.141  28.975  1.00  0.00     0.000 A 
HETATM   31  C13 UNL     1       8.266  24.592  30.240  1.00  0.00     0.001 A 
HETATM   32  O1  UNL     1       4.077  24.841  33.685  1.00  0.00    -0.217 OA
ATOM     33  H6  UNL     1       5.462  23.579  32.843  1.00  0.00     0.196 HD
ENDBRANCH  20  21
ENDBRANCH  18  20
ENDBRANCH   1  18
TORSDOF 10
ENDMDL
MODEL 3
REMARK VINA RESULT: -8.439380761      1.492      1.659
REMARK  10 active torsions:
REMARK  status: ('A' for Active; 'I' for Inactive)
REMARK    1  A    between atoms: N1_1  and  C1_5 
REMARK    2  A    between atoms: C1_5  and  C2_6 
REMARK    3  A    between atoms: C2_6  and  C3_7 
REMARK    4  A    between atoms: C3_7  and  C4_8 
REMARK    5  A    between atoms: C4_8  and  N2_9 
REMARK    6  A    between atoms: C4_8  and  C5_13 
REMARK    7  A    between atoms: C5_13  and  N3_14 
REMARK    8  A    between atoms: C5_13  and  N4_18 
REMARK    9  A    between atoms: N4_18  and  C6_20 
REMARK   10  A    between atoms: C6_20  and  C7_21 
ROOT
HETATM    1  C5  UNL     1       2.564  27.377  33.863  1.00  0.00     0.312 C 
ENDROOT
BRANCH   1   2
HETATM    2  C4  UNL     1       2.717  28.769  33.277  1.00  0.00     0.233 C 
BRANCH   2   3
HETATM    3  C3  UNL     1       1.473  29.233  32.598  1.00  0.00     0.038 C 
BRANCH   3   4
HETATM    4  C2  UNL     1       0.313  29.727  33.338  1.00  0.00     0.029 C 
BRANCH   4   5
HETATM    5  C1  UNL     1      -1.012  29.186  32.843  1.00  0.00     0.229 C 
BRANCH   5   6
HETATM    6  N1  UNL     1      -1.230  29.533  31.448  1.00  0.00    -0.079 N 
ATOM      7  H13 UNL     1      -1.790  28.828  30.968  1.00  0.00     0.274 HD
ATOM      8  H12 UNL     1      -1.865  30.326  31.353  1.00  0.00     0.274 HD
ATOM      9  H11 UNL     1      -0.344  29.700  30.969  1.00  0.00     0.274 HD
ENDBRANCH   5   6
ENDBRANCH   4   5
ENDBRANCH   3   4
ENDBRANCH   2   3
BRANCH   2  10
HETATM   10  N2  UNL     1       3.145  29.732  34.251  1.00  0.00    -0.071 N 
ATOM     11  H23 UNL     1       3.310  30.648  33.833  1.00  0.00     0.274 HD
ATOM     12  H22 UNL     1       2.391  29.989  34.889  1.00  0.00     0.274 HD
ATOM     13  H21 UNL     1       3.966  29.392  34.752  1.00  0.00     0.274 HD
ENDBRANCH   2  10
ENDBRANCH   1   2
BRANCH   1  14
HETATM   14  N3  UNL     1       3.475  27.277  35.031  1.00  0.00    -0.056 N 
ATOM     15  H33 UNL     1       4.372  26.851  34.799  1.00  0.00     0.276 HD
ATOM     16  H32 UNL     1       3.830  28.183  35.335  1.00  0.00     0.276 HD
ATOM     17  H31 UNL     1       2.978  26.778  35.770  1.00  0.00     0.276 HD
ENDBRANCH   1  14
BRANCH   1  18
HETATM   18  N4  UNL     1       2.891  26.312  33.020  1.00  0.00    -0.367 N 
ATOM     19  H4  UNL     1       2.660  26.414  32.032  1.00  0.00     0.161 HD
BRANCH  18  20
HETATM   20  C6  UNL     1       3.511  25.110  33.414  1.00  0.00     0.143 C 
BRANCH  20  21
HETATM   21  C7  UNL     1       4.713  25.059  32.475  1.00  0.00     0.187 A 
HETATM   22  N5  UNL     1       5.237  25.760  31.516  1.00  0.00    -0.318 N 
HETATM   23  C8  UNL     1       6.388  25.160  31.064  1.00  0.00     0.138 A 
ATOM     24  H5  UNL     1       4.850  26.631  31.151  1.00  0.00     0.169 HD
HETATM   25  C9  UNL     1       7.325  25.393  30.003  1.00  0.00     0.010 A 
HETATM   26  N6  UNL     1       6.518  24.018  31.825  1.00  0.00    -0.242 N 
HETATM   27  C10 UNL     1       7.062  25.940  28.790  1.00  0.00     0.015 A 
HETATM   28  C14 UNL     1       8.665  25.134  30.308  1.00  0.00     0.015 A 
HETATM   29  C11 UNL     1       8.067  26.233  27.895  1.00  0.00     0.001 A 
HETATM   30  C12 UNL     1       9.334  25.980  28.191  1.00  0.00     0.000 A 
HETATM   31  C13 UNL     1       9.677  25.407  29.417  1.00  0.00     0.001 A 
HETATM   32  O1  UNL     1       5.525  24.003  32.623  1.00  0.00    -0.217 OA
ATOM     33  H6  UNL     1       7.262  23.323  31.762  1.00  0.00     0.196 HD
ENDBRANCH  20  21
ENDBRANCH  18  20
ENDBRANCH   1  18
TORSDOF 10
ENDMDL
MODEL 4
REMARK VINA RESULT: -8.326449899      3.018      5.325
REMARK  10 active torsions:
REMARK  status: ('A' for Active; 'I' for Inactive)
REMARK    1  A    between atoms: N1_1  and  C1_5 
REMARK    2  A    between atoms: C1_5  and  C2_6 
REMARK    3  A    between atoms: C2_6  and  C3_7 
REMARK    4  A    between atoms: C3_7  and  C4_8 
REMARK    5  A    between atoms: C4_8  and  N2_9 
REMARK    6  A    between atoms: C4_8  and  C5_13 
REMARK    7  A    between atoms: C5_13  and  N3_14 
REMARK    8  A    between atoms: C5_13  and  N4_18 
REMARK    9  A    between atoms: N4_18  and  C6_20 
REMARK   10  A    between atoms: C6_20  and  C7_21 
ROOT
HETATM    1  C5  UNL     1       6.076  25.585  30.015  1.00  0.00     0.312 C 
ENDROOT
BRANCH   1   2
HETATM    2  C4  UNL     1       5.959  25.552  31.529  1.00  0.00     0.233 C 
BRANCH   2   3
HETATM    3  C3  UNL     1       4.601  25.954  31.996  1.00  0.00     0.038 C 
BRANCH   3   4
HETATM    4  C2  UNL     1       3.848  25.180  32.982  1.00  0.00     0.029 C 
BRANCH   4   5
HETATM    5  C1  UNL     1       2.949  26.016  33.868  1.00  0.00     0.229 C 
BRANCH   5   6
HETATM    6  N1  UNL     1       3.710  26.652  34.932  1.00  0.00    -0.079 N 
ATOM      7  H13 UNL     1       3.820  26.034  35.737  1.00  0.00     0.274 HD
ATOM      8  H12 UNL     1       4.693  26.756  34.681  1.00  0.00     0.274 HD
ATOM      9  H11 UNL     1       3.293  27.544  35.198  1.00  0.00     0.274 HD
ENDBRANCH   5   6
ENDBRANCH   4   5
ENDBRANCH   3   4
ENDBRANCH   2   3
BRANCH   2  10
HETATM   10  N2  UNL     1       6.321  24.277  32.081  1.00  0.00    -0.071 N 
ATOM     11  H23 UNL     1       5.510  23.776  32.444  1.00  0.00     0.274 HD
ATOM     12  H22 UNL     1       6.598  23.614  31.356  1.00  0.00     0.274 HD
ATOM     13  H21 UNL     1       7.046  24.389  32.790  1.00  0.00     0.274 HD
ENDBRANCH   2  10
ENDBRANCH   1   2
BRANCH   1  14
HETATM   14  N3  UNL     1       5.732  24.233  29.506  1.00  0.00    -0.056 N 
ATOM     15  H33 UNL     1       5.090  23.731  30.119  1.00  0.00     0.276 HD
ATOM     16  H32 UNL     1       5.136  24.261  28.679  1.00  0.00     0.276 HD
ATOM     17  H31 UNL     1       6.605  23.730  29.348  1.00  0.00     0.276 HD
ENDBRANCH   1  14
BRANCH   1  18
HETATM   18  N4  UNL     1       7.339  25.887  29.500  1.00  0.00    -0.367 N 
ATOM     19  H4  UNL     1       7.563  25.522  28.574  1.00  0.00     0.161 HD
BRANCH  18  20
HETATM   20  C6  UNL     1       8.331  26.652  30.146  1.00  0.00     0.143 C 
BRANCH  20  21
HETATM   21  C7  UNL     1       9.597  26.178  29.439  1.00  0.00     0.187 A 
HETATM   22  N5  UNL     1      10.574  26.676  28.743  1.00  0.00    -0.318 N 
HETATM   23  C8  UNL     1      11.456  25.683  28.387  1.00  0.00     0.138 A 
ATOM     24  H5  UNL     1      10.674  27.661  28.497  1.00  0.00     0.169 HD
HETATM   25  C9  UNL     1      12.634  25.592  27.573  1.00  0.00     0.010 A 
HETATM   26  N6  UNL     1      10.925  24.527  28.918  1.00  0.00    -0.242 N 
HETATM   27  C10 UNL     1      12.916  26.323  26.465  1.00  0.00     0.015 A 
HETATM   28  C14 UNL     1      13.637  24.742  28.048  1.00  0.00     0.015 A 
HETATM   29  C11 UNL     1      14.137  26.239  25.835  1.00  0.00     0.001 A 
HETATM   30  C12 UNL     1      15.081  25.427  26.290  1.00  0.00     0.000 A 
HETATM   31  C13 UNL     1      14.855  24.637  27.418  1.00  0.00     0.001 A 
HETATM   32  O1  UNL     1       9.851  24.864  29.513  1.00  0.00    -0.217 OA
ATOM     33  H6  UNL     1      11.316  23.587  28.848  1.00  0.00     0.196 HD
ENDBRANCH  20  21
ENDBRANCH  18  20
ENDBRANCH   1  18
TORSDOF 10
ENDMDL
MODEL 5
REMARK VINA RESULT: -8.282360801      1.929      8.389
REMARK  10 active torsions:
REMARK  status: ('A' for Active; 'I' for Inactive)
REMARK    1  A    between atoms: N1_1  and  C1_5 
REMARK    2  A    between atoms: C1_5  and  C2_6 
REMARK    3  A    between atoms: C2_6  and  C3_7 
REMARK    4  A    between atoms: C3_7  and  C4_8 
REMARK    5  A    between atoms: C4_8  and  N2_9 
REMARK    6  A    between atoms: C4_8  and  C5_13 
REMARK    7  A    between atoms: C5_13  and  N3_14 
REMARK    8  A    between atoms: C5_13  and  N4_18 
REMARK    9  A    between atoms: N4_18  and  C6_20 
REMARK   10  A    between atoms: C6_20  and  C7_21 
ROOT
HETATM    1  C5  UNL     1       6.354  25.435  31.215  1.00  0.00     0.312 C 
ENDROOT
BRANCH   1   2
HETATM    2  C4  UNL     1       5.919  25.390  29.761  1.00  0.00     0.233 C 
BRANCH   2   3
HETATM    3  C3  UNL     1       6.978  25.896  28.841  1.00  0.00     0.038 C 
BRANCH   3   4
HETATM    4  C2  UNL     1       8.302  26.296  29.313  1.00  0.00     0.029 C 
BRANCH   4   5
HETATM    5  C1  UNL     1       9.410  25.338  28.932  1.00  0.00     0.229 C 
BRANCH   5   6
HETATM    6  N1  UNL     1       9.723  24.438  30.030  1.00  0.00    -0.079 N 
ATOM      7  H13 UNL     1      10.337  24.879  30.716  1.00  0.00     0.274 HD
ATOM      8  H12 UNL     1       8.912  24.278  30.628  1.00  0.00     0.274 HD
ATOM      9  H11 UNL     1      10.115  23.561  29.685  1.00  0.00     0.274 HD
ENDBRANCH   5   6
ENDBRANCH   4   5
ENDBRANCH   3   4
ENDBRANCH   2   3
BRANCH   2  10
HETATM   10  N2  UNL     1       5.487  24.082  29.356  1.00  0.00    -0.071 N 
ATOM     11  H23 UNL     1       5.269  23.489  30.157  1.00  0.00     0.274 HD
ATOM     12  H22 UNL     1       4.561  24.104  28.927  1.00  0.00     0.274 HD
ATOM     13  H21 UNL     1       6.180  23.652  28.743  1.00  0.00     0.274 HD
ENDBRANCH   2  10
ENDBRANCH   1   2
BRANCH   1  14
HETATM   14  N3  UNL     1       6.560  24.036  31.667  1.00  0.00    -0.056 N 
ATOM     15  H33 UNL     1       6.755  23.967  32.667  1.00  0.00     0.276 HD
ATOM     16  H32 UNL     1       5.700  23.487  31.660  1.00  0.00     0.276 HD
ATOM     17  H31 UNL     1       7.295  23.629  31.091  1.00  0.00     0.276 HD
ENDBRANCH   1  14
BRANCH   1  18
HETATM   18  N4  UNL     1       5.450  26.007  32.113  1.00  0.00    -0.367 N 
ATOM     19  H4  UNL     1       5.650  26.955  32.433  1.00  0.00     0.161 HD
BRANCH  18  20
HETATM   20  C6  UNL     1       4.286  25.391  32.615  1.00  0.00     0.143 C 
BRANCH  20  21
HETATM   21  C7  UNL     1       3.483  26.594  33.100  1.00  0.00     0.187 A 
HETATM   22  N5  UNL     1       3.409  27.873  32.885  1.00  0.00    -0.318 N 
HETATM   23  C8  UNL     1       2.420  28.427  33.663  1.00  0.00     0.138 A 
ATOM     24  H5  UNL     1       3.998  28.391  32.234  1.00  0.00     0.169 HD
HETATM   25  C9  UNL     1       1.938  29.752  33.931  1.00  0.00     0.010 A 
HETATM   26  N6  UNL     1       1.900  27.374  34.384  1.00  0.00    -0.242 N 
HETATM   27  C10 UNL     1       2.666  30.897  33.933  1.00  0.00     0.015 A 
HETATM   28  C14 UNL     1       0.554  29.875  34.088  1.00  0.00     0.015 A 
HETATM   29  C11 UNL     1       2.072  32.131  34.079  1.00  0.00     0.001 A 
HETATM   30  C12 UNL     1       0.759  32.238  34.233  1.00  0.00     0.000 A 
HETATM   31  C13 UNL     1      -0.049  31.101  34.251  1.00  0.00     0.001 A 
HETATM   32  O1  UNL     1       2.549  26.338  34.027  1.00  0.00    -0.217 OA
ATOM     33  H6  UNL     1       1.145  27.416  35.069  1.00  0.00     0.196 HD
ENDBRANCH  20  21
ENDBRANCH  18  20
ENDBRANCH   1  18
TORSDOF 10
ENDMDL
