MODEL 1
REMARK VINA RESULT: -8.723413256      0.000      0.000
REMARK  10 active torsions:
REMARK  status: ('A' for Active; 'I' for Inactive)
REMARK    1  A    between atoms: C2_2  and  C3_3 
REMARK    2  A    between atoms: C6_6  and  C7_7 
REMARK    3  A    between atoms: C8_8  and  C9_9 
REMARK    4  A    between atoms: C10_10  and  C11_11 
REMARK    5  A    between atoms: C11_11  and  C12_12 
REMARK    6  A    between atoms: C13_14  and  N1_15 
REMARK    7  A    between atoms: C18_24  and  O4_25 
REMARK    8  A    between atoms: C19_27  and  O5_28 
REMARK    9  A    between atoms: C23_33  and  O6_34 
REMARK   10  A    between atoms: C23_33  and  C24_36 
ROOT
HETATM    1  C9  UNL     1      23.553  30.551  20.106  1.00  0.00    -0.004 C 
HETATM    2  C10 UNL     1      22.464  30.331  20.760  1.00  0.00    -0.024 C 
ENDROOT
BRANCH   2   3
HETATM    3  C11 UNL     1      22.014  29.042  21.280  1.00  0.00     0.061 C 
BRANCH   3   4
HETATM    4  C12 UNL     1      22.410  28.823  22.724  1.00  0.00     0.159 C 
HETATM    5  O1  UNL     1      23.522  28.033  22.878  1.00  0.00    -0.355 OA
HETATM    6  C13 UNL     1      23.231  26.979  23.701  1.00  0.00     0.263 C 
HETATM    7  C18 UNL     1      22.153  27.508  24.603  1.00  0.00     0.198 C 
HETATM    8  C19 UNL     1      21.288  28.184  23.517  1.00  0.00     0.180 C 
BRANCH   6   9
HETATM    9  N1  UNL     1      24.357  26.417  24.371  1.00  0.00    -0.280 N 
HETATM   10  C14 UNL     1      25.386  27.138  24.839  1.00  0.00     0.104 A 
HETATM   11  C15 UNL     1      26.436  26.511  25.477  1.00  0.00     0.092 A 
HETATM   12  C16 UNL     1      26.445  25.120  25.644  1.00  0.00     0.250 A 
HETATM   13  O2  UNL     1      27.397  24.547  26.223  1.00  0.00    -0.268 OA
HETATM   14  N2  UNL     1      25.395  24.435  25.161  1.00  0.00    -0.275 N 
HETATM   15  C17 UNL     1      24.380  25.077  24.539  1.00  0.00     0.331 A 
ATOM     16  H2  UNL     1      25.363  23.420  25.264  1.00  0.00     0.173 HD
HETATM   17  O3  UNL     1      23.436  24.341  24.118  1.00  0.00    -0.246 OA
ENDBRANCH   6   9
BRANCH   7  18
HETATM   18  O4  UNL     1      22.596  28.578  25.387  1.00  0.00    -0.388 OA
ATOM     19  H4  UNL     1      21.883  29.006  25.848  1.00  0.00     0.210 HD
ENDBRANCH   7  18
BRANCH   8  20
HETATM   20  O5  UNL     1      20.673  27.161  22.790  1.00  0.00    -0.390 OA
ATOM     21  H5  UNL     1      21.316  26.594  22.381  1.00  0.00     0.210 HD
ENDBRANCH   8  20
ENDBRANCH   3   4
ENDBRANCH   2   3
BRANCH   1  22
HETATM   22  C8  UNL     1      24.562  29.572  19.749  1.00  0.00     0.000 C 
HETATM   23  C7  UNL     1      24.794  29.201  18.508  1.00  0.00     0.007 C 
BRANCH  23  24
HETATM   24  C6  UNL     1      25.745  28.254  17.998  1.00  0.00    -0.050 C 
HETATM   25  C5  UNL     1      26.366  27.491  18.913  1.00  0.00    -0.006 C 
HETATM   26  C3  UNL     1      27.370  26.457  18.632  1.00  0.00    -0.006 C 
HETATM   27  C4  UNL     1      28.760  26.796  19.045  1.00  0.00     0.024 C 
HETATM   28  C26 UNL     1      27.228  26.069  17.169  1.00  0.00     0.056 C 
HETATM   29  C23 UNL     1      27.272  27.301  16.334  1.00  0.00     0.070 C 
HETATM   30  C20 UNL     1      26.029  28.143  16.546  1.00  0.00     0.010 C 
HETATM   31  C21 UNL     1      24.800  27.636  15.887  1.00  0.00     0.023 C 
HETATM   32  C22 UNL     1      26.410  29.556  16.064  1.00  0.00     0.023 C 
BRANCH  26  33
HETATM   33  C2  UNL     1      26.972  25.200  19.383  1.00  0.00    -0.024 C 
HETATM   34  C1  UNL     1      27.124  24.007  18.820  1.00  0.00     0.008 C 
ENDBRANCH  26  33
BRANCH  29  35
HETATM   35  O6  UNL     1      28.317  28.101  16.916  1.00  0.00    -0.389 OA
ATOM     36  H6  UNL     1      29.058  27.507  16.945  1.00  0.00     0.210 HD
ENDBRANCH  29  35
BRANCH  29  37
HETATM   37  C24 UNL     1      27.672  27.105  14.937  1.00  0.00     0.034 C 
HETATM   38  C25 UNL     1      28.917  26.375  14.617  1.00  0.00     0.008 C 
ENDBRANCH  29  37
ENDBRANCH  23  24
ENDBRANCH   1  22
TORSDOF 10
ENDMDL
MODEL 2
REMARK VINA RESULT: -8.719560857      1.152      1.222
REMARK  10 active torsions:
REMARK  status: ('A' for Active; 'I' for Inactive)
REMARK    1  A    between atoms: C2_2  and  C3_3 
REMARK    2  A    between atoms: C6_6  and  C7_7 
REMARK    3  A    between atoms: C8_8  and  C9_9 
REMARK    4  A    between atoms: C10_10  and  C11_11 
REMARK    5  A    between atoms: C11_11  and  C12_12 
REMARK    6  A    between atoms: C13_14  and  N1_15 
REMARK    7  A    between atoms: C18_24  and  O4_25 
REMARK    8  A    between atoms: C19_27  and  O5_28 
REMARK    9  A    between atoms: C23_33  and  O6_34 
REMARK   10  A    between atoms: C23_33  and  C24_36 
ROOT
HETATM    1  C9  UNL     1      22.847  30.571  18.980  1.00  0.00    -0.004 C 
HETATM    2  C10 UNL     1      21.887  30.639  19.838  1.00  0.00    -0.024 C 
ENDROOT
BRANCH   2   3
HETATM    3  C11 UNL     1      21.507  29.603  20.795  1.00  0.00     0.061 C 
BRANCH   3   4
HETATM    4  C12 UNL     1      22.508  29.449  21.920  1.00  0.00     0.159 C 
HETATM    5  O1  UNL     1      22.923  28.156  22.117  1.00  0.00    -0.355 OA
HETATM    6  C13 UNL     1      22.706  27.792  23.418  1.00  0.00     0.263 C 
HETATM    7  C18 UNL     1      22.809  29.084  24.178  1.00  0.00     0.198 C 
HETATM    8  C19 UNL     1      21.945  29.948  23.235  1.00  0.00     0.180 C 
BRANCH   6   9
HETATM    9  N1  UNL     1      23.548  26.744  23.893  1.00  0.00    -0.280 N 
HETATM   10  C14 UNL     1      24.560  26.928  24.753  1.00  0.00     0.104 A 
HETATM   11  C15 UNL     1      25.325  25.855  25.161  1.00  0.00     0.092 A 
HETATM   12  C16 UNL     1      25.059  24.564  24.685  1.00  0.00     0.250 A 
HETATM   13  O2  UNL     1      25.751  23.586  25.053  1.00  0.00    -0.268 OA
HETATM   14  N2  UNL     1      24.037  24.423  23.825  1.00  0.00    -0.275 N 
HETATM   15  C17 UNL     1      23.304  25.495  23.443  1.00  0.00     0.331 A 
ATOM     16  H2  UNL     1      23.810  23.499  23.457  1.00  0.00     0.173 HD
HETATM   17  O3  UNL     1      22.362  25.256  22.627  1.00  0.00    -0.246 OA
ENDBRANCH   6   9
BRANCH   7  18
HETATM   18  O4  UNL     1      24.081  29.657  24.080  1.00  0.00    -0.388 OA
ATOM     19  H4  UNL     1      24.318  30.143  24.862  1.00  0.00     0.210 HD
ENDBRANCH   7  18
BRANCH   8  20
HETATM   20  O5  UNL     1      20.620  29.539  23.407  1.00  0.00    -0.390 OA
ATOM     21  H5  UNL     1      20.016  30.259  23.269  1.00  0.00     0.210 HD
ENDBRANCH   8  20
ENDBRANCH   3   4
ENDBRANCH   2   3
BRANCH   1  22
HETATM   22  C8  UNL     1      23.754  29.456  18.783  1.00  0.00     0.000 C 
HETATM   23  C7  UNL     1      24.762  29.492  17.939  1.00  0.00     0.007 C 
BRANCH  23  24
HETATM   24  C6  UNL     1      25.737  28.483  17.631  1.00  0.00    -0.050 C 
HETATM   25  C5  UNL     1      26.310  27.877  18.684  1.00  0.00    -0.006 C 
HETATM   26  C3  UNL     1      27.325  26.818  18.619  1.00  0.00    -0.006 C 
HETATM   27  C4  UNL     1      28.693  27.227  19.044  1.00  0.00     0.024 C 
HETATM   28  C26 UNL     1      27.257  26.206  17.230  1.00  0.00     0.056 C 
HETATM   29  C23 UNL     1      27.346  27.293  16.216  1.00  0.00     0.070 C 
HETATM   30  C20 UNL     1      26.094  28.149  16.231  1.00  0.00     0.010 C 
HETATM   31  C21 UNL     1      24.900  27.538  15.598  1.00  0.00     0.023 C 
HETATM   32  C22 UNL     1      26.501  29.472  15.554  1.00  0.00     0.023 C 
BRANCH  26  33
HETATM   33  C2  UNL     1      26.888  25.691  19.537  1.00  0.00    -0.024 C 
HETATM   34  C1  UNL     1      27.018  24.426  19.153  1.00  0.00     0.008 C 
ENDBRANCH  26  33
BRANCH  29  35
HETATM   35  O6  UNL     1      28.361  28.181  16.718  1.00  0.00    -0.389 OA
ATOM     36  H6  UNL     1      29.106  27.608  16.853  1.00  0.00     0.210 HD
ENDBRANCH  29  35
BRANCH  29  37
HETATM   37  C24 UNL     1      27.815  26.884  14.889  1.00  0.00     0.034 C 
HETATM   38  C25 UNL     1      29.010  26.023  14.758  1.00  0.00     0.008 C 
ENDBRANCH  29  37
ENDBRANCH  23  24
ENDBRANCH   1  22
TORSDOF 10
ENDMDL
MODEL 3
REMARK VINA RESULT: -8.713631633      2.718      4.189
REMARK  10 active torsions:
REMARK  status: ('A' for Active; 'I' for Inactive)
REMARK    1  A    between atoms: C2_2  and  C3_3 
REMARK    2  A    between atoms: C6_6  and  C7_7 
REMARK    3  A    between atoms: C8_8  and  C9_9 
REMARK    4  A    between atoms: C10_10  and  C11_11 
REMARK    5  A    between atoms: C11_11  and  C12_12 
REMARK    6  A    between atoms: C13_14  and  N1_15 
REMARK    7  A    between atoms: C18_24  and  O4_25 
REMARK    8  A    between atoms: C19_27  and  O5_28 
REMARK    9  A    between atoms: C23_33  and  O6_34 
REMARK   10  A    between atoms: C23_33  and  C24_36 
ROOT
HETATM    1  C9  UNL     1      28.329  27.658  19.375  1.00  0.00    -0.004 C 
HETATM    2  C10 UNL     1      27.289  27.852  20.112  1.00  0.00    -0.024 C 
ENDROOT
BRANCH   2   3
HETATM    3  C11 UNL     1      26.351  26.830  20.569  1.00  0.00     0.061 C 
BRANCH   3   4
HETATM    4  C12 UNL     1      25.875  27.063  21.987  1.00  0.00     0.159 C 
HETATM    5  O1  UNL     1      26.149  26.024  22.840  1.00  0.00    -0.355 OA
HETATM    6  C13 UNL     1      24.995  25.601  23.441  1.00  0.00     0.263 C 
HETATM    7  C18 UNL     1      24.137  26.832  23.486  1.00  0.00     0.198 C 
HETATM    8  C19 UNL     1      24.380  27.307  22.038  1.00  0.00     0.180 C 
BRANCH   6   9
HETATM    9  N1  UNL     1      25.181  24.948  24.695  1.00  0.00    -0.280 N 
HETATM   10  C14 UNL     1      26.151  25.263  25.566  1.00  0.00     0.104 A 
HETATM   11  C15 UNL     1      26.257  24.579  26.759  1.00  0.00     0.092 A 
HETATM   12  C16 UNL     1      25.360  23.550  27.077  1.00  0.00     0.250 A 
HETATM   13  O2  UNL     1      25.453  22.926  28.160  1.00  0.00    -0.268 OA
HETATM   14  N2  UNL     1      24.403  23.266  26.178  1.00  0.00    -0.275 N 
HETATM   15  C17 UNL     1      24.324  23.955  25.016  1.00  0.00     0.331 A 
ATOM     16  H2  UNL     1      23.730  22.525  26.373  1.00  0.00     0.173 HD
HETATM   17  O3  UNL     1      23.387  23.610  24.233  1.00  0.00    -0.246 OA
ENDBRANCH   6   9
BRANCH   7  18
HETATM   18  O4  UNL     1      24.702  27.845  24.266  1.00  0.00    -0.388 OA
ATOM     19  H4  UNL     1      24.304  28.692  24.102  1.00  0.00     0.210 HD
ENDBRANCH   7  18
BRANCH   8  20
HETATM   20  O5  UNL     1      23.695  26.426  21.198  1.00  0.00    -0.390 OA
ATOM     21  H5  UNL     1      23.563  26.802  20.336  1.00  0.00     0.210 HD
ENDBRANCH   8  20
ENDBRANCH   3   4
ENDBRANCH   2   3
BRANCH   1  22
HETATM   22  C8  UNL     1      28.790  26.390  18.845  1.00  0.00     0.000 C 
HETATM   23  C7  UNL     1      29.163  26.228  17.594  1.00  0.00     0.007 C 
BRANCH  23  24
HETATM   24  C6  UNL     1      29.637  25.050  16.923  1.00  0.00    -0.050 C 
HETATM   25  C5  UNL     1      29.637  23.919  17.648  1.00  0.00    -0.006 C 
HETATM   26  C3  UNL     1      30.070  22.597  17.180  1.00  0.00    -0.006 C 
HETATM   27  C4  UNL     1      31.348  22.105  17.768  1.00  0.00     0.024 C 
HETATM   28  C26 UNL     1      30.049  22.622  15.660  1.00  0.00     0.056 C 
HETATM   29  C23 UNL     1      30.828  23.799  15.184  1.00  0.00     0.070 C 
HETATM   30  C20 UNL     1      30.111  25.092  15.518  1.00  0.00     0.010 C 
HETATM   31  C21 UNL     1      28.942  25.409  14.661  1.00  0.00     0.023 C 
HETATM   32  C22 UNL     1      31.195  26.184  15.454  1.00  0.00     0.023 C 
BRANCH  26  33
HETATM   33  C2  UNL     1      28.992  21.593  17.544  1.00  0.00    -0.024 C 
HETATM   34  C1  UNL     1      27.720  21.970  17.608  1.00  0.00     0.008 C 
ENDBRANCH  26  33
BRANCH  29  35
HETATM   35  O6  UNL     1      31.991  23.836  16.030  1.00  0.00    -0.389 OA
ATOM     36  H6  UNL     1      32.702  23.627  15.436  1.00  0.00     0.210 HD
ENDBRANCH  29  35
BRANCH  29  37
HETATM   37  C24 UNL     1      31.350  23.701  13.817  1.00  0.00     0.034 C 
HETATM   38  C25 UNL     1      32.728  23.220  13.583  1.00  0.00     0.008 C 
ENDBRANCH  29  37
ENDBRANCH  23  24
ENDBRANCH   1  22
TORSDOF 10
ENDMDL
MODEL 4
REMARK VINA RESULT: -8.703450226      2.444      4.863
REMARK  10 active torsions:
REMARK  status: ('A' for Active; 'I' for Inactive)
REMARK    1  A    between atoms: C2_2  and  C3_3 
REMARK    2  A    between atoms: C6_6  and  C7_7 
REMARK    3  A    between atoms: C8_8  and  C9_9 
REMARK    4  A    between atoms: C10_10  and  C11_11 
REMARK    5  A    between atoms: C11_11  and  C12_12 
REMARK    6  A    between atoms: C13_14  and  N1_15 
REMARK    7  A    between atoms: C18_24  and  O4_25 
REMARK    8  A    between atoms: C19_27  and  O5_28 
REMARK    9  A    between atoms: C23_33  and  O6_34 
REMARK   10  A    between atoms: C23_33  and  C24_36 
ROOT
HETATM    1  C9  UNL     1      25.847  26.586  22.605  1.00  0.00    -0.004 C 
HETATM    2  C10 UNL     1      24.778  26.465  23.316  1.00  0.00    -0.024 C 
ENDROOT
BRANCH   2   3
HETATM    3  C11 UNL     1      23.529  25.833  22.898  1.00  0.00     0.061 C 
BRANCH   3   4
HETATM    4  C12 UNL     1      22.497  26.833  22.421  1.00  0.00     0.159 C 
HETATM    5  O1  UNL     1      23.037  27.919  21.778  1.00  0.00    -0.355 OA
HETATM    6  C13 UNL     1      22.613  29.073  22.380  1.00  0.00     0.263 C 
HETATM    7  C18 UNL     1      21.268  28.714  22.946  1.00  0.00     0.198 C 
HETATM    8  C19 UNL     1      21.661  27.359  23.571  1.00  0.00     0.180 C 
BRANCH   6   9
HETATM    9  N1  UNL     1      22.627  30.224  21.539  1.00  0.00    -0.280 N 
HETATM   10  C14 UNL     1      22.526  30.176  20.203  1.00  0.00     0.104 A 
HETATM   11  C15 UNL     1      22.548  31.342  19.466  1.00  0.00     0.092 A 
HETATM   12  C16 UNL     1      22.677  32.587  20.098  1.00  0.00     0.250 A 
HETATM   13  O2  UNL     1      22.697  33.648  19.432  1.00  0.00    -0.268 OA
HETATM   14  N2  UNL     1      22.775  32.590  21.438  1.00  0.00    -0.275 N 
HETATM   15  C17 UNL     1      22.751  31.430  22.134  1.00  0.00     0.331 A 
ATOM     16  H2  UNL     1      22.869  33.476  21.935  1.00  0.00     0.173 HD
HETATM   17  O3  UNL     1      22.851  31.541  23.394  1.00  0.00    -0.246 OA
ENDBRANCH   6   9
BRANCH   7  18
HETATM   18  O4  UNL     1      20.350  28.366  21.950  1.00  0.00    -0.388 OA
ATOM     19  H4  UNL     1      19.642  27.830  22.286  1.00  0.00     0.210 HD
ENDBRANCH   7  18
BRANCH   8  20
HETATM   20  O5  UNL     1      22.454  27.639  24.687  1.00  0.00    -0.390 OA
ATOM     21  H5  UNL     1      21.930  27.694  25.477  1.00  0.00     0.210 HD
ENDBRANCH   8  20
ENDBRANCH   3   4
ENDBRANCH   2   3
BRANCH   1  22
HETATM   22  C8  UNL     1      26.039  26.122  21.245  1.00  0.00     0.000 C 
HETATM   23  C7  UNL     1      27.063  26.481  20.502  1.00  0.00     0.007 C 
BRANCH  23  24
HETATM   24  C6  UNL     1      27.390  26.114  19.152  1.00  0.00    -0.050 C 
HETATM   25  C5  UNL     1      27.754  24.835  18.961  1.00  0.00    -0.006 C 
HETATM   26  C3  UNL     1      28.128  24.231  17.677  1.00  0.00    -0.006 C 
HETATM   27  C4  UNL     1      29.572  23.894  17.534  1.00  0.00     0.024 C 
HETATM   28  C26 UNL     1      27.581  25.124  16.575  1.00  0.00     0.056 C 
HETATM   29  C23 UNL     1      28.026  26.524  16.821  1.00  0.00     0.070 C 
HETATM   30  C20 UNL     1      27.343  27.101  18.045  1.00  0.00     0.010 C 
HETATM   31  C21 UNL     1      25.925  27.492  17.856  1.00  0.00     0.023 C 
HETATM   32  C22 UNL     1      28.224  28.288  18.478  1.00  0.00     0.023 C 
BRANCH  26  33
HETATM   33  C2  UNL     1      27.348  22.939  17.521  1.00  0.00    -0.024 C 
HETATM   34  C1  UNL     1      27.982  21.772  17.495  1.00  0.00     0.008 C 
ENDBRANCH  26  33
BRANCH  29  35
HETATM   35  O6  UNL     1      29.399  26.406  17.231  1.00  0.00    -0.389 OA
ATOM     36  H6  UNL     1      29.860  26.251  16.415  1.00  0.00     0.210 HD
ENDBRANCH  29  35
BRANCH  29  37
HETATM   37  C24 UNL     1      28.050  27.396  15.642  1.00  0.00     0.034 C 
HETATM   38  C25 UNL     1      28.651  26.917  14.379  1.00  0.00     0.008 C 
ENDBRANCH  29  37
ENDBRANCH  23  24
ENDBRANCH   1  22
TORSDOF 10
ENDMDL
MODEL 5
REMARK VINA RESULT: -8.364291590      2.990      4.295
REMARK  10 active torsions:
REMARK  status: ('A' for Active; 'I' for Inactive)
REMARK    1  A    between atoms: C2_2  and  C3_3 
REMARK    2  A    between atoms: C6_6  and  C7_7 
REMARK    3  A    between atoms: C8_8  and  C9_9 
REMARK    4  A    between atoms: C10_10  and  C11_11 
REMARK    5  A    between atoms: C11_11  and  C12_12 
REMARK    6  A    between atoms: C13_14  and  N1_15 
REMARK    7  A    between atoms: C18_24  and  O4_25 
REMARK    8  A    between atoms: C19_27  and  O5_28 
REMARK    9  A    between atoms: C23_33  and  O6_34 
REMARK   10  A    between atoms: C23_33  and  C24_36 
ROOT
HETATM    1  C9  UNL     1      25.871  27.238  22.458  1.00  0.00    -0.004 C 
HETATM    2  C10 UNL     1      25.381  26.731  23.538  1.00  0.00    -0.024 C 
ENDROOT
BRANCH   2   3
HETATM    3  C11 UNL     1      24.952  25.348  23.726  1.00  0.00     0.061 C 
BRANCH   3   4
HETATM    4  C12 UNL     1      25.223  24.835  25.124  1.00  0.00     0.159 C 
HETATM    5  O1  UNL     1      26.513  24.408  25.316  1.00  0.00    -0.355 OA
HETATM    6  C13 UNL     1      26.511  23.119  25.776  1.00  0.00     0.263 C 
HETATM    7  C18 UNL     1      25.215  23.004  26.528  1.00  0.00     0.198 C 
HETATM    8  C19 UNL     1      24.307  23.681  25.480  1.00  0.00     0.180 C 
BRANCH   6   9
HETATM    9  N1  UNL     1      27.673  22.748  26.515  1.00  0.00    -0.280 N 
HETATM   10  C14 UNL     1      28.693  23.579  26.771  1.00  0.00     0.104 A 
HETATM   11  C15 UNL     1      29.780  23.136  27.496  1.00  0.00     0.092 A 
HETATM   12  C16 UNL     1      29.835  21.819  27.971  1.00  0.00     0.250 A 
HETATM   13  O2  UNL     1      30.821  21.412  28.630  1.00  0.00    -0.268 OA
HETATM   14  N2  UNL     1      28.792  21.019  27.693  1.00  0.00    -0.275 N 
HETATM   15  C17 UNL     1      27.740  21.482  26.980  1.00  0.00     0.331 A 
ATOM     16  H2  UNL     1      28.793  20.054  28.022  1.00  0.00     0.173 HD
HETATM   17  O3  UNL     1      26.806  20.649  26.769  1.00  0.00    -0.246 OA
ENDBRANCH   6   9
BRANCH   7  18
HETATM   18  O4  UNL     1      25.159  23.870  27.624  1.00  0.00    -0.388 OA
ATOM     19  H4  UNL     1      24.317  24.305  27.696  1.00  0.00     0.210 HD
ENDBRANCH   7  18
BRANCH   8  20
HETATM   20  O5  UNL     1      24.180  22.788  24.412  1.00  0.00    -0.390 OA
ATOM     21  H5  UNL     1      23.284  22.752  24.098  1.00  0.00     0.210 HD
ENDBRANCH   8  20
ENDBRANCH   3   4
ENDBRANCH   2   3
BRANCH   1  22
HETATM   22  C8  UNL     1      26.101  26.547  21.204  1.00  0.00     0.000 C 
HETATM   23  C7  UNL     1      26.995  26.938  20.323  1.00  0.00     0.007 C 
BRANCH  23  24
HETATM   24  C6  UNL     1      27.337  26.368  19.049  1.00  0.00    -0.050 C 
HETATM   25  C5  UNL     1      27.712  25.078  19.062  1.00  0.00    -0.006 C 
HETATM   26  C3  UNL     1      28.102  24.285  17.890  1.00  0.00    -0.006 C 
HETATM   27  C4  UNL     1      29.550  23.942  17.812  1.00  0.00     0.024 C 
HETATM   28  C26 UNL     1      27.558  24.991  16.659  1.00  0.00     0.056 C 
HETATM   29  C23 UNL     1      27.990  26.416  16.687  1.00  0.00     0.070 C 
HETATM   30  C20 UNL     1      27.292  27.170  17.802  1.00  0.00     0.010 C 
HETATM   31  C21 UNL     1      25.872  27.515  17.543  1.00  0.00     0.023 C 
HETATM   32  C22 UNL     1      28.160  28.418  18.051  1.00  0.00     0.023 C 
BRANCH  26  33
HETATM   33  C2  UNL     1      27.333  22.977  17.931  1.00  0.00    -0.024 C 
HETATM   34  C1  UNL     1      27.919  21.844  17.562  1.00  0.00     0.008 C 
ENDBRANCH  26  33
BRANCH  29  35
HETATM   35  O6  UNL     1      29.360  26.375  17.121  1.00  0.00    -0.389 OA
ATOM     36  H6  UNL     1      29.306  26.604  18.042  1.00  0.00     0.210 HD
ENDBRANCH  29  35
BRANCH  29  37
HETATM   37  C24 UNL     1      28.018  27.094  15.387  1.00  0.00     0.034 C 
HETATM   38  C25 UNL     1      28.824  26.539  14.279  1.00  0.00     0.008 C 
ENDBRANCH  29  37
ENDBRANCH  23  24
ENDBRANCH   1  22
TORSDOF 10
ENDMDL
