MODEL 1
REMARK VINA RESULT: -7.084522194      0.000      0.000
REMARK  7 active torsions:
REMARK  status: ('A' for Active; 'I' for Inactive)
REMARK    1  A    between atoms: C3_8  and  C4_9 
REMARK    2  A    between atoms: C17_27  and  C18_28 
REMARK    3  A    between atoms: C18_28  and  C19_29 
REMARK    4  A    between atoms: C19_29  and  C20_30 
REMARK    5  A    between atoms: C20_30  and  C21_31 
REMARK    6  A    between atoms: C21_31  and  C22_32 
REMARK    7  A    between atoms: C22_32  and  C23_33 
ROOT
HETATM    1  N1  UNL     1      21.174  30.494  20.126  1.00  0.00    -0.398 N 
ATOM      2  H11 UNL     1      20.417  29.829  19.968  1.00  0.00     0.156 HD
ATOM      3  H12 UNL     1      21.171  31.445  19.757  1.00  0.00     0.156 HD
HETATM    4  C1  UNL     1      22.159  30.052  20.835  1.00  0.00     0.069 C 
HETATM    5  C2  UNL     1      23.274  31.032  21.067  1.00  0.00     0.175 C 
HETATM    6  N2  UNL     1      22.821  32.363  21.312  1.00  0.00    -0.403 N 
ATOM      7  H2  UNL     1      22.996  33.121  20.653  1.00  0.00     0.154 HD
HETATM    8  C3  UNL     1      22.108  32.572  22.531  1.00  0.00     0.179 C 
HETATM    9  C5  UNL     1      23.030  33.131  23.611  1.00  0.00     0.036 C 
HETATM   10  C6  UNL     1      23.709  32.035  24.373  1.00  0.00     0.002 C 
HETATM   11  C7  UNL     1      23.460  32.077  25.862  1.00  0.00     0.000 C 
HETATM   12  C8  UNL     1      24.638  31.437  26.561  1.00  0.00     0.000 C 
HETATM   13  C9  UNL     1      24.183  30.596  27.712  1.00  0.00     0.000 C 
HETATM   14  C10 UNL     1      24.953  29.295  27.837  1.00  0.00     0.000 C 
HETATM   15  C11 UNL     1      25.350  28.751  26.505  1.00  0.00     0.000 C 
HETATM   16  C12 UNL     1      25.524  27.244  26.524  1.00  0.00     0.000 C 
HETATM   17  C13 UNL     1      26.218  26.833  25.260  1.00  0.00     0.000 C 
HETATM   18  C14 UNL     1      25.643  25.517  24.754  1.00  0.00     0.009 C 
HETATM   19  C15 UNL     1      25.212  25.703  23.328  1.00  0.00     0.103 C 
HETATM   20  C16 UNL     1      23.759  25.973  23.279  1.00  0.00     0.218 C 
HETATM   21  O3  UNL     1      23.084  25.546  24.281  1.00  0.00    -0.274 OA
HETATM   22  N3  UNL     1      23.072  26.644  22.244  1.00  0.00    -0.349 N 
ATOM     23  H3  UNL     1      22.246  26.176  21.872  1.00  0.00     0.163 HD
HETATM   24  C17 UNL     1      23.407  27.917  21.655  1.00  0.00     0.160 C 
HETATM   25  C24 UNL     1      22.164  28.707  21.358  1.00  0.00     0.195 C 
HETATM   26  O6  UNL     1      21.046  28.150  21.584  1.00  0.00    -0.289 OA
ENDROOT
BRANCH  24  27
HETATM   27  C18 UNL     1      24.190  27.641  20.386  1.00  0.00     0.033 C 
BRANCH  27  28
HETATM   28  C19 UNL     1      25.597  28.150  20.617  1.00  0.00     0.002 C 
BRANCH  28  29
HETATM   29  C20 UNL     1      26.619  27.351  19.838  1.00  0.00     0.001 C 
BRANCH  29  30
HETATM   30  C21 UNL     1      25.968  27.026  18.492  1.00  0.00     0.010 C 
BRANCH  30  31
HETATM   31  C22 UNL     1      26.496  27.956  17.405  1.00  0.00     0.113 C 
BRANCH  31  32
HETATM   32  C23 UNL     1      25.327  28.621  16.788  1.00  0.00     0.172 C 
HETATM   33  O4  UNL     1      24.650  29.479  17.383  1.00  0.00    -0.648 OA
HETATM   34  O5  UNL     1      24.977  28.263  15.493  1.00  0.00    -0.648 OA
ENDBRANCH  31  32
ENDBRANCH  30  31
ENDBRANCH  29  30
ENDBRANCH  28  29
ENDBRANCH  27  28
ENDBRANCH  24  27
BRANCH   8  35
HETATM   35  C4  UNL     1      21.064  33.644  22.337  1.00  0.00     0.196 C 
HETATM   36  O1  UNL     1      21.257  34.837  22.699  1.00  0.00    -0.646 OA
HETATM   37  O2  UNL     1      19.841  33.360  21.749  1.00  0.00    -0.646 OA
ENDBRANCH   8  35
TORSDOF 7
ENDMDL
MODEL 2
REMARK VINA RESULT: -7.036402867      2.207      2.546
REMARK  7 active torsions:
REMARK  status: ('A' for Active; 'I' for Inactive)
REMARK    1  A    between atoms: C3_8  and  C4_9 
REMARK    2  A    between atoms: C17_27  and  C18_28 
REMARK    3  A    between atoms: C18_28  and  C19_29 
REMARK    4  A    between atoms: C19_29  and  C20_30 
REMARK    5  A    between atoms: C20_30  and  C21_31 
REMARK    6  A    between atoms: C21_31  and  C22_32 
REMARK    7  A    between atoms: C22_32  and  C23_33 
ROOT
HETATM    1  N1  UNL     1      20.645  29.265  21.415  1.00  0.00    -0.398 N 
ATOM      2  H11 UNL     1      20.029  28.531  21.065  1.00  0.00     0.156 HD
ATOM      3  H12 UNL     1      20.485  30.258  21.246  1.00  0.00     0.156 HD
HETATM    4  C1  UNL     1      21.660  28.855  22.100  1.00  0.00     0.069 C 
HETATM    5  C2  UNL     1      22.566  29.937  22.616  1.00  0.00     0.175 C 
HETATM    6  N2  UNL     1      21.867  31.089  23.085  1.00  0.00    -0.403 N 
ATOM      7  H2  UNL     1      21.932  31.989  22.609  1.00  0.00     0.154 HD
HETATM    8  C3  UNL     1      21.073  30.911  24.258  1.00  0.00     0.179 C 
HETATM    9  C5  UNL     1      21.827  31.374  25.501  1.00  0.00     0.036 C 
HETATM   10  C6  UNL     1      22.659  30.273  26.081  1.00  0.00     0.002 C 
HETATM   11  C7  UNL     1      22.338  29.954  27.522  1.00  0.00     0.000 C 
HETATM   12  C8  UNL     1      23.580  29.388  28.173  1.00  0.00     0.000 C 
HETATM   13  C9  UNL     1      23.233  28.257  29.089  1.00  0.00     0.000 C 
HETATM   14  C10 UNL     1      24.220  27.108  29.013  1.00  0.00     0.000 C 
HETATM   15  C11 UNL     1      24.770  26.934  27.637  1.00  0.00     0.000 C 
HETATM   16  C12 UNL     1      25.216  25.509  27.366  1.00  0.00     0.000 C 
HETATM   17  C13 UNL     1      26.030  25.499  26.108  1.00  0.00     0.000 C 
HETATM   18  C14 UNL     1      25.728  24.243  25.301  1.00  0.00     0.009 C 
HETATM   19  C15 UNL     1      25.336  24.653  23.911  1.00  0.00     0.103 C 
HETATM   20  C16 UNL     1      23.862  24.679  23.797  1.00  0.00     0.218 C 
HETATM   21  O3  UNL     1      23.231  23.941  24.633  1.00  0.00    -0.274 OA
HETATM   22  N3  UNL     1      23.113  25.429  22.865  1.00  0.00    -0.349 N 
ATOM     23  H3  UNL     1      22.404  24.919  22.339  1.00  0.00     0.163 HD
HETATM   24  C17 UNL     1      23.237  26.836  22.574  1.00  0.00     0.160 C 
HETATM   25  C24 UNL     1      21.886  27.450  22.340  1.00  0.00     0.195 C 
HETATM   26  O6  UNL     1      20.879  26.678  22.356  1.00  0.00    -0.289 OA
ENDROOT
BRANCH  24  27
HETATM   27  C18 UNL     1      24.114  26.972  21.345  1.00  0.00     0.033 C 
BRANCH  27  28
HETATM   28  C19 UNL     1      25.382  27.674  21.784  1.00  0.00     0.002 C 
BRANCH  28  29
HETATM   29  C20 UNL     1      26.608  27.089  21.119  1.00  0.00     0.001 C 
BRANCH  29  30
HETATM   30  C21 UNL     1      26.099  26.282  19.923  1.00  0.00     0.010 C 
BRANCH  30  31
HETATM   31  C22 UNL     1      27.041  25.123  19.619  1.00  0.00     0.113 C 
BRANCH  31  32
HETATM   32  C23 UNL     1      27.262  25.106  18.157  1.00  0.00     0.172 C 
HETATM   33  O4  UNL     1      27.549  24.069  17.532  1.00  0.00    -0.648 OA
HETATM   34  O5  UNL     1      27.148  26.302  17.461  1.00  0.00    -0.648 OA
ENDBRANCH  31  32
ENDBRANCH  30  31
ENDBRANCH  29  30
ENDBRANCH  28  29
ENDBRANCH  27  28
ENDBRANCH  24  27
BRANCH   8  35
HETATM   35  C4  UNL     1      19.861  31.809  24.198  1.00  0.00     0.196 C 
HETATM   36  O1  UNL     1      19.669  32.728  25.040  1.00  0.00    -0.646 OA
HETATM   37  O2  UNL     1      18.903  31.658  23.207  1.00  0.00    -0.646 OA
ENDBRANCH   8  35
TORSDOF 7
ENDMDL
MODEL 3
REMARK VINA RESULT: -7.007498628      1.815      2.176
REMARK  7 active torsions:
REMARK  status: ('A' for Active; 'I' for Inactive)
REMARK    1  A    between atoms: C3_8  and  C4_9 
REMARK    2  A    between atoms: C17_27  and  C18_28 
REMARK    3  A    between atoms: C18_28  and  C19_29 
REMARK    4  A    between atoms: C19_29  and  C20_30 
REMARK    5  A    between atoms: C20_30  and  C21_31 
REMARK    6  A    between atoms: C21_31  and  C22_32 
REMARK    7  A    between atoms: C22_32  and  C23_33 
ROOT
HETATM    1  N1  UNL     1      23.574  29.034  19.154  1.00  0.00    -0.398 N 
ATOM      2  H11 UNL     1      23.367  28.165  18.662  1.00  0.00     0.156 HD
ATOM      3  H12 UNL     1      23.451  29.957  18.737  1.00  0.00     0.156 HD
HETATM    4  C1  UNL     1      24.009  28.895  20.362  1.00  0.00     0.069 C 
HETATM    5  C2  UNL     1      24.313  30.175  21.087  1.00  0.00     0.175 C 
HETATM    6  N2  UNL     1      23.364  31.210  20.836  1.00  0.00    -0.403 N 
ATOM      7  H2  UNL     1      23.612  32.056  20.322  1.00  0.00     0.154 HD
HETATM    8  C3  UNL     1      22.047  30.996  21.344  1.00  0.00     0.179 C 
HETATM    9  C5  UNL     1      21.854  31.712  22.677  1.00  0.00     0.036 C 
HETATM   10  C6  UNL     1      22.275  30.852  23.828  1.00  0.00     0.002 C 
HETATM   11  C7  UNL     1      21.187  30.617  24.849  1.00  0.00     0.000 C 
HETATM   12  C8  UNL     1      21.839  30.366  26.191  1.00  0.00     0.000 C 
HETATM   13  C9  UNL     1      21.125  29.282  26.935  1.00  0.00     0.000 C 
HETATM   14  C10 UNL     1      22.067  28.343  27.664  1.00  0.00     0.000 C 
HETATM   15  C11 UNL     1      23.347  28.148  26.921  1.00  0.00     0.000 C 
HETATM   16  C12 UNL     1      24.003  26.816  27.236  1.00  0.00     0.000 C 
HETATM   17  C13 UNL     1      25.405  26.844  26.708  1.00  0.00     0.000 C 
HETATM   18  C14 UNL     1      25.772  25.482  26.134  1.00  0.00     0.009 C 
HETATM   19  C15 UNL     1      26.255  25.674  24.725  1.00  0.00     0.103 C 
HETATM   20  C16 UNL     1      25.150  25.403  23.779  1.00  0.00     0.218 C 
HETATM   21  O3  UNL     1      24.220  24.641  24.221  1.00  0.00    -0.274 OA
HETATM   22  N3  UNL     1      25.040  25.903  22.464  1.00  0.00    -0.349 N 
ATOM     23  H3  UNL     1      24.843  25.217  21.735  1.00  0.00     0.163 HD
HETATM   24  C17 UNL     1      25.176  27.272  22.034  1.00  0.00     0.160 C 
HETATM   25  C24 UNL     1      24.183  27.589  20.952  1.00  0.00     0.195 C 
HETATM   26  O6  UNL     1      23.450  26.642  20.532  1.00  0.00    -0.289 OA
ENDROOT
BRANCH  24  27
HETATM   27  C18 UNL     1      26.596  27.457  21.537  1.00  0.00     0.033 C 
BRANCH  27  28
HETATM   28  C19 UNL     1      26.774  26.525  20.357  1.00  0.00     0.002 C 
BRANCH  28  29
HETATM   29  C20 UNL     1      27.396  27.230  19.172  1.00  0.00     0.001 C 
BRANCH  29  30
HETATM   30  C21 UNL     1      26.414  27.054  18.010  1.00  0.00     0.010 C 
BRANCH  30  31
HETATM   31  C22 UNL     1      26.919  27.781  16.770  1.00  0.00     0.113 C 
BRANCH  31  32
HETATM   32  C23 UNL     1      25.763  28.479  16.166  1.00  0.00     0.172 C 
HETATM   33  O4  UNL     1      25.069  29.299  16.795  1.00  0.00    -0.648 OA
HETATM   34  O5  UNL     1      25.443  28.198  14.845  1.00  0.00    -0.648 OA
ENDBRANCH  31  32
ENDBRANCH  30  31
ENDBRANCH  29  30
ENDBRANCH  28  29
ENDBRANCH  27  28
ENDBRANCH  24  27
BRANCH   8  35
HETATM   35  C4  UNL     1      21.033  31.632  20.426  1.00  0.00     0.196 C 
HETATM   36  O1  UNL     1      21.341  32.048  19.276  1.00  0.00    -0.646 OA
HETATM   37  O2  UNL     1      19.710  31.787  20.812  1.00  0.00    -0.646 OA
ENDBRANCH   8  35
TORSDOF 7
ENDMDL
MODEL 4
REMARK VINA RESULT: -7.007416603      1.466      1.766
REMARK  7 active torsions:
REMARK  status: ('A' for Active; 'I' for Inactive)
REMARK    1  A    between atoms: C3_8  and  C4_9 
REMARK    2  A    between atoms: C17_27  and  C18_28 
REMARK    3  A    between atoms: C18_28  and  C19_29 
REMARK    4  A    between atoms: C19_29  and  C20_30 
REMARK    5  A    between atoms: C20_30  and  C21_31 
REMARK    6  A    between atoms: C21_31  and  C22_32 
REMARK    7  A    between atoms: C22_32  and  C23_33 
ROOT
HETATM    1  N1  UNL     1      21.193  30.617  20.079  1.00  0.00    -0.398 N 
ATOM      2  H11 UNL     1      20.429  29.966  19.897  1.00  0.00     0.156 HD
ATOM      3  H12 UNL     1      21.200  31.581  19.744  1.00  0.00     0.156 HD
HETATM    4  C1  UNL     1      22.172  30.142  20.775  1.00  0.00     0.069 C 
HETATM    5  C2  UNL     1      23.296  31.102  21.042  1.00  0.00     0.175 C 
HETATM    6  N2  UNL     1      22.856  32.427  21.333  1.00  0.00    -0.403 N 
ATOM      7  H2  UNL     1      23.040  33.207  20.701  1.00  0.00     0.154 HD
HETATM    8  C3  UNL     1      22.142  32.601  22.557  1.00  0.00     0.179 C 
HETATM    9  C5  UNL     1      23.067  33.113  23.658  1.00  0.00     0.036 C 
HETATM   10  C6  UNL     1      23.734  31.985  24.383  1.00  0.00     0.002 C 
HETATM   11  C7  UNL     1      23.482  31.977  25.872  1.00  0.00     0.000 C 
HETATM   12  C8  UNL     1      24.652  31.301  26.550  1.00  0.00     0.000 C 
HETATM   13  C9  UNL     1      24.186  30.425  27.670  1.00  0.00     0.000 C 
HETATM   14  C10 UNL     1      24.943  29.113  27.751  1.00  0.00     0.000 C 
HETATM   15  C11 UNL     1      25.337  28.611  26.402  1.00  0.00     0.000 C 
HETATM   16  C12 UNL     1      25.497  27.103  26.368  1.00  0.00     0.000 C 
HETATM   17  C13 UNL     1      26.189  26.730  25.092  1.00  0.00     0.000 C 
HETATM   18  C14 UNL     1      25.602  25.438  24.539  1.00  0.00     0.009 C 
HETATM   19  C15 UNL     1      25.177  25.678  23.120  1.00  0.00     0.103 C 
HETATM   20  C16 UNL     1      23.726  25.964  23.077  1.00  0.00     0.218 C 
HETATM   21  O3  UNL     1      23.045  25.509  24.062  1.00  0.00    -0.274 OA
HETATM   22  N3  UNL     1      23.048  26.678  22.066  1.00  0.00    -0.349 N 
ATOM     23  H3  UNL     1      22.219  26.231  21.675  1.00  0.00     0.163 HD
HETATM   24  C17 UNL     1      23.397  27.967  21.521  1.00  0.00     0.160 C 
HETATM   25  C24 UNL     1      22.163  28.779  21.250  1.00  0.00     0.195 C 
HETATM   26  O6  UNL     1      21.039  28.226  21.454  1.00  0.00    -0.289 OA
ENDROOT
BRANCH  24  27
HETATM   27  C18 UNL     1      24.180  27.727  20.245  1.00  0.00     0.033 C 
BRANCH  27  28
HETATM   28  C19 UNL     1      25.527  28.396  20.423  1.00  0.00     0.002 C 
BRANCH  28  29
HETATM   29  C20 UNL     1      26.661  27.396  20.379  1.00  0.00     0.001 C 
BRANCH  29  30
HETATM   30  C21 UNL     1      26.154  26.214  19.550  1.00  0.00     0.010 C 
BRANCH  30  31
HETATM   31  C22 UNL     1      27.143  25.056  19.608  1.00  0.00     0.113 C 
BRANCH  31  32
HETATM   32  C23 UNL     1      27.162  24.424  18.270  1.00  0.00     0.172 C 
HETATM   33  O4  UNL     1      26.784  23.256  18.073  1.00  0.00    -0.648 OA
HETATM   34  O5  UNL     1      27.629  25.173  17.198  1.00  0.00    -0.648 OA
ENDBRANCH  31  32
ENDBRANCH  30  31
ENDBRANCH  29  30
ENDBRANCH  28  29
ENDBRANCH  27  28
ENDBRANCH  24  27
BRANCH   8  35
HETATM   35  C4  UNL     1      21.109  33.690  22.399  1.00  0.00     0.196 C 
HETATM   36  O1  UNL     1      21.282  34.848  22.868  1.00  0.00    -0.646 OA
HETATM   37  O2  UNL     1      19.918  33.460  21.726  1.00  0.00    -0.646 OA
ENDBRANCH   8  35
TORSDOF 7
ENDMDL
MODEL 5
REMARK VINA RESULT: -6.999800328      3.064      7.487
REMARK  7 active torsions:
REMARK  status: ('A' for Active; 'I' for Inactive)
REMARK    1  A    between atoms: C3_8  and  C4_9 
REMARK    2  A    between atoms: C17_27  and  C18_28 
REMARK    3  A    between atoms: C18_28  and  C19_29 
REMARK    4  A    between atoms: C19_29  and  C20_30 
REMARK    5  A    between atoms: C20_30  and  C21_31 
REMARK    6  A    between atoms: C21_31  and  C22_32 
REMARK    7  A    between atoms: C22_32  and  C23_33 
ROOT
HETATM    1  N1  UNL     1      25.600  24.838  22.638  1.00  0.00    -0.398 N 
ATOM      2  H11 UNL     1      24.994  24.063  22.908  1.00  0.00     0.156 HD
ATOM      3  H12 UNL     1      26.510  24.709  22.195  1.00  0.00     0.156 HD
HETATM    4  C1  UNL     1      25.138  26.016  22.894  1.00  0.00     0.069 C 
HETATM    5  C2  UNL     1      26.032  27.157  22.496  1.00  0.00     0.175 C 
HETATM    6  N2  UNL     1      26.687  26.957  21.245  1.00  0.00    -0.403 N 
ATOM      7  H2  UNL     1      27.697  26.832  21.180  1.00  0.00     0.154 HD
HETATM    8  C3  UNL     1      25.849  26.940  20.089  1.00  0.00     0.179 C 
HETATM    9  C5  UNL     1      25.847  28.301  19.399  1.00  0.00     0.036 C 
HETATM   10  C6  UNL     1      24.793  29.202  19.964  1.00  0.00     0.002 C 
HETATM   11  C7  UNL     1      23.806  29.711  18.940  1.00  0.00     0.000 C 
HETATM   12  C8  UNL     1      23.270  31.042  19.416  1.00  0.00     0.000 C 
HETATM   13  C9  UNL     1      21.805  31.157  19.135  1.00  0.00     0.000 C 
HETATM   14  C10 UNL     1      21.034  31.815  20.263  1.00  0.00     0.000 C 
HETATM   15  C11 UNL     1      21.607  31.482  21.600  1.00  0.00     0.000 C 
HETATM   16  C12 UNL     1      20.575  31.558  22.709  1.00  0.00     0.000 C 
HETATM   17  C13 UNL     1      21.292  31.525  24.025  1.00  0.00     0.000 C 
HETATM   18  C14 UNL     1      20.497  30.703  25.031  1.00  0.00     0.009 C 
HETATM   19  C15 UNL     1      21.398  29.644  25.597  1.00  0.00     0.103 C 
HETATM   20  C16 UNL     1      21.177  28.368  24.882  1.00  0.00     0.218 C 
HETATM   21  O3  UNL     1      20.034  28.243  24.317  1.00  0.00    -0.274 OA
HETATM   22  N3  UNL     1      22.099  27.304  24.775  1.00  0.00    -0.349 N 
ATOM     23  H3  UNL     1      21.748  26.376  25.011  1.00  0.00     0.163 HD
HETATM   24  C17 UNL     1      23.481  27.382  24.370  1.00  0.00     0.160 C 
HETATM   25  C24 UNL     1      23.851  26.198  23.522  1.00  0.00     0.195 C 
HETATM   26  O6  UNL     1      22.970  25.302  23.346  1.00  0.00    -0.289 OA
ENDROOT
BRANCH  24  27
HETATM   27  C18 UNL     1      24.324  27.431  25.629  1.00  0.00     0.033 C 
BRANCH  27  28
HETATM   28  C19 UNL     1      23.771  26.381  26.570  1.00  0.00     0.002 C 
BRANCH  28  29
HETATM   29  C20 UNL     1      24.865  25.719  27.378  1.00  0.00     0.001 C 
BRANCH  29  30
HETATM   30  C21 UNL     1      25.516  24.690  26.450  1.00  0.00     0.010 C 
BRANCH  30  31
HETATM   31  C22 UNL     1      24.520  23.597  26.081  1.00  0.00     0.113 C 
BRANCH  31  32
HETATM   32  C23 UNL     1      25.214  22.654  25.178  1.00  0.00     0.172 C 
HETATM   33  O4  UNL     1      26.216  22.004  25.526  1.00  0.00    -0.648 OA
HETATM   34  O5  UNL     1      24.724  22.499  23.888  1.00  0.00    -0.648 OA
ENDBRANCH  31  32
ENDBRANCH  30  31
ENDBRANCH  29  30
ENDBRANCH  28  29
ENDBRANCH  27  28
ENDBRANCH  24  27
BRANCH   8  35
HETATM   35  C4  UNL     1      26.416  25.997  19.057  1.00  0.00     0.196 C 
HETATM   36  O1  UNL     1      26.743  24.813  19.343  1.00  0.00    -0.646 OA
HETATM   37  O2  UNL     1      26.603  26.396  17.743  1.00  0.00    -0.646 OA
ENDBRANCH   8  35
TORSDOF 7
ENDMDL
