MODEL 1
REMARK VINA RESULT: -7.943504768      0.000      0.000
REMARK  12 active torsions:
REMARK  status: ('A' for Active; 'I' for Inactive)
REMARK    1  A    between atoms: C3_3  and  O1_4 
REMARK    2  A    between atoms: C5_7  and  O2_8 
REMARK    3  A    between atoms: O2_8  and  C6_9 
REMARK    4  A    between atoms: C6_9  and  C7_11 
REMARK    5  A    between atoms: C7_11  and  C8_12 
REMARK    6  A    between atoms: C8_12  and  C9_13 
REMARK    7  A    between atoms: C11_15  and  C12_16 
REMARK    8  A    between atoms: C13_17  and  C14_18 
REMARK    9  A    between atoms: C19_25  and  O5_27 
REMARK   10  A    between atoms: C22_30  and  O6_32 
REMARK   11  A    between atoms: C24_34  and  C25_35 
REMARK   12  A    between atoms: C25_35  and  O7_36 
ROOT
HETATM    1  C1  UNL     1      23.697  30.021  19.470  1.00  0.00     0.017 C 
HETATM    2  C2  UNL     1      24.579  29.090  19.696  1.00  0.00    -0.050 C 
HETATM    3  C3  UNL     1      25.539  28.640  18.667  1.00  0.00     0.150 C 
HETATM    4  C4  UNL     1      25.549  27.137  18.632  1.00  0.00     0.073 C 
HETATM    5  C5  UNL     1      25.843  26.591  19.974  1.00  0.00     0.164 C 
HETATM    6  C11 UNL     1      25.793  27.547  21.120  1.00  0.00    -0.041 C 
HETATM    7  C24 UNL     1      24.608  28.461  21.081  1.00  0.00     0.071 C 
ENDROOT
BRANCH   6   8
HETATM    8  C12 UNL     1      26.153  26.912  22.377  1.00  0.00     0.003 C 
HETATM    9  C13 UNL     1      25.357  26.387  23.297  1.00  0.00    -0.017 C 
BRANCH   9  10
HETATM   10  C14 UNL     1      25.854  25.755  24.557  1.00  0.00     0.065 C 
HETATM   11  C15 UNL     1      25.948  26.797  25.605  1.00  0.00     0.099 C 
HETATM   12  C16 UNL     1      24.904  27.915  25.512  1.00  0.00     0.046 C 
HETATM   13  N1  UNL     1      25.373  26.477  26.877  1.00  0.00    -0.344 N 
HETATM   14  C17 UNL     1      25.131  27.918  27.031  1.00  0.00     0.128 C 
HETATM   15  C18 UNL     1      25.160  25.299  27.604  1.00  0.00     0.254 C 
HETATM   16  O4  UNL     1      24.423  25.424  28.613  1.00  0.00    -0.270 OA
HETATM   17  C19 UNL     1      25.694  23.961  27.318  1.00  0.00     0.137 C 
HETATM   18  C20 UNL     1      27.016  23.821  28.049  1.00  0.00     0.056 C 
HETATM   19  C21 UNL     1      25.941  23.706  25.866  1.00  0.00     0.085 C 
HETATM   20  C22 UNL     1      25.092  24.534  24.948  1.00  0.00     0.066 C 
HETATM   21  C23 UNL     1      24.841  23.674  23.703  1.00  0.00     0.047 C 
BRANCH  17  22
HETATM   22  O5  UNL     1      24.826  23.007  27.857  1.00  0.00    -0.380 OA
ATOM     23  H5  UNL     1      23.941  23.353  27.836  1.00  0.00     0.211 HD
ENDBRANCH  17  22
BRANCH  20  24
HETATM   24  O6  UNL     1      23.838  24.823  25.470  1.00  0.00    -0.389 OA
ATOM     25  H6  UNL     1      23.351  24.045  25.716  1.00  0.00     0.210 HD
ENDBRANCH  20  24
ENDBRANCH   9  10
ENDBRANCH   6   8
BRANCH   5  26
HETATM   26  O2  UNL     1      27.144  25.993  19.954  1.00  0.00    -0.311 OA
BRANCH  26  27
HETATM   27  C6  UNL     1      27.580  25.126  18.987  1.00  0.00     0.259 C 
HETATM   28  O3  UNL     1      26.978  24.025  18.842  1.00  0.00    -0.265 OA
BRANCH  27  29
HETATM   29  C7  UNL     1      28.741  25.530  18.158  1.00  0.00     0.111 C 
BRANCH  29  30
HETATM   30  C8  UNL     1      28.314  25.566  16.718  1.00  0.00     0.009 C 
BRANCH  30  31
HETATM   31  C9  UNL     1      28.298  26.969  16.161  1.00  0.00    -0.004 C 
HETATM   32  C10 UNL     1      28.662  26.972  14.687  1.00  0.00     0.005 C 
ENDBRANCH  30  31
ENDBRANCH  29  30
ENDBRANCH  27  29
ENDBRANCH  26  27
ENDBRANCH   5  26
BRANCH   7  33
HETATM   33  C25 UNL     1      23.279  27.843  21.275  1.00  0.00     0.177 C 
BRANCH  33  34
HETATM   34  O7  UNL     1      22.552  28.303  22.373  1.00  0.00    -0.400 OA
ATOM     35  H7  UNL     1      21.941  29.009  22.196  1.00  0.00     0.209 HD
ENDBRANCH  33  34
ENDBRANCH   7  33
BRANCH   3  36
HETATM   36  O1  UNL     1      25.263  29.195  17.429  1.00  0.00    -0.391 OA
ATOM     37  H1  UNL     1      25.851  28.868  16.757  1.00  0.00     0.210 HD
ENDBRANCH   3  36
TORSDOF 12
ENDMDL
MODEL 2
REMARK VINA RESULT: -7.913624725      2.938      7.532
REMARK  12 active torsions:
REMARK  status: ('A' for Active; 'I' for Inactive)
REMARK    1  A    between atoms: C3_3  and  O1_4 
REMARK    2  A    between atoms: C5_7  and  O2_8 
REMARK    3  A    between atoms: O2_8  and  C6_9 
REMARK    4  A    between atoms: C6_9  and  C7_11 
REMARK    5  A    between atoms: C7_11  and  C8_12 
REMARK    6  A    between atoms: C8_12  and  C9_13 
REMARK    7  A    between atoms: C11_15  and  C12_16 
REMARK    8  A    between atoms: C13_17  and  C14_18 
REMARK    9  A    between atoms: C19_25  and  O5_27 
REMARK   10  A    between atoms: C22_30  and  O6_32 
REMARK   11  A    between atoms: C24_34  and  C25_35 
REMARK   12  A    between atoms: C25_35  and  O7_36 
ROOT
HETATM    1  C1  UNL     1      24.071  26.627  25.242  1.00  0.00     0.017 C 
HETATM    2  C2  UNL     1      24.426  27.118  24.089  1.00  0.00    -0.050 C 
HETATM    3  C3  UNL     1      23.896  28.397  23.574  1.00  0.00     0.150 C 
HETATM    4  C4  UNL     1      23.467  28.209  22.146  1.00  0.00     0.073 C 
HETATM    5  C5  UNL     1      24.584  27.679  21.336  1.00  0.00     0.164 C 
HETATM    6  C11 UNL     1      25.779  27.178  22.077  1.00  0.00    -0.041 C 
HETATM    7  C24 UNL     1      25.433  26.331  23.263  1.00  0.00     0.071 C 
ENDROOT
BRANCH   6   8
HETATM    8  C12 UNL     1      26.833  26.735  21.179  1.00  0.00     0.003 C 
HETATM    9  C13 UNL     1      26.728  26.016  20.070  1.00  0.00    -0.017 C 
BRANCH   9  10
HETATM   10  C14 UNL     1      27.897  25.625  19.225  1.00  0.00     0.065 C 
HETATM   11  C15 UNL     1      27.769  24.192  18.873  1.00  0.00     0.099 C 
HETATM   12  C16 UNL     1      26.331  23.685  18.710  1.00  0.00     0.046 C 
HETATM   13  N1  UNL     1      27.957  23.854  17.494  1.00  0.00    -0.344 N 
HETATM   14  C17 UNL     1      27.040  22.733  17.734  1.00  0.00     0.128 C 
HETATM   15  C18 UNL     1      28.698  24.388  16.432  1.00  0.00     0.254 C 
HETATM   16  O4  UNL     1      28.428  23.909  15.303  1.00  0.00    -0.270 OA
HETATM   17  C19 UNL     1      29.735  25.427  16.495  1.00  0.00     0.137 C 
HETATM   18  C20 UNL     1      31.073  24.739  16.692  1.00  0.00     0.056 C 
HETATM   19  C21 UNL     1      29.548  26.400  17.615  1.00  0.00     0.085 C 
HETATM   20  C22 UNL     1      28.126  26.541  18.070  1.00  0.00     0.066 C 
HETATM   21  C23 UNL     1      27.966  27.993  18.536  1.00  0.00     0.047 C 
BRANCH  17  22
HETATM   22  O5  UNL     1      29.790  26.081  15.262  1.00  0.00    -0.380 OA
ATOM     23  H5  UNL     1      29.277  26.880  15.317  1.00  0.00     0.211 HD
ENDBRANCH  17  22
BRANCH  20  24
HETATM   24  O6  UNL     1      27.201  26.364  17.048  1.00  0.00    -0.389 OA
ATOM     25  H6  UNL     1      26.507  27.013  17.062  1.00  0.00     0.210 HD
ENDBRANCH  20  24
ENDBRANCH   9  10
ENDBRANCH   6   8
BRANCH   5  26
HETATM   26  O2  UNL     1      25.022  28.698  20.430  1.00  0.00    -0.311 OA
BRANCH  26  27
HETATM   27  C6  UNL     1      24.281  29.162  19.374  1.00  0.00     0.259 C 
HETATM   28  O3  UNL     1      23.645  30.245  19.508  1.00  0.00    -0.265 OA
BRANCH  27  29
HETATM   29  C7  UNL     1      24.269  28.363  18.126  1.00  0.00     0.111 C 
BRANCH  29  30
HETATM   30  C8  UNL     1      24.951  29.151  17.044  1.00  0.00     0.009 C 
BRANCH  30  31
HETATM   31  C9  UNL     1      25.044  28.382  15.748  1.00  0.00    -0.004 C 
HETATM   32  C10 UNL     1      26.232  28.847  14.925  1.00  0.00     0.005 C 
ENDBRANCH  30  31
ENDBRANCH  29  30
ENDBRANCH  27  29
ENDBRANCH  26  27
ENDBRANCH   5  26
BRANCH   7  33
HETATM   33  C25 UNL     1      24.800  25.023  22.990  1.00  0.00     0.177 C 
BRANCH  33  34
HETATM   34  O7  UNL     1      25.243  23.961  23.778  1.00  0.00    -0.400 OA
ATOM     35  H7  UNL     1      24.712  23.764  24.541  1.00  0.00     0.209 HD
ENDBRANCH  33  34
ENDBRANCH   7  33
BRANCH   3  36
HETATM   36  O1  UNL     1      22.877  28.890  24.371  1.00  0.00    -0.391 OA
ATOM     37  H1  UNL     1      22.164  29.247  23.853  1.00  0.00     0.210 HD
ENDBRANCH   3  36
TORSDOF 12
ENDMDL
MODEL 3
REMARK VINA RESULT: -7.735770064      2.791      7.496
REMARK  12 active torsions:
REMARK  status: ('A' for Active; 'I' for Inactive)
REMARK    1  A    between atoms: C3_3  and  O1_4 
REMARK    2  A    between atoms: C5_7  and  O2_8 
REMARK    3  A    between atoms: O2_8  and  C6_9 
REMARK    4  A    between atoms: C6_9  and  C7_11 
REMARK    5  A    between atoms: C7_11  and  C8_12 
REMARK    6  A    between atoms: C8_12  and  C9_13 
REMARK    7  A    between atoms: C11_15  and  C12_16 
REMARK    8  A    between atoms: C13_17  and  C14_18 
REMARK    9  A    between atoms: C19_25  and  O5_27 
REMARK   10  A    between atoms: C22_30  and  O6_32 
REMARK   11  A    between atoms: C24_34  and  C25_35 
REMARK   12  A    between atoms: C25_35  and  O7_36 
ROOT
HETATM    1  C1  UNL     1      19.278  30.065  23.379  1.00  0.00     0.017 C 
HETATM    2  C2  UNL     1      20.200  29.167  23.572  1.00  0.00    -0.050 C 
HETATM    3  C3  UNL     1      20.347  28.443  24.852  1.00  0.00     0.150 C 
HETATM    4  C4  UNL     1      21.795  28.458  25.258  1.00  0.00     0.073 C 
HETATM    5  C5  UNL     1      22.641  27.903  24.180  1.00  0.00     0.164 C 
HETATM    6  C11 UNL     1      21.996  27.706  22.848  1.00  0.00    -0.041 C 
HETATM    7  C24 UNL     1      21.147  28.863  22.420  1.00  0.00     0.071 C 
ENDROOT
BRANCH   6   8
HETATM    8  C12 UNL     1      22.905  27.106  21.885  1.00  0.00     0.003 C 
HETATM    9  C13 UNL     1      23.971  27.640  21.307  1.00  0.00    -0.017 C 
BRANCH   9  10
HETATM   10  C14 UNL     1      24.833  26.911  20.328  1.00  0.00     0.065 C 
HETATM   11  C15 UNL     1      24.604  27.480  18.979  1.00  0.00     0.099 C 
HETATM   12  C16 UNL     1      24.274  28.977  18.948  1.00  0.00     0.046 C 
HETATM   13  N1  UNL     1      25.771  27.804  18.216  1.00  0.00    -0.344 N 
HETATM   14  C17 UNL     1      24.957  28.847  17.578  1.00  0.00     0.128 C 
HETATM   15  C18 UNL     1      27.081  27.314  18.147  1.00  0.00     0.254 C 
HETATM   16  O4  UNL     1      27.877  28.019  17.479  1.00  0.00    -0.270 OA
HETATM   17  C19 UNL     1      27.614  26.089  18.759  1.00  0.00     0.137 C 
HETATM   18  C20 UNL     1      27.454  24.960  17.757  1.00  0.00     0.056 C 
HETATM   19  C21 UNL     1      26.914  25.689  20.018  1.00  0.00     0.085 C 
HETATM   20  C22 UNL     1      26.263  26.829  20.743  1.00  0.00     0.066 C 
HETATM   21  C23 UNL     1      26.338  26.487  22.236  1.00  0.00     0.047 C 
BRANCH  17  22
HETATM   22  O5  UNL     1      28.984  26.254  18.974  1.00  0.00    -0.380 OA
ATOM     23  H5  UNL     1      29.348  25.429  19.275  1.00  0.00     0.211 HD
ENDBRANCH  17  22
BRANCH  20  24
HETATM   24  O6  UNL     1      26.939  28.034  20.594  1.00  0.00    -0.389 OA
ATOM     25  H6  UNL     1      26.743  28.468  19.772  1.00  0.00     0.210 HD
ENDBRANCH  20  24
ENDBRANCH   9  10
ENDBRANCH   6   8
BRANCH   5  26
HETATM   26  O2  UNL     1      23.165  26.641  24.608  1.00  0.00    -0.311 OA
BRANCH  26  27
HETATM   27  C6  UNL     1      24.396  26.472  25.186  1.00  0.00     0.259 C 
HETATM   28  O3  UNL     1      25.045  27.495  25.542  1.00  0.00    -0.265 OA
BRANCH  27  29
HETATM   29  C7  UNL     1      24.901  25.090  25.363  1.00  0.00     0.111 C 
BRANCH  29  30
HETATM   30  C8  UNL     1      24.352  24.232  24.258  1.00  0.00     0.009 C 
BRANCH  30  31
HETATM   31  C9  UNL     1      24.956  22.849  24.255  1.00  0.00    -0.004 C 
HETATM   32  C10 UNL     1      25.798  22.621  25.498  1.00  0.00     0.005 C 
ENDBRANCH  30  31
ENDBRANCH  29  30
ENDBRANCH  27  29
ENDBRANCH  26  27
ENDBRANCH   5  26
BRANCH   7  33
HETATM   33  C25 UNL     1      21.845  30.133  22.123  1.00  0.00     0.177 C 
BRANCH  33  34
HETATM   34  O7  UNL     1      21.717  30.602  20.816  1.00  0.00    -0.400 OA
ATOM     35  H7  UNL     1      22.152  31.425  20.629  1.00  0.00     0.209 HD
ENDBRANCH  33  34
ENDBRANCH   7  33
BRANCH   3  36
HETATM   36  O1  UNL     1      19.518  28.958  25.833  1.00  0.00    -0.391 OA
ATOM     37  H1  UNL     1      19.394  28.345  26.549  1.00  0.00     0.210 HD
ENDBRANCH   3  36
TORSDOF 12
ENDMDL
MODEL 4
REMARK VINA RESULT: -7.710144035      3.167      8.132
REMARK  12 active torsions:
REMARK  status: ('A' for Active; 'I' for Inactive)
REMARK    1  A    between atoms: C3_3  and  O1_4 
REMARK    2  A    between atoms: C5_7  and  O2_8 
REMARK    3  A    between atoms: O2_8  and  C6_9 
REMARK    4  A    between atoms: C6_9  and  C7_11 
REMARK    5  A    between atoms: C7_11  and  C8_12 
REMARK    6  A    between atoms: C8_12  and  C9_13 
REMARK    7  A    between atoms: C11_15  and  C12_16 
REMARK    8  A    between atoms: C13_17  and  C14_18 
REMARK    9  A    between atoms: C19_25  and  O5_27 
REMARK   10  A    between atoms: C22_30  and  O6_32 
REMARK   11  A    between atoms: C24_34  and  C25_35 
REMARK   12  A    between atoms: C25_35  and  O7_36 
ROOT
HETATM    1  C1  UNL     1      21.046  30.647  21.715  1.00  0.00     0.017 C 
HETATM    2  C2  UNL     1      21.855  29.636  21.849  1.00  0.00    -0.050 C 
HETATM    3  C3  UNL     1      21.957  28.862  23.103  1.00  0.00     0.150 C 
HETATM    4  C4  UNL     1      23.409  28.685  23.451  1.00  0.00     0.073 C 
HETATM    5  C5  UNL     1      24.138  28.060  22.326  1.00  0.00     0.164 C 
HETATM    6  C11 UNL     1      23.425  27.985  21.017  1.00  0.00    -0.041 C 
HETATM    7  C24 UNL     1      22.713  29.250  20.652  1.00  0.00     0.071 C 
ENDROOT
BRANCH   6   8
HETATM    8  C12 UNL     1      24.215  27.304  20.004  1.00  0.00     0.003 C 
HETATM    9  C13 UNL     1      25.277  27.746  19.346  1.00  0.00    -0.017 C 
BRANCH   9  10
HETATM   10  C14 UNL     1      26.009  26.941  18.322  1.00  0.00     0.065 C 
HETATM   11  C15 UNL     1      25.649  27.446  16.976  1.00  0.00     0.099 C 
HETATM   12  C16 UNL     1      25.356  28.948  16.899  1.00  0.00     0.046 C 
HETATM   13  N1  UNL     1      26.734  27.694  16.076  1.00  0.00    -0.344 N 
HETATM   14  C17 UNL     1      25.882  28.727  15.472  1.00  0.00     0.128 C 
HETATM   15  C18 UNL     1      28.017  27.160  15.894  1.00  0.00     0.254 C 
HETATM   16  O4  UNL     1      28.752  27.806  15.107  1.00  0.00    -0.270 OA
HETATM   17  C19 UNL     1      28.582  25.953  16.512  1.00  0.00     0.137 C 
HETATM   18  C20 UNL     1      28.286  24.780  15.596  1.00  0.00     0.056 C 
HETATM   19  C21 UNL     1      28.013  25.642  17.858  1.00  0.00     0.085 C 
HETATM   20  C22 UNL     1      27.474  26.837  18.586  1.00  0.00     0.066 C 
HETATM   21  C23 UNL     1      27.701  26.571  20.078  1.00  0.00     0.047 C 
BRANCH  17  22
HETATM   22  O5  UNL     1      29.971  26.088  16.569  1.00  0.00    -0.380 OA
ATOM     23  H5  UNL     1      30.348  25.254  16.826  1.00  0.00     0.211 HD
ENDBRANCH  17  22
BRANCH  20  24
HETATM   24  O6  UNL     1      28.159  28.011  18.298  1.00  0.00    -0.389 OA
ATOM     25  H6  UNL     1      29.086  27.956  18.498  1.00  0.00     0.210 HD
ENDBRANCH  20  24
ENDBRANCH   9  10
ENDBRANCH   6   8
BRANCH   5  26
HETATM   26  O2  UNL     1      24.515  26.731  22.701  1.00  0.00    -0.311 OA
BRANCH  26  27
HETATM   27  C6  UNL     1      23.672  25.828  23.295  1.00  0.00     0.259 C 
HETATM   28  O3  UNL     1      22.697  25.379  22.629  1.00  0.00    -0.265 OA
BRANCH  27  29
HETATM   29  C7  UNL     1      23.952  25.426  24.694  1.00  0.00     0.111 C 
BRANCH  29  30
HETATM   30  C8  UNL     1      23.763  23.940  24.814  1.00  0.00     0.009 C 
BRANCH  30  31
HETATM   31  C9  UNL     1      24.960  23.169  24.313  1.00  0.00    -0.004 C 
HETATM   32  C10 UNL     1      25.735  22.559  25.467  1.00  0.00     0.005 C 
ENDBRANCH  30  31
ENDBRANCH  29  30
ENDBRANCH  27  29
ENDBRANCH  26  27
ENDBRANCH   5  26
BRANCH   7  33
HETATM   33  C25 UNL     1      23.553  30.431  20.358  1.00  0.00     0.177 C 
BRANCH  33  34
HETATM   34  O7  UNL     1      23.335  31.035  19.120  1.00  0.00    -0.400 OA
ATOM     35  H7  UNL     1      23.550  31.960  19.069  1.00  0.00     0.209 HD
ENDBRANCH  33  34
ENDBRANCH   7  33
BRANCH   3  36
HETATM   36  O1  UNL     1      21.236  29.447  24.130  1.00  0.00    -0.391 OA
ATOM     37  H1  UNL     1      20.449  29.874  23.810  1.00  0.00     0.210 HD
ENDBRANCH   3  36
TORSDOF 12
ENDMDL
MODEL 5
REMARK VINA RESULT: -7.695525959      2.756      8.104
REMARK  12 active torsions:
REMARK  status: ('A' for Active; 'I' for Inactive)
REMARK    1  A    between atoms: C3_3  and  O1_4 
REMARK    2  A    between atoms: C5_7  and  O2_8 
REMARK    3  A    between atoms: O2_8  and  C6_9 
REMARK    4  A    between atoms: C6_9  and  C7_11 
REMARK    5  A    between atoms: C7_11  and  C8_12 
REMARK    6  A    between atoms: C8_12  and  C9_13 
REMARK    7  A    between atoms: C11_15  and  C12_16 
REMARK    8  A    between atoms: C13_17  and  C14_18 
REMARK    9  A    between atoms: C19_25  and  O5_27 
REMARK   10  A    between atoms: C22_30  and  O6_32 
REMARK   11  A    between atoms: C24_34  and  C25_35 
REMARK   12  A    between atoms: C25_35  and  O7_36 
ROOT
HETATM    1  C1  UNL     1      22.066  28.466  21.170  1.00  0.00     0.017 C 
HETATM    2  C2  UNL     1      23.109  27.864  21.663  1.00  0.00    -0.050 C 
HETATM    3  C3  UNL     1      23.155  27.367  23.054  1.00  0.00     0.150 C 
HETATM    4  C4  UNL     1      24.449  27.801  23.685  1.00  0.00     0.073 C 
HETATM    5  C5  UNL     1      25.598  27.348  22.873  1.00  0.00     0.164 C 
HETATM    6  C11 UNL     1      25.297  26.828  21.506  1.00  0.00    -0.041 C 
HETATM    7  C24 UNL     1      24.313  27.668  20.753  1.00  0.00     0.071 C 
ENDROOT
BRANCH   6   8
HETATM    8  C12 UNL     1      26.493  26.362  20.824  1.00  0.00     0.003 C 
HETATM    9  C13 UNL     1      26.607  25.852  19.606  1.00  0.00    -0.017 C 
BRANCH   9  10
HETATM   10  C14 UNL     1      27.906  25.409  19.013  1.00  0.00     0.065 C 
HETATM   11  C15 UNL     1      27.822  23.959  18.721  1.00  0.00     0.099 C 
HETATM   12  C16 UNL     1      26.432  23.450  18.324  1.00  0.00     0.046 C 
HETATM   13  N1  UNL     1      28.256  23.544  17.421  1.00  0.00    -0.344 N 
HETATM   14  C17 UNL     1      27.293  22.442  17.548  1.00  0.00     0.128 C 
HETATM   15  C18 UNL     1      29.188  24.014  16.487  1.00  0.00     0.254 C 
HETATM   16  O4  UNL     1      29.122  23.474  15.355  1.00  0.00    -0.270 OA
HETATM   17  C19 UNL     1      30.210  25.050  16.684  1.00  0.00     0.137 C 
HETATM   18  C20 UNL     1      31.479  24.367  17.161  1.00  0.00     0.056 C 
HETATM   19  C21 UNL     1      29.836  26.084  17.695  1.00  0.00     0.085 C 
HETATM   20  C22 UNL     1      28.356  26.258  17.872  1.00  0.00     0.066 C 
HETATM   21  C23 UNL     1      28.135  27.734  18.222  1.00  0.00     0.047 C 
BRANCH  17  22
HETATM   22  O5  UNL     1      30.501  25.634  15.448  1.00  0.00    -0.380 OA
ATOM     23  H5  UNL     1      29.973  26.418  15.350  1.00  0.00     0.211 HD
ENDBRANCH  17  22
BRANCH  20  24
HETATM   24  O6  UNL     1      27.632  26.029  16.709  1.00  0.00    -0.389 OA
ATOM     25  H6  UNL     1      28.186  25.825  15.964  1.00  0.00     0.210 HD
ENDBRANCH  20  24
ENDBRANCH   9  10
ENDBRANCH   6   8
BRANCH   5  26
HETATM   26  O2  UNL     1      26.297  26.325  23.590  1.00  0.00    -0.311 OA
BRANCH  26  27
HETATM   27  C6  UNL     1      26.188  26.118  24.941  1.00  0.00     0.259 C 
HETATM   28  O3  UNL     1      26.690  26.969  25.728  1.00  0.00    -0.265 OA
BRANCH  27  29
HETATM   29  C7  UNL     1      25.482  24.900  25.407  1.00  0.00     0.111 C 
BRANCH  29  30
HETATM   30  C8  UNL     1      24.987  24.143  24.208  1.00  0.00     0.009 C 
BRANCH  30  31
HETATM   31  C9  UNL     1      25.047  22.649  24.410  1.00  0.00    -0.004 C 
HETATM   32  C10 UNL     1      26.063  22.286  25.479  1.00  0.00     0.005 C 
ENDBRANCH  30  31
ENDBRANCH  29  30
ENDBRANCH  27  29
ENDBRANCH  26  27
ENDBRANCH   5  26
BRANCH   7  33
HETATM   33  C25 UNL     1      24.751  29.026  20.362  1.00  0.00     0.177 C 
BRANCH  33  34
HETATM   34  O7  UNL     1      24.934  29.232  18.994  1.00  0.00    -0.400 OA
ATOM     35  H7  UNL     1      24.206  28.979  18.439  1.00  0.00     0.209 HD
ENDBRANCH  33  34
ENDBRANCH   7  33
BRANCH   3  36
HETATM   36  O1  UNL     1      22.050  27.774  23.782  1.00  0.00    -0.391 OA
ATOM     37  H1  UNL     1      21.517  27.037  24.056  1.00  0.00     0.210 HD
ENDBRANCH   3  36
TORSDOF 12
ENDMDL
