MODEL 1
REMARK VINA RESULT: -5.317456606      0.000      0.000
REMARK  4 active torsions:
REMARK  status: ('A' for Active; 'I' for Inactive)
REMARK    1  A    between atoms: C4_4  and  N1_5 
REMARK    2  A    between atoms: C6_10  and  C7_11 
REMARK    3  A    between atoms: C7_11  and  O1_12 
REMARK    4  A    between atoms: C7_11  and  C8_14 
ROOT
HETATM    1  C1  UNL     1       8.617 -21.593  16.217  1.00  0.00     0.010 C 
HETATM    2  C2  UNL     1      10.000 -22.133  16.630  1.00  0.00    -0.010 C 
HETATM    3  C3  UNL     1      10.634 -22.572  15.301  1.00  0.00     0.037 C 
HETATM    4  C4  UNL     1      10.262 -24.043  15.269  1.00  0.00     0.184 C 
HETATM    5  C5  UNL     1      10.627 -24.448  16.683  1.00  0.00     0.040 C 
HETATM    6  C6  UNL     1       9.907 -23.365  17.444  1.00  0.00     0.020 C 
ENDROOT
BRANCH   6   7
HETATM    7  C7  UNL     1      10.236 -23.290  18.886  1.00  0.00     0.126 C 
BRANCH   7   8
HETATM    8  O1  UNL     1       9.051 -23.651  19.580  1.00  0.00    -0.395 OA
ATOM      9  H1  UNL     1       9.322 -23.883  20.460  1.00  0.00     0.210 HD
ENDBRANCH   7   8
BRANCH   7  10
HETATM   10  C8  UNL     1      10.909 -22.102  19.429  1.00  0.00     0.015 A 
HETATM   11  C9  UNL     1      11.632 -21.980  20.677  1.00  0.00     0.007 A 
HETATM   12  C10 UNL     1      12.420 -21.934  19.337  1.00  0.00     0.007 A 
ENDBRANCH   7  10
ENDBRANCH   6   7
BRANCH   4  13
HETATM   13  N1  UNL     1      10.969 -24.782  14.270  1.00  0.00    -0.075 N 
ATOM     14  H13 UNL     1      11.076 -24.230  13.418  1.00  0.00     0.274 HD
ATOM     15  H12 UNL     1      11.952 -24.888  14.524  1.00  0.00     0.274 HD
ATOM     16  H11 UNL     1      10.547 -25.687  14.065  1.00  0.00     0.274 HD
ENDBRANCH   4  13
TORSDOF 4
ENDMDL
MODEL 2
REMARK VINA RESULT: -5.194513843      1.430      1.759
REMARK  4 active torsions:
REMARK  status: ('A' for Active; 'I' for Inactive)
REMARK    1  A    between atoms: C4_4  and  N1_5 
REMARK    2  A    between atoms: C6_10  and  C7_11 
REMARK    3  A    between atoms: C7_11  and  O1_12 
REMARK    4  A    between atoms: C7_11  and  C8_14 
ROOT
HETATM    1  C1  UNL     1       8.727 -21.565  16.208  1.00  0.00     0.010 C 
HETATM    2  C2  UNL     1      10.229 -21.893  16.314  1.00  0.00    -0.010 C 
HETATM    3  C3  UNL     1      10.564 -22.517  14.950  1.00  0.00     0.037 C 
HETATM    4  C4  UNL     1      10.397 -23.994  15.252  1.00  0.00     0.184 C 
HETATM    5  C5  UNL     1      11.155 -24.092  16.561  1.00  0.00     0.040 C 
HETATM    6  C6  UNL     1      10.509 -22.953  17.307  1.00  0.00     0.020 C 
ENDROOT
BRANCH   6   7
HETATM    7  C7  UNL     1      11.174 -22.580  18.575  1.00  0.00     0.126 C 
BRANCH   7   8
HETATM    8  O1  UNL     1      12.570 -22.623  18.316  1.00  0.00    -0.395 OA
ATOM      9  H1  UNL     1      12.918 -21.788  18.607  1.00  0.00     0.210 HD
ENDBRANCH   7   8
BRANCH   7  10
HETATM   10  C8  UNL     1      10.779 -23.224  19.835  1.00  0.00     0.015 A 
HETATM   11  C9  UNL     1       9.704 -22.851  20.729  1.00  0.00     0.007 A 
HETATM   12  C10 UNL     1       9.583 -24.164  19.905  1.00  0.00     0.007 A 
ENDBRANCH   7  10
ENDBRANCH   6   7
BRANCH   4  13
HETATM   13  N1  UNL     1      10.925 -24.842  14.229  1.00  0.00    -0.075 N 
ATOM     14  H13 UNL     1      10.323 -25.653  14.083  1.00  0.00     0.274 HD
ATOM     15  H12 UNL     1      10.838 -24.402  13.312  1.00  0.00     0.274 HD
ATOM     16  H11 UNL     1      11.887 -25.132  14.404  1.00  0.00     0.274 HD
ENDBRANCH   4  13
TORSDOF 4
ENDMDL
MODEL 3
REMARK VINA RESULT: -5.186567632      2.594      4.368
REMARK  4 active torsions:
REMARK  status: ('A' for Active; 'I' for Inactive)
REMARK    1  A    between atoms: C4_4  and  N1_5 
REMARK    2  A    between atoms: C6_10  and  C7_11 
REMARK    3  A    between atoms: C7_11  and  O1_12 
REMARK    4  A    between atoms: C7_11  and  C8_14 
ROOT
HETATM    1  C1  UNL     1      11.747 -20.753  17.291  1.00  0.00     0.010 C 
HETATM    2  C2  UNL     1      10.402 -21.462  17.043  1.00  0.00    -0.010 C 
HETATM    3  C3  UNL     1       9.788 -21.584  18.446  1.00  0.00     0.037 C 
HETATM    4  C4  UNL     1      10.248 -22.973  18.850  1.00  0.00     0.184 C 
HETATM    5  C5  UNL     1       9.916 -23.747  17.590  1.00  0.00     0.040 C 
HETATM    6  C6  UNL     1      10.574 -22.854  16.570  1.00  0.00     0.020 C 
ENDROOT
BRANCH   6   7
HETATM    7  C7  UNL     1      10.249 -23.169  15.161  1.00  0.00     0.126 C 
BRANCH   7   8
HETATM    8  O1  UNL     1       8.924 -22.705  14.948  1.00  0.00    -0.395 OA
ATOM      9  H1  UNL     1       8.782 -22.014  15.585  1.00  0.00     0.210 HD
ENDBRANCH   7   8
BRANCH   7  10
HETATM   10  C8  UNL     1      10.505 -24.514  14.627  1.00  0.00     0.015 A 
HETATM   11  C9  UNL     1      11.608 -24.948  13.796  1.00  0.00     0.007 A 
HETATM   12  C10 UNL     1      11.527 -25.442  15.269  1.00  0.00     0.007 A 
ENDBRANCH   7  10
ENDBRANCH   6   7
BRANCH   4  13
HETATM   13  N1  UNL     1       9.581 -23.472  20.012  1.00  0.00    -0.075 N 
ATOM     14  H13 UNL     1       9.532 -24.491  19.993  1.00  0.00     0.274 HD
ATOM     15  H12 UNL     1      10.159 -23.347  20.844  1.00  0.00     0.274 HD
ATOM     16  H11 UNL     1       8.655 -23.067  20.149  1.00  0.00     0.274 HD
ENDBRANCH   4  13
TORSDOF 4
ENDMDL
MODEL 4
REMARK VINA RESULT: -4.793066972      2.609      4.352
REMARK  4 active torsions:
REMARK  status: ('A' for Active; 'I' for Inactive)
REMARK    1  A    between atoms: C4_4  and  N1_5 
REMARK    2  A    between atoms: C6_10  and  C7_11 
REMARK    3  A    between atoms: C7_11  and  O1_12 
REMARK    4  A    between atoms: C7_11  and  C8_14 
ROOT
HETATM    1  C1  UNL     1       8.343 -21.173  17.264  1.00  0.00     0.010 C 
HETATM    2  C2  UNL     1       9.276 -22.395  17.170  1.00  0.00    -0.010 C 
HETATM    3  C3  UNL     1       9.713 -22.634  18.624  1.00  0.00     0.037 C 
HETATM    4  C4  UNL     1      11.017 -21.860  18.672  1.00  0.00     0.184 C 
HETATM    5  C5  UNL     1      11.665 -22.337  17.388  1.00  0.00     0.040 C 
HETATM    6  C6  UNL     1      10.525 -22.100  16.433  1.00  0.00     0.020 C 
ENDROOT
BRANCH   6   7
HETATM    7  C7  UNL     1      10.707 -22.684  15.084  1.00  0.00     0.126 C 
BRANCH   7   8
HETATM    8  O1  UNL     1       9.445 -22.594  14.441  1.00  0.00    -0.395 OA
ATOM      9  H1  UNL     1       8.954 -23.360  14.716  1.00  0.00     0.210 HD
ENDBRANCH   7   8
BRANCH   7  10
HETATM   10  C8  UNL     1      11.368 -23.987  14.927  1.00  0.00     0.015 A 
HETATM   11  C9  UNL     1      10.878 -25.289  15.328  1.00  0.00     0.007 A 
HETATM   12  C10 UNL     1      10.973 -24.948  13.813  1.00  0.00     0.007 A 
ENDBRANCH   7  10
ENDBRANCH   6   7
BRANCH   4  13
HETATM   13  N1  UNL     1      11.797 -22.140  19.837  1.00  0.00    -0.075 N 
ATOM     14  H13 UNL     1      12.787 -22.213  19.602  1.00  0.00     0.274 HD
ATOM     15  H12 UNL     1      11.830 -21.329  20.456  1.00  0.00     0.274 HD
ATOM     16  H11 UNL     1      11.482 -22.969  20.342  1.00  0.00     0.274 HD
ENDBRANCH   4  13
TORSDOF 4
ENDMDL
MODEL 5
REMARK VINA RESULT: -4.631003977      2.744      4.340
REMARK  4 active torsions:
REMARK  status: ('A' for Active; 'I' for Inactive)
REMARK    1  A    between atoms: C4_4  and  N1_5 
REMARK    2  A    between atoms: C6_10  and  C7_11 
REMARK    3  A    between atoms: C7_11  and  O1_12 
REMARK    4  A    between atoms: C7_11  and  C8_14 
ROOT
HETATM    1  C1  UNL     1       8.829 -20.738  17.865  1.00  0.00     0.010 C 
HETATM    2  C2  UNL     1       9.376 -22.155  17.611  1.00  0.00    -0.010 C 
HETATM    3  C3  UNL     1       9.123 -22.889  18.937  1.00  0.00     0.037 C 
HETATM    4  C4  UNL     1      10.452 -22.691  19.642  1.00  0.00     0.184 C 
HETATM    5  C5  UNL     1      11.410 -23.043  18.522  1.00  0.00     0.040 C 
HETATM    6  C6  UNL     1      10.844 -22.173  17.430  1.00  0.00     0.020 C 
ENDROOT
BRANCH   6   7
HETATM    7  C7  UNL     1      11.390 -22.433  16.078  1.00  0.00     0.126 C 
BRANCH   7   8
HETATM    8  O1  UNL     1      11.815 -21.175  15.576  1.00  0.00    -0.395 OA
ATOM      9  H1  UNL     1      12.695 -21.043  15.907  1.00  0.00     0.210 HD
ENDBRANCH   7   8
BRANCH   7  10
HETATM   10  C8  UNL     1      10.624 -23.235  15.114  1.00  0.00     0.015 A 
HETATM   11  C9  UNL     1      11.003 -24.488  14.498  1.00  0.00     0.007 A 
HETATM   12  C10 UNL     1       9.854 -24.475  15.546  1.00  0.00     0.007 A 
ENDBRANCH   7  10
ENDBRANCH   6   7
BRANCH   4  13
HETATM   13  N1  UNL     1      10.606 -23.518  20.798  1.00  0.00    -0.075 N 
ATOM     14  H13 UNL     1       9.699 -23.843  21.135  1.00  0.00     0.274 HD
ATOM     15  H12 UNL     1      11.024 -24.415  20.550  1.00  0.00     0.274 HD
ATOM     16  H11 UNL     1      11.131 -23.068  21.548  1.00  0.00     0.274 HD
ENDBRANCH   4  13
TORSDOF 4
ENDMDL
