MODEL 1
REMARK VINA RESULT: -4.754549809      0.000      0.000
REMARK  4 active torsions:
REMARK  status: ('A' for Active; 'I' for Inactive)
REMARK    1  A    between atoms: C2_2  and  N1_3 
REMARK    2  A    between atoms: C2_2  and  N2_7 
REMARK    3  A    between atoms: C2_2  and  C3_11 
REMARK    4  A    between atoms: C3_11  and  C4_12 
ROOT
HETATM    1  C1  UNL     1      10.712 -24.519  14.641  1.00  0.00     0.078 C 
HETATM    2  C2  UNL     1      10.140 -23.124  14.885  1.00  0.00     0.279 C 
ENDROOT
BRANCH   2   3
HETATM    3  N1  UNL     1      11.318 -22.228  14.879  1.00  0.00    -0.045 N 
ATOM      4  H13 UNL     1      12.190 -22.687  15.146  1.00  0.00     0.277 HD
ATOM      5  H12 UNL     1      11.619 -21.946  13.946  1.00  0.00     0.277 HD
ATOM      6  H11 UNL     1      11.056 -21.450  15.484  1.00  0.00     0.277 HD
ENDBRANCH   2   3
BRANCH   2   7
HETATM    7  N2  UNL     1       9.371 -22.773  13.745  1.00  0.00    -0.045 N 
ATOM      8  H23 UNL     1       9.923 -22.321  13.016  1.00  0.00     0.277 HD
ATOM      9  H22 UNL     1       9.072 -23.584  13.202  1.00  0.00     0.277 HD
ATOM     10  H21 UNL     1       8.591 -22.200  14.066  1.00  0.00     0.277 HD
ENDBRANCH   2   7
BRANCH   2  11
HETATM   11  C3  UNL     1       9.517 -22.974  16.214  1.00  0.00     0.081 C 
BRANCH  11  12
HETATM   12  C4  UNL     1      10.334 -23.284  17.402  1.00  0.00     0.062 C 
HETATM   13  C5  UNL     1       9.596 -24.132  18.472  1.00  0.00     0.091 C 
HETATM   14  C6  UNL     1      10.071 -23.695  19.727  1.00  0.00    -0.182 C 
HETATM   15  C7  UNL     1      10.575 -23.168  20.923  1.00  0.00     0.083 C 
HETATM   16  C8  UNL     1      11.467 -21.946  20.504  1.00  0.00     0.041 C 
HETATM   17  C9  UNL     1      11.841 -21.973  19.051  1.00  0.00     0.012 C 
HETATM   18  C10 UNL     1      10.926 -21.999  17.942  1.00  0.00     0.095 C 
HETATM   19  F1  UNL     1      10.027 -20.919  17.854  1.00  0.00    -0.211 F 
ENDBRANCH  11  12
ENDBRANCH   2  11
TORSDOF 4
ENDMDL
MODEL 2
REMARK VINA RESULT: -4.518127773      1.460      2.133
REMARK  4 active torsions:
REMARK  status: ('A' for Active; 'I' for Inactive)
REMARK    1  A    between atoms: C2_2  and  N1_3 
REMARK    2  A    between atoms: C2_2  and  N2_7 
REMARK    3  A    between atoms: C2_2  and  C3_11 
REMARK    4  A    between atoms: C3_11  and  C4_12 
ROOT
HETATM    1  C1  UNL     1      10.973 -24.801  14.118  1.00  0.00     0.078 C 
HETATM    2  C2  UNL     1      10.550 -23.726  15.118  1.00  0.00     0.279 C 
ENDROOT
BRANCH   2   3
HETATM    3  N1  UNL     1      11.156 -22.477  14.606  1.00  0.00    -0.045 N 
ATOM      4  H13 UNL     1      10.618 -22.029  13.864  1.00  0.00     0.277 HD
ATOM      5  H12 UNL     1      11.116 -21.698  15.263  1.00  0.00     0.277 HD
ATOM      6  H11 UNL     1      12.102 -22.741  14.332  1.00  0.00     0.277 HD
ENDBRANCH   2   3
BRANCH   2   7
HETATM    7  N2  UNL     1       9.145 -23.563  15.000  1.00  0.00    -0.045 N 
ATOM      8  H23 UNL     1       8.883 -22.871  14.297  1.00  0.00     0.277 HD
ATOM      9  H22 UNL     1       8.686 -24.367  14.572  1.00  0.00     0.277 HD
ATOM     10  H21 UNL     1       8.783 -23.343  15.928  1.00  0.00     0.277 HD
ENDBRANCH   2   7
BRANCH   2  11
HETATM   11  C3  UNL     1      11.111 -23.933  16.467  1.00  0.00     0.081 C 
BRANCH  11  12
HETATM   12  C4  UNL     1      10.636 -23.061  17.557  1.00  0.00     0.062 C 
HETATM   13  C5  UNL     1      11.692 -22.037  18.053  1.00  0.00     0.091 C 
HETATM   14  C6  UNL     1      11.483 -21.886  19.440  1.00  0.00    -0.182 C 
HETATM   15  C7  UNL     1      11.223 -21.833  20.815  1.00  0.00     0.083 C 
HETATM   16  C8  UNL     1      10.132 -22.930  21.082  1.00  0.00     0.041 C 
HETATM   17  C9  UNL     1       9.430 -23.365  19.829  1.00  0.00     0.012 C 
HETATM   18  C10 UNL     1      10.055 -23.921  18.659  1.00  0.00     0.095 C 
HETATM   19  F1  UNL     1      10.787 -25.109  18.852  1.00  0.00    -0.211 F 
ENDBRANCH  11  12
ENDBRANCH   2  11
TORSDOF 4
ENDMDL
MODEL 3
REMARK VINA RESULT: -4.469341701      2.950      4.896
REMARK  4 active torsions:
REMARK  status: ('A' for Active; 'I' for Inactive)
REMARK    1  A    between atoms: C2_2  and  N1_3 
REMARK    2  A    between atoms: C2_2  and  N2_7 
REMARK    3  A    between atoms: C2_2  and  C3_11 
REMARK    4  A    between atoms: C3_11  and  C4_12 
ROOT
HETATM    1  C1  UNL     1      12.182 -22.403  19.600  1.00  0.00     0.078 C 
HETATM    2  C2  UNL     1      10.759 -22.280  20.140  1.00  0.00     0.279 C 
ENDROOT
BRANCH   2   3
HETATM    3  N1  UNL     1      10.489 -23.581  20.790  1.00  0.00    -0.045 N 
ATOM      4  H13 UNL     1      11.306 -24.001  21.234  1.00  0.00     0.277 HD
ATOM      5  H12 UNL     1       9.922 -23.513  21.635  1.00  0.00     0.277 HD
ATOM      6  H11 UNL     1      10.074 -24.157  20.058  1.00  0.00     0.277 HD
ENDBRANCH   2   3
BRANCH   2   7
HETATM    7  N2  UNL     1      10.779 -21.314  21.180  1.00  0.00    -0.045 N 
ATOM      8  H23 UNL     1      11.415 -21.560  21.939  1.00  0.00     0.277 HD
ATOM      9  H22 UNL     1      11.231 -20.443  20.905  1.00  0.00     0.277 HD
ATOM     10  H21 UNL     1       9.818 -21.183  21.495  1.00  0.00     0.277 HD
ENDBRANCH   2   7
BRANCH   2  11
HETATM   11  C3  UNL     1       9.745 -22.132  19.079  1.00  0.00     0.081 C 
BRANCH  11  12
HETATM   12  C4  UNL     1      10.196 -22.191  17.675  1.00  0.00     0.062 C 
HETATM   13  C5  UNL     1       9.219 -21.527  16.669  1.00  0.00     0.091 C 
HETATM   14  C6  UNL     1       9.290 -22.286  15.481  1.00  0.00    -0.182 C 
HETATM   15  C7  UNL     1       9.403 -23.121  14.363  1.00  0.00     0.083 C 
HETATM   16  C8  UNL     1      10.323 -24.311  14.814  1.00  0.00     0.041 C 
HETATM   17  C9  UNL     1      11.102 -24.000  16.058  1.00  0.00     0.012 C 
HETATM   18  C10 UNL     1      10.549 -23.623  17.330  1.00  0.00     0.095 C 
HETATM   19  F1  UNL     1       9.668 -24.548  17.922  1.00  0.00    -0.211 F 
ENDBRANCH  11  12
ENDBRANCH   2  11
TORSDOF 4
ENDMDL
MODEL 4
REMARK VINA RESULT: -4.406228318      1.519      2.336
REMARK  4 active torsions:
REMARK  status: ('A' for Active; 'I' for Inactive)
REMARK    1  A    between atoms: C2_2  and  N1_3 
REMARK    2  A    between atoms: C2_2  and  N2_7 
REMARK    3  A    between atoms: C2_2  and  C3_11 
REMARK    4  A    between atoms: C3_11  and  C4_12 
ROOT
HETATM    1  C1  UNL     1       9.110 -23.137  14.837  1.00  0.00     0.078 C 
HETATM    2  C2  UNL     1      10.584 -23.479  15.046  1.00  0.00     0.279 C 
ENDROOT
BRANCH   2   3
HETATM    3  N1  UNL     1      10.831 -24.637  14.158  1.00  0.00    -0.045 N 
ATOM      4  H13 UNL     1      10.199 -24.689  13.358  1.00  0.00     0.277 HD
ATOM      5  H12 UNL     1      11.693 -24.568  13.618  1.00  0.00     0.277 HD
ATOM      6  H11 UNL     1      10.790 -25.449  14.772  1.00  0.00     0.277 HD
ENDBRANCH   2   3
BRANCH   2   7
HETATM    7  N2  UNL     1      11.350 -22.406  14.519  1.00  0.00    -0.045 N 
ATOM      8  H23 UNL     1      10.882 -21.504  14.606  1.00  0.00     0.277 HD
ATOM      9  H22 UNL     1      12.169 -22.186  15.087  1.00  0.00     0.277 HD
ATOM     10  H21 UNL     1      11.585 -22.642  13.556  1.00  0.00     0.277 HD
ENDBRANCH   2   7
BRANCH   2  11
HETATM   11  C3  UNL     1      10.887 -23.939  16.414  1.00  0.00     0.081 C 
BRANCH  11  12
HETATM   12  C4  UNL     1      10.450 -23.094  17.542  1.00  0.00     0.062 C 
HETATM   13  C5  UNL     1      11.475 -22.001  17.946  1.00  0.00     0.091 C 
HETATM   14  C6  UNL     1      11.377 -21.857  19.347  1.00  0.00    -0.182 C 
HETATM   15  C7  UNL     1      11.232 -21.815  20.739  1.00  0.00     0.083 C 
HETATM   16  C8  UNL     1      10.242 -22.979  21.098  1.00  0.00     0.041 C 
HETATM   17  C9  UNL     1       9.466 -23.465  19.909  1.00  0.00     0.012 C 
HETATM   18  C10 UNL     1      10.023 -23.985  18.690  1.00  0.00     0.095 C 
HETATM   19  F1  UNL     1      10.845 -25.121  18.818  1.00  0.00    -0.211 F 
ENDBRANCH  11  12
ENDBRANCH   2  11
TORSDOF 4
ENDMDL
MODEL 5
REMARK VINA RESULT: -4.222641095      2.350      4.602
REMARK  4 active torsions:
REMARK  status: ('A' for Active; 'I' for Inactive)
REMARK    1  A    between atoms: C2_2  and  N1_3 
REMARK    2  A    between atoms: C2_2  and  N2_7 
REMARK    3  A    between atoms: C2_2  and  C3_11 
REMARK    4  A    between atoms: C3_11  and  C4_12 
ROOT
HETATM    1  C1  UNL     1      11.363 -21.290  21.070  1.00  0.00     0.078 C 
HETATM    2  C2  UNL     1      10.925 -22.300  20.011  1.00  0.00     0.279 C 
ENDROOT
BRANCH   2   3
HETATM    3  N1  UNL     1      12.146 -22.566  19.218  1.00  0.00    -0.045 N 
ATOM      4  H13 UNL     1      12.255 -23.541  18.938  1.00  0.00     0.277 HD
ATOM      5  H12 UNL     1      12.120 -22.178  18.275  1.00  0.00     0.277 HD
ATOM      6  H11 UNL     1      12.911 -22.212  19.791  1.00  0.00     0.277 HD
ENDBRANCH   2   3
BRANCH   2   7
HETATM    7  N2  UNL     1      10.617 -23.513  20.681  1.00  0.00    -0.045 N 
ATOM      8  H23 UNL     1      11.416 -24.143  20.753  1.00  0.00     0.277 HD
ATOM      9  H22 UNL     1      10.457 -23.386  21.681  1.00  0.00     0.277 HD
ATOM     10  H21 UNL     1       9.821 -23.934  20.201  1.00  0.00     0.277 HD
ENDBRANCH   2   7
BRANCH   2  11
HETATM   11  C3  UNL     1       9.930 -21.758  19.067  1.00  0.00     0.081 C 
BRANCH  11  12
HETATM   12  C4  UNL     1       9.536 -22.596  17.918  1.00  0.00     0.062 C 
HETATM   13  C5  UNL     1      10.318 -23.932  17.813  1.00  0.00     0.091 C 
HETATM   14  C6  UNL     1      10.473 -24.199  16.436  1.00  0.00    -0.182 C 
HETATM   15  C7  UNL     1      10.607 -24.356  15.051  1.00  0.00     0.083 C 
HETATM   16  C8  UNL     1      10.030 -23.041  14.418  1.00  0.00     0.041 C 
HETATM   17  C9  UNL     1       9.174 -22.265  15.375  1.00  0.00     0.012 C 
HETATM   18  C10 UNL     1       9.584 -21.759  16.657  1.00  0.00     0.095 C 
HETATM   19  F1  UNL     1      10.670 -20.863  16.653  1.00  0.00    -0.211 F 
ENDBRANCH  11  12
ENDBRANCH   2  11
TORSDOF 4
ENDMDL
