MODEL 1
REMARK VINA RESULT: -6.242121292      0.000      0.000
REMARK  3 active torsions:
REMARK  status: ('A' for Active; 'I' for Inactive)
REMARK    1  A    between atoms: C2_2  and  C3_6 
REMARK    2  A    between atoms: C3_6  and  C5_8 
REMARK    3  A    between atoms: C5_8  and  N2_9 
ROOT
HETATM    1  C5  UNL     1      10.423 -22.464  17.597  1.00  0.00     0.162 C 
HETATM    2  C6  UNL     1      11.137 -21.634  18.623  1.00  0.00     0.042 C 
HETATM    3  C7  UNL     1      11.403 -22.300  19.920  1.00  0.00     0.003 C 
HETATM    4  C8  UNL     1      10.283 -23.074  20.521  1.00  0.00     0.003 C 
HETATM    5  C9  UNL     1       9.493 -23.795  19.465  1.00  0.00     0.040 C 
HETATM    6  C10 UNL     1      10.219 -23.835  18.138  1.00  0.00     0.206 C 
HETATM    7  F1  UNL     1      11.386 -24.569  18.240  1.00  0.00    -0.247 F 
ENDROOT
BRANCH   1   8
HETATM    8  C3  UNL     1      11.173 -22.504  16.279  1.00  0.00     0.065 C 
HETATM    9  C4  UNL     1      11.663 -21.178  15.807  1.00  0.00     0.018 C 
BRANCH   8  10
HETATM   10  C2  UNL     1      10.395 -23.143  15.191  1.00  0.00    -0.018 C 
HETATM   11  C1  UNL     1      10.777 -24.514  14.758  1.00  0.00     0.063 C 
HETATM   12  N1  UNL     1       9.423 -22.583  14.606  1.00  0.00    -0.405 N 
ATOM     13  H12 UNL     1       8.888 -23.023  13.857  1.00  0.00     0.155 HD
ATOM     14  H11 UNL     1       9.161 -21.643  14.902  1.00  0.00     0.155 HD
ENDBRANCH   8  10
ENDBRANCH   1   8
BRANCH   1  15
HETATM   15  N2  UNL     1       9.113 -21.898  17.268  1.00  0.00    -0.067 N 
ATOM     16  H23 UNL     1       8.992 -20.932  17.572  1.00  0.00     0.275 HD
ATOM     17  H22 UNL     1       8.975 -21.726  16.273  1.00  0.00     0.275 HD
ATOM     18  H21 UNL     1       8.438 -22.547  17.673  1.00  0.00     0.275 HD
ENDBRANCH   1  15
TORSDOF 3
ENDMDL
MODEL 2
REMARK VINA RESULT: -5.740917666      1.687      2.099
REMARK  3 active torsions:
REMARK  status: ('A' for Active; 'I' for Inactive)
REMARK    1  A    between atoms: C2_2  and  C3_6 
REMARK    2  A    between atoms: C3_6  and  C5_8 
REMARK    3  A    between atoms: C5_8  and  N2_9 
ROOT
HETATM    1  C5  UNL     1      11.164 -22.454  18.021  1.00  0.00     0.162 C 
HETATM    2  C6  UNL     1      10.758 -23.899  18.008  1.00  0.00     0.042 C 
HETATM    3  C7  UNL     1       9.668 -24.271  18.941  1.00  0.00     0.003 C 
HETATM    4  C8  UNL     1       9.758 -23.737  20.327  1.00  0.00     0.003 C 
HETATM    5  C9  UNL     1      10.295 -22.333  20.335  1.00  0.00     0.040 C 
HETATM    6  C10 UNL     1      10.279 -21.709  18.956  1.00  0.00     0.206 C 
HETATM    7  F1  UNL     1       8.983 -21.568  18.498  1.00  0.00    -0.247 F 
ENDROOT
BRANCH   1   8
HETATM    8  C3  UNL     1      11.128 -21.843  16.633  1.00  0.00     0.065 C 
HETATM    9  C4  UNL     1      10.849 -20.379  16.610  1.00  0.00     0.018 C 
BRANCH   8  10
HETATM   10  C2  UNL     1      10.179 -22.527  15.725  1.00  0.00    -0.018 C 
HETATM   11  C1  UNL     1      10.675 -23.670  14.910  1.00  0.00     0.063 C 
HETATM   12  N1  UNL     1       8.965 -22.190  15.600  1.00  0.00    -0.405 N 
ATOM     13  H12 UNL     1       8.312 -22.662  14.974  1.00  0.00     0.155 HD
ATOM     14  H11 UNL     1       8.625 -21.407  16.157  1.00  0.00     0.155 HD
ENDBRANCH   8  10
ENDBRANCH   1   8
BRANCH   1  15
HETATM   15  N2  UNL     1      12.549 -22.292  18.468  1.00  0.00    -0.067 N 
ATOM     16  H23 UNL     1      12.767 -22.795  19.328  1.00  0.00     0.275 HD
ATOM     17  H22 UNL     1      13.232 -22.767  17.879  1.00  0.00     0.275 HD
ATOM     18  H21 UNL     1      12.688 -21.284  18.532  1.00  0.00     0.275 HD
ENDBRANCH   1  15
TORSDOF 3
ENDMDL
MODEL 3
REMARK VINA RESULT: -5.644118234      2.034      4.192
REMARK  3 active torsions:
REMARK  status: ('A' for Active; 'I' for Inactive)
REMARK    1  A    between atoms: C2_2  and  C3_6 
REMARK    2  A    between atoms: C3_6  and  C5_8 
REMARK    3  A    between atoms: C5_8  and  N2_9 
ROOT
HETATM    1  C5  UNL     1      10.444 -23.287  17.313  1.00  0.00     0.162 C 
HETATM    2  C6  UNL     1      11.172 -22.218  16.553  1.00  0.00     0.042 C 
HETATM    3  C7  UNL     1      11.035 -22.268  15.078  1.00  0.00     0.003 C 
HETATM    4  C8  UNL     1      11.185 -23.601  14.433  1.00  0.00     0.003 C 
HETATM    5  C9  UNL     1      10.566 -24.684  15.273  1.00  0.00     0.040 C 
HETATM    6  C10 UNL     1       9.670 -24.122  16.355  1.00  0.00     0.206 C 
HETATM    7  F1  UNL     1       8.585 -23.469  15.802  1.00  0.00    -0.247 F 
ENDROOT
BRANCH   1   8
HETATM    8  C3  UNL     1       9.540 -22.706  18.383  1.00  0.00     0.065 C 
HETATM    9  C4  UNL     1       9.146 -21.287  18.155  1.00  0.00     0.018 C 
BRANCH   8  10
HETATM   10  C2  UNL     1      10.104 -22.834  19.748  1.00  0.00    -0.018 C 
HETATM   11  C1  UNL     1      11.283 -22.000  20.108  1.00  0.00     0.063 C 
HETATM   12  N1  UNL     1       9.640 -23.619  20.625  1.00  0.00    -0.405 N 
ATOM     13  H12 UNL     1      10.028 -23.707  21.564  1.00  0.00     0.155 HD
ATOM     14  H11 UNL     1       8.832 -24.190  20.378  1.00  0.00     0.155 HD
ENDBRANCH   8  10
ENDBRANCH   1   8
BRANCH   1  15
HETATM   15  N2  UNL     1      11.374 -24.157  18.037  1.00  0.00    -0.067 N 
ATOM     16  H23 UNL     1      11.558 -23.859  18.995  1.00  0.00     0.275 HD
ATOM     17  H22 UNL     1      10.988 -25.071  18.271  1.00  0.00     0.275 HD
ATOM     18  H21 UNL     1      12.206 -24.198  17.448  1.00  0.00     0.275 HD
ENDBRANCH   1  15
TORSDOF 3
ENDMDL
MODEL 4
REMARK VINA RESULT: -5.354327425      1.221      1.250
REMARK  3 active torsions:
REMARK  status: ('A' for Active; 'I' for Inactive)
REMARK    1  A    between atoms: C2_2  and  C3_6 
REMARK    2  A    between atoms: C3_6  and  C5_8 
REMARK    3  A    between atoms: C5_8  and  N2_9 
ROOT
HETATM    1  C5  UNL     1      10.343 -23.246  17.396  1.00  0.00     0.162 C 
HETATM    2  C6  UNL     1       9.547 -22.137  18.019  1.00  0.00     0.042 C 
HETATM    3  C7  UNL     1       9.807 -21.884  19.455  1.00  0.00     0.003 C 
HETATM    4  C8  UNL     1       9.879 -23.075  20.346  1.00  0.00     0.003 C 
HETATM    5  C9  UNL     1      10.562 -24.226  19.659  1.00  0.00     0.040 C 
HETATM    6  C10 UNL     1      11.291 -23.790  18.407  1.00  0.00     0.206 C 
HETATM    7  F1  UNL     1      12.324 -22.927  18.717  1.00  0.00    -0.247 F 
ENDROOT
BRANCH   1   8
HETATM    8  C3  UNL     1      11.077 -22.788  16.151  1.00  0.00     0.065 C 
HETATM    9  C4  UNL     1      11.265 -21.313  16.052  1.00  0.00     0.018 C 
BRANCH   8  10
HETATM   10  C2  UNL     1      10.453 -23.278  14.899  1.00  0.00    -0.018 C 
HETATM   11  C1  UNL     1      10.952 -24.550  14.309  1.00  0.00     0.063 C 
HETATM   12  N1  UNL     1       9.519 -22.670  14.300  1.00  0.00    -0.405 N 
ATOM     13  H12 UNL     1       9.089 -23.007  13.439  1.00  0.00     0.155 HD
ATOM     14  H11 UNL     1       9.177 -21.798  14.704  1.00  0.00     0.155 HD
ENDBRANCH   8  10
ENDBRANCH   1   8
BRANCH   1  15
HETATM   15  N2  UNL     1       9.477 -24.337  16.943  1.00  0.00    -0.067 N 
ATOM     16  H23 UNL     1       9.078 -24.190  16.015  1.00  0.00     0.275 HD
ATOM     17  H22 UNL     1       9.977 -25.197  16.720  1.00  0.00     0.275 HD
ATOM     18  H21 UNL     1       8.780 -24.442  17.681  1.00  0.00     0.275 HD
ENDBRANCH   1  15
TORSDOF 3
ENDMDL
MODEL 5
REMARK VINA RESULT: -5.111766315      0.992      1.507
REMARK  3 active torsions:
REMARK  status: ('A' for Active; 'I' for Inactive)
REMARK    1  A    between atoms: C2_2  and  C3_6 
REMARK    2  A    between atoms: C3_6  and  C5_8 
REMARK    3  A    between atoms: C5_8  and  N2_9 
ROOT
HETATM    1  C5  UNL     1      10.094 -22.720  17.892  1.00  0.00     0.162 C 
HETATM    2  C6  UNL     1      11.403 -21.997  18.017  1.00  0.00     0.042 C 
HETATM    3  C7  UNL     1      12.148 -22.224  19.277  1.00  0.00     0.003 C 
HETATM    4  C8  UNL     1      11.365 -22.165  20.542  1.00  0.00     0.003 C 
HETATM    5  C9  UNL     1      10.002 -22.775  20.365  1.00  0.00     0.040 C 
HETATM    6  C10 UNL     1       9.900 -23.583  19.089  1.00  0.00     0.206 C 
HETATM    7  F1  UNL     1      10.749 -24.672  19.130  1.00  0.00    -0.247 F 
ENDROOT
BRANCH   1   8
HETATM    8  C3  UNL     1      10.016 -23.535  16.615  1.00  0.00     0.065 C 
HETATM    9  C4  UNL     1      11.145 -24.487  16.419  1.00  0.00     0.018 C 
BRANCH   8  10
HETATM   10  C2  UNL     1       9.882 -22.694  15.401  1.00  0.00    -0.018 C 
HETATM   11  C1  UNL     1      11.112 -22.106  14.806  1.00  0.00     0.063 C 
HETATM   12  N1  UNL     1       8.773 -22.446  14.843  1.00  0.00    -0.405 N 
ATOM     13  H12 UNL     1       8.681 -21.868  14.008  1.00  0.00     0.155 HD
ATOM     14  H11 UNL     1       7.930 -22.849  15.251  1.00  0.00     0.155 HD
ENDBRANCH   8  10
ENDBRANCH   1   8
BRANCH   1  15
HETATM   15  N2  UNL     1       8.971 -21.784  17.811  1.00  0.00    -0.067 N 
ATOM     16  H23 UNL     1       8.289 -22.018  17.090  1.00  0.00     0.275 HD
ATOM     17  H22 UNL     1       8.330 -21.838  18.601  1.00  0.00     0.275 HD
ATOM     18  H21 UNL     1       9.403 -20.867  17.690  1.00  0.00     0.275 HD
ENDBRANCH   1  15
TORSDOF 3
ENDMDL
