MODEL 1
REMARK VINA RESULT: -5.047057263      0.000      0.000
REMARK  2 active torsions:
REMARK  status: ('A' for Active; 'I' for Inactive)
REMARK    1  A    between atoms: N1_2  and  C2_5 
REMARK    2  A    between atoms: C2_5  and  C3_6 
ROOT
HETATM    1  C3  UNL     1      10.550 -21.961  16.246  1.00  0.00     0.076 C 
HETATM    2  C4  UNL     1       9.171 -21.526  16.605  1.00  0.00     0.036 C 
HETATM    3  C5  UNL     1       9.025 -21.203  18.083  1.00  0.00     0.116 C 
HETATM    4  N2  UNL     1       9.137 -22.389  18.843  1.00  0.00    -0.405 N 
ATOM      5  H2  UNL     1       8.311 -22.876  19.191  1.00  0.00     0.154 HD
HETATM    6  C6  UNL     1      10.435 -22.870  19.099  1.00  0.00     0.067 C 
HETATM    7  C7  UNL     1      11.222 -22.068  20.105  1.00  0.00     0.050 C 
HETATM    8  C8  UNL     1      10.342 -24.288  19.626  1.00  0.00     0.050 C 
HETATM    9  S1  UNL     1      11.383 -22.875  17.549  1.00  0.00    -0.132 SA
ENDROOT
BRANCH   1  10
HETATM   10  C2  UNL     1      10.572 -22.769  14.973  1.00  0.00     0.247 C 
BRANCH  10  11
HETATM   11  N1  UNL     1      10.183 -24.137  15.166  1.00  0.00    -0.078 N 
HETATM   12  C1  UNL     1      11.105 -24.969  14.415  1.00  0.00     0.267 C 
ATOM     13  H12 UNL     1       9.207 -24.310  14.925  1.00  0.00     0.276 HD
ATOM     14  H11 UNL     1      10.126 -24.398  16.151  1.00  0.00     0.276 HD
ENDBRANCH  10  11
ENDBRANCH   1  10
TORSDOF 2
ENDMDL
MODEL 2
REMARK VINA RESULT: -4.560300833      1.052      1.095
REMARK  2 active torsions:
REMARK  status: ('A' for Active; 'I' for Inactive)
REMARK    1  A    between atoms: N1_2  and  C2_5 
REMARK    2  A    between atoms: C2_5  and  C3_6 
ROOT
HETATM    1  C3  UNL     1      10.599 -23.286  16.275  1.00  0.00     0.076 C 
HETATM    2  C4  UNL     1       9.714 -22.092  16.186  1.00  0.00     0.036 C 
HETATM    3  C5  UNL     1       9.926 -21.118  17.334  1.00  0.00     0.116 C 
HETATM    4  N2  UNL     1       9.471 -21.698  18.539  1.00  0.00    -0.405 N 
ATOM      5  H2  UNL     1       8.556 -21.467  18.928  1.00  0.00     0.154 HD
HETATM    6  C6  UNL     1      10.331 -22.609  19.182  1.00  0.00     0.067 C 
HETATM    7  C7  UNL     1      11.530 -21.984  19.852  1.00  0.00     0.050 C 
HETATM    8  C8  UNL     1       9.556 -23.355  20.249  1.00  0.00     0.050 C 
HETATM    9  S1  UNL     1      10.954 -23.800  17.960  1.00  0.00    -0.132 SA
ENDROOT
BRANCH   1  10
HETATM   10  C2  UNL     1      10.047 -24.456  15.499  1.00  0.00     0.247 C 
BRANCH  10  11
HETATM   11  N1  UNL     1      10.459 -24.466  14.125  1.00  0.00    -0.078 N 
HETATM   12  C1  UNL     1      11.749 -25.128  14.055  1.00  0.00     0.267 C 
ATOM     13  H12 UNL     1      10.468 -23.536  13.706  1.00  0.00     0.276 HD
ATOM     14  H11 UNL     1       9.765 -24.885  13.506  1.00  0.00     0.276 HD
ENDBRANCH  10  11
ENDBRANCH   1  10
TORSDOF 2
ENDMDL
MODEL 3
REMARK VINA RESULT: -3.847717784      1.636      4.271
REMARK  2 active torsions:
REMARK  status: ('A' for Active; 'I' for Inactive)
REMARK    1  A    between atoms: N1_2  and  C2_5 
REMARK    2  A    between atoms: C2_5  and  C3_6 
ROOT
HETATM    1  C3  UNL     1      10.781 -22.222  18.148  1.00  0.00     0.076 C 
HETATM    2  C4  UNL     1      11.716 -21.322  17.417  1.00  0.00     0.036 C 
HETATM    3  C5  UNL     1      11.310 -21.105  15.969  1.00  0.00     0.116 C 
HETATM    4  N2  UNL     1      11.476 -22.307  15.244  1.00  0.00    -0.405 N 
ATOM      5  H2  UNL     1      12.297 -22.466  14.660  1.00  0.00     0.154 HD
HETATM    6  C6  UNL     1      10.461 -23.276  15.361  1.00  0.00     0.067 C 
HETATM    7  C7  UNL     1       9.176 -22.938  14.646  1.00  0.00     0.050 C 
HETATM    8  C8  UNL     1      10.961 -24.589  14.793  1.00  0.00     0.050 C 
HETATM    9  S1  UNL     1      10.058 -23.504  17.117  1.00  0.00    -0.132 SA
ENDROOT
BRANCH   1  10
HETATM   10  C2  UNL     1      11.433 -22.854  19.352  1.00  0.00     0.247 C 
BRANCH  10  11
HETATM   11  N1  UNL     1      10.662 -23.926  19.914  1.00  0.00    -0.078 N 
HETATM   12  C1  UNL     1       9.547 -23.338  20.634  1.00  0.00     0.267 C 
ATOM     13  H12 UNL     1      11.219 -24.554  20.492  1.00  0.00     0.276 HD
ATOM     14  H11 UNL     1      10.367 -24.610  19.217  1.00  0.00     0.276 HD
ENDBRANCH  10  11
ENDBRANCH   1  10
TORSDOF 2
ENDMDL
MODEL 4
REMARK VINA RESULT: -3.768515700      1.685      4.242
REMARK  2 active torsions:
REMARK  status: ('A' for Active; 'I' for Inactive)
REMARK    1  A    between atoms: N1_2  and  C2_5 
REMARK    2  A    between atoms: C2_5  and  C3_6 
ROOT
HETATM    1  C3  UNL     1       9.805 -22.995  18.747  1.00  0.00     0.076 C 
HETATM    2  C4  UNL     1       9.181 -21.649  18.620  1.00  0.00     0.036 C 
HETATM    3  C5  UNL     1       8.618 -21.392  17.232  1.00  0.00     0.116 C 
HETATM    4  N2  UNL     1       9.678 -21.284  16.303  1.00  0.00    -0.405 N 
ATOM      5  H2  UNL     1      10.017 -20.374  15.989  1.00  0.00     0.154 HD
HETATM    6  C6  UNL     1      10.245 -22.482  15.828  1.00  0.00     0.067 C 
HETATM    7  C7  UNL     1       9.381 -23.253  14.861  1.00  0.00     0.050 C 
HETATM    8  C8  UNL     1      11.546 -22.167  15.118  1.00  0.00     0.050 C 
HETATM    9  S1  UNL     1      10.587 -23.575  17.237  1.00  0.00    -0.132 SA
ENDROOT
BRANCH   1  10
HETATM   10  C2  UNL     1      10.800 -23.050  19.880  1.00  0.00     0.247 C 
BRANCH  10  11
HETATM   11  N1  UNL     1      11.951 -22.220  19.662  1.00  0.00    -0.078 N 
HETATM   12  C1  UNL     1      12.185 -21.460  20.876  1.00  0.00     0.267 C 
ATOM     13  H12 UNL     1      11.862 -21.629  18.836  1.00  0.00     0.276 HD
ATOM     14  H11 UNL     1      12.769 -22.750  19.361  1.00  0.00     0.276 HD
ENDBRANCH  10  11
ENDBRANCH   1  10
TORSDOF 2
ENDMDL
MODEL 5
REMARK VINA RESULT: -3.560611403      1.578      4.337
REMARK  2 active torsions:
REMARK  status: ('A' for Active; 'I' for Inactive)
REMARK    1  A    between atoms: N1_2  and  C2_5 
REMARK    2  A    between atoms: C2_5  and  C3_6 
ROOT
HETATM    1  C3  UNL     1      11.628 -22.793  18.587  1.00  0.00     0.076 C 
HETATM    2  C4  UNL     1      11.340 -24.218  18.264  1.00  0.00     0.036 C 
HETATM    3  C5  UNL     1      11.200 -24.463  16.771  1.00  0.00     0.116 C 
HETATM    4  N2  UNL     1      10.026 -23.839  16.293  1.00  0.00    -0.405 N 
ATOM      5  H2  UNL     1       9.168 -24.369  16.141  1.00  0.00     0.154 HD
HETATM    6  C6  UNL     1      10.090 -22.456  16.038  1.00  0.00     0.067 C 
HETATM    7  C7  UNL     1      10.877 -22.073  14.809  1.00  0.00     0.050 C 
HETATM    8  C8  UNL     1       8.683 -21.920  15.856  1.00  0.00     0.050 C 
HETATM    9  S1  UNL     1      10.862 -21.625  17.456  1.00  0.00    -0.132 SA
ENDROOT
BRANCH   1  10
HETATM   10  C2  UNL     1      11.241 -22.447  20.004  1.00  0.00     0.247 C 
BRANCH  10  11
HETATM   11  N1  UNL     1      10.475 -23.477  20.647  1.00  0.00    -0.078 N 
HETATM   12  C1  UNL     1       9.107 -23.372  20.173  1.00  0.00     0.267 C 
ATOM     13  H12 UNL     1      10.546 -23.447  21.664  1.00  0.00     0.276 HD
ATOM     14  H11 UNL     1      10.871 -24.408  20.512  1.00  0.00     0.276 HD
ENDBRANCH  10  11
ENDBRANCH   1  10
TORSDOF 2
ENDMDL
