MODEL 1
REMARK VINA RESULT: -8.315674642      0.000      0.000
REMARK  13 active torsions:
REMARK  status: ('A' for Active; 'I' for Inactive)
REMARK    1  A    between atoms: C4_4  and  C5_5 
REMARK    2  A    between atoms: C5_5  and  O1_6 
REMARK    3  A    between atoms: O1_6  and  C6_7 
REMARK    4  A    between atoms: C9_10  and  S1_11 
REMARK    5  A    between atoms: S1_11  and  N1_14 
REMARK    6  A    between atoms: N1_14  and  C10_16 
REMARK    7  A    between atoms: C10_16  and  N2_18 
REMARK    8  A    between atoms: N2_18  and  N3_20 
REMARK    9  A    between atoms: N4_23  and  C13_24 
REMARK   10  A    between atoms: C13_24  and  C14_25 
REMARK   11  A    between atoms: C14_25  and  C15_26 
REMARK       I    between atoms: C15_26  and  N5_28 
REMARK   12  A    between atoms: N5_28  and  C16_30 
REMARK   13  A    between atoms: C19_33  and  N6_34 
ROOT
HETATM    1  C1  UNL     1     -22.580 -18.026 -22.767  1.00  0.00     0.027 C 
HETATM    2  C2  UNL     1     -21.499 -17.582 -22.432  1.00  0.00    -0.026 C 
HETATM    3  C3  UNL     1     -20.252 -17.042 -22.042  1.00  0.00    -0.014 C 
HETATM    4  C4  UNL     1     -19.172 -16.558 -21.720  1.00  0.00    -0.066 C 
ENDROOT
BRANCH   4   5
HETATM    5  C5  UNL     1     -17.893 -15.953 -21.342  1.00  0.00     0.270 C 
BRANCH   5   6
HETATM    6  O1  UNL     1     -17.957 -14.564 -21.294  1.00  0.00    -0.340 OA
BRANCH   6   7
HETATM    7  C6  UNL     1     -16.920 -13.757 -20.881  1.00  0.00     0.070 A 
HETATM    8  C7  UNL     1     -16.396 -12.720 -21.610  1.00  0.00     0.038 A 
HETATM    9  C8  UNL     1     -15.338 -11.933 -21.130  1.00  0.00     0.028 A 
HETATM   10  C9  UNL     1     -14.769 -12.163 -19.897  1.00  0.00     0.080 A 
HETATM   11  C28 UNL     1     -15.295 -13.204 -19.166  1.00  0.00     0.028 A 
HETATM   12  C29 UNL     1     -16.329 -13.982 -19.621  1.00  0.00     0.038 A 
BRANCH  10  13
HETATM   13  S1  UNL     1     -13.448 -11.181 -19.302  1.00  0.00     0.264 S 
HETATM   14  O2  UNL     1     -13.235 -11.378 -17.834  1.00  0.00    -0.200 OA
HETATM   15  O3  UNL     1     -13.800  -9.731 -19.603  1.00  0.00    -0.200 OA
BRANCH  13  16
HETATM   16  N1  UNL     1     -12.020 -11.578 -20.197  1.00  0.00    -0.265 N 
ATOM     17  H1  UNL     1     -12.035 -11.464 -21.210  1.00  0.00     0.180 HD
BRANCH  16  18
HETATM   18  C10 UNL     1     -10.838 -12.051 -19.594  1.00  0.00     0.120 C 
HETATM   19  C11 UNL     1      -9.990 -11.177 -19.087  1.00  0.00     0.065 C 
BRANCH  18  20
HETATM   20  N2  UNL     1     -10.513 -13.430 -19.504  1.00  0.00    -0.273 N 
ATOM     21  H2  UNL     1      -9.587 -13.737 -19.206  1.00  0.00     0.189 HD
BRANCH  20  22
HETATM   22  N3  UNL     1     -11.502 -14.343 -19.836  1.00  0.00    -0.183 N 
HETATM   23  C12 UNL     1     -11.689 -14.597 -21.246  1.00  0.00     0.353 C 
HETATM   24  O4  UNL     1     -11.110 -13.830 -22.032  1.00  0.00    -0.244 OA
HETATM   25  N4  UNL     1     -12.460 -15.623 -21.864  1.00  0.00    -0.249 N 
HETATM   26  C22 UNL     1     -12.945 -16.798 -21.181  1.00  0.00     0.334 C 
HETATM   27  O8  UNL     1     -13.248 -17.726 -21.945  1.00  0.00    -0.246 OA
HETATM   28  N7  UNL     1     -13.111 -17.005 -19.761  1.00  0.00    -0.286 N 
HETATM   29  C23 UNL     1     -13.550 -18.330 -19.376  1.00  0.00     0.163 C 
HETATM   30  C24 UNL     1     -12.899 -16.077 -18.703  1.00  0.00     0.158 A 
HETATM   31  N8  UNL     1     -13.517 -16.514 -17.592  1.00  0.00    -0.348 N 
HETATM   32  C27 UNL     1     -12.189 -14.898 -18.726  1.00  0.00     0.177 A 
HETATM   33  C25 UNL     1     -13.429 -15.753 -16.460  1.00  0.00     0.107 A 
ATOM     34  H8  UNL     1     -14.039 -17.391 -17.595  1.00  0.00     0.167 HD
HETATM   35  C26 UNL     1     -12.715 -14.575 -16.495  1.00  0.00     0.107 A 
HETATM   36  N9  UNL     1     -12.087 -14.132 -17.626  1.00  0.00    -0.346 N 
ATOM     37  H9  UNL     1     -11.562 -13.257 -17.635  1.00  0.00     0.167 HD
BRANCH  25  38
HETATM   38  C13 UNL     1     -12.790 -15.498 -23.266  1.00  0.00     0.148 C 
BRANCH  38  39
HETATM   39  C14 UNL     1     -14.097 -14.760 -23.466  1.00  0.00     0.123 C 
BRANCH  39  40
HETATM   40  C15 UNL     1     -13.960 -13.782 -24.619  1.00  0.00     0.223 C 
HETATM   41  O5  UNL     1     -14.180 -14.224 -25.772  1.00  0.00    -0.273 OA
HETATM   42  N5  UNL     1     -13.606 -12.452 -24.375  1.00  0.00    -0.327 N 
ATOM     43  H5  UNL     1     -13.450 -12.204 -23.397  1.00  0.00     0.169 HD
BRANCH  42  44
HETATM   44  C16 UNL     1     -13.437 -11.409 -25.310  1.00  0.00     0.034 A 
HETATM   45  C17 UNL     1     -12.228 -10.976 -25.795  1.00  0.00     0.032 A 
HETATM   46  C18 UNL     1     -12.170  -9.932 -26.695  1.00  0.00     0.038 A 
HETATM   47  C19 UNL     1     -13.274  -9.267 -27.162  1.00  0.00     0.103 A 
HETATM   48  C20 UNL     1     -14.485  -9.704 -26.672  1.00  0.00     0.038 A 
HETATM   49  C21 UNL     1     -14.582 -10.735 -25.781  1.00  0.00     0.032 A 
BRANCH  47  50
HETATM   50  N6  UNL     1     -13.195  -8.192 -28.087  1.00  0.00    -0.116 N 
HETATM   51  O6  UNL     1     -12.049  -7.904 -28.529  1.00  0.00    -0.532 OA
HETATM   52  O7  UNL     1     -14.270  -7.485 -28.503  1.00  0.00    -0.532 OA
ENDBRANCH  47  50
ENDBRANCH  42  44
ENDBRANCH  39  40
ENDBRANCH  38  39
ENDBRANCH  25  38
ENDBRANCH  20  22
ENDBRANCH  18  20
ENDBRANCH  16  18
ENDBRANCH  13  16
ENDBRANCH  10  13
ENDBRANCH   6   7
ENDBRANCH   5   6
ENDBRANCH   4   5
TORSDOF 13
ENDMDL
MODEL 2
REMARK VINA RESULT: -7.894199648      3.585      7.231
REMARK  13 active torsions:
REMARK  status: ('A' for Active; 'I' for Inactive)
REMARK    1  A    between atoms: C4_4  and  C5_5 
REMARK    2  A    between atoms: C5_5  and  O1_6 
REMARK    3  A    between atoms: O1_6  and  C6_7 
REMARK    4  A    between atoms: C9_10  and  S1_11 
REMARK    5  A    between atoms: S1_11  and  N1_14 
REMARK    6  A    between atoms: N1_14  and  C10_16 
REMARK    7  A    between atoms: C10_16  and  N2_18 
REMARK    8  A    between atoms: N2_18  and  N3_20 
REMARK    9  A    between atoms: N4_23  and  C13_24 
REMARK   10  A    between atoms: C13_24  and  C14_25 
REMARK   11  A    between atoms: C14_25  and  C15_26 
REMARK       I    between atoms: C15_26  and  N5_28 
REMARK   12  A    between atoms: N5_28  and  C16_30 
REMARK   13  A    between atoms: C19_33  and  N6_34 
ROOT
HETATM    1  C1  UNL     1      -9.712  -9.891 -19.075  1.00  0.00     0.027 C 
HETATM    2  C2  UNL     1      -9.150 -10.703 -18.366  1.00  0.00    -0.026 C 
HETATM    3  C3  UNL     1      -8.501 -11.666 -17.561  1.00  0.00    -0.014 C 
HETATM    4  C4  UNL     1      -7.955 -12.516 -16.865  1.00  0.00    -0.066 C 
ENDROOT
BRANCH   4   5
HETATM    5  C5  UNL     1      -7.314 -13.551 -16.050  1.00  0.00     0.270 C 
BRANCH   5   6
HETATM    6  O1  UNL     1      -8.201 -14.558 -15.680  1.00  0.00    -0.340 OA
BRANCH   6   7
HETATM    7  C6  UNL     1      -9.550 -14.364 -15.485  1.00  0.00     0.070 A 
HETATM    8  C7  UNL     1     -10.534 -14.781 -16.345  1.00  0.00     0.038 A 
HETATM    9  C8  UNL     1     -11.895 -14.554 -16.086  1.00  0.00     0.028 A 
HETATM   10  C9  UNL     1     -12.314 -13.897 -14.950  1.00  0.00     0.080 A 
HETATM   11  C28 UNL     1     -11.326 -13.479 -14.087  1.00  0.00     0.028 A 
HETATM   12  C29 UNL     1      -9.992 -13.694 -14.327  1.00  0.00     0.038 A 
BRANCH  10  13
HETATM   13  S1  UNL     1     -14.011 -13.614 -14.629  1.00  0.00     0.264 S 
HETATM   14  O2  UNL     1     -14.272 -13.434 -13.167  1.00  0.00    -0.200 OA
HETATM   15  O3  UNL     1     -14.773 -14.817 -15.166  1.00  0.00    -0.200 OA
BRANCH  13  16
HETATM   16  N1  UNL     1     -14.515 -12.221 -15.527  1.00  0.00    -0.265 N 
ATOM     17  H1  UNL     1     -13.835 -11.480 -15.695  1.00  0.00     0.180 HD
BRANCH  16  18
HETATM   18  C10 UNL     1     -15.817 -12.062 -16.038  1.00  0.00     0.120 C 
HETATM   19  C11 UNL     1     -16.638 -11.224 -15.434  1.00  0.00     0.065 C 
BRANCH  18  20
HETATM   20  N2  UNL     1     -16.294 -12.761 -17.178  1.00  0.00    -0.273 N 
ATOM     21  H2  UNL     1     -17.270 -13.045 -17.255  1.00  0.00     0.189 HD
BRANCH  20  22
HETATM   22  N3  UNL     1     -15.380 -13.042 -18.182  1.00  0.00    -0.183 N 
HETATM   23  C12 UNL     1     -14.746 -11.904 -18.806  1.00  0.00     0.353 C 
HETATM   24  O4  UNL     1     -15.224 -10.789 -18.546  1.00  0.00    -0.244 OA
HETATM   25  N4  UNL     1     -13.631 -11.889 -19.693  1.00  0.00    -0.249 N 
HETATM   26  C22 UNL     1     -12.728 -12.999 -19.881  1.00  0.00     0.334 C 
HETATM   27  O8  UNL     1     -11.639 -12.674 -20.376  1.00  0.00    -0.246 OA
HETATM   28  N7  UNL     1     -12.943 -14.393 -19.568  1.00  0.00    -0.286 N 
HETATM   29  C23 UNL     1     -11.810 -15.262 -19.802  1.00  0.00     0.163 C 
HETATM   30  C24 UNL     1     -14.121 -15.012 -19.063  1.00  0.00     0.158 A 
HETATM   31  N8  UNL     1     -14.053 -16.339 -19.269  1.00  0.00    -0.348 N 
HETATM   32  C27 UNL     1     -15.204 -14.425 -18.448  1.00  0.00     0.177 A 
HETATM   33  C25 UNL     1     -15.099 -17.113 -18.849  1.00  0.00     0.107 A 
ATOM     34  H8  UNL     1     -13.243 -16.757 -19.726  1.00  0.00     0.167 HD
HETATM   35  C26 UNL     1     -16.177 -16.514 -18.235  1.00  0.00     0.107 A 
HETATM   36  N9  UNL     1     -16.244 -15.164 -18.027  1.00  0.00    -0.346 N 
ATOM     37  H9  UNL     1     -17.049 -14.736 -17.571  1.00  0.00     0.167 HD
BRANCH  25  38
HETATM   38  C13 UNL     1     -13.370 -10.695 -20.465  1.00  0.00     0.148 C 
BRANCH  38  39
HETATM   39  C14 UNL     1     -14.443 -10.462 -21.507  1.00  0.00     0.123 C 
BRANCH  39  40
HETATM   40  C15 UNL     1     -14.668 -11.735 -22.302  1.00  0.00     0.223 C 
HETATM   41  O5  UNL     1     -15.811 -12.247 -22.248  1.00  0.00    -0.273 OA
HETATM   42  N5  UNL     1     -13.628 -12.287 -23.054  1.00  0.00    -0.327 N 
ATOM     43  H5  UNL     1     -12.740 -11.786 -23.024  1.00  0.00     0.169 HD
BRANCH  42  44
HETATM   44  C16 UNL     1     -13.651 -13.451 -23.851  1.00  0.00     0.034 A 
HETATM   45  C17 UNL     1     -14.074 -13.503 -25.156  1.00  0.00     0.032 A 
HETATM   46  C18 UNL     1     -14.075 -14.700 -25.843  1.00  0.00     0.038 A 
HETATM   47  C19 UNL     1     -13.667 -15.890 -25.299  1.00  0.00     0.103 A 
HETATM   48  C20 UNL     1     -13.242 -15.834 -23.990  1.00  0.00     0.038 A 
HETATM   49  C21 UNL     1     -13.227 -14.668 -23.278  1.00  0.00     0.032 A 
BRANCH  47  50
HETATM   50  N6  UNL     1     -13.676 -17.113 -26.021  1.00  0.00    -0.116 N 
HETATM   51  O6  UNL     1     -12.586 -17.474 -26.545  1.00  0.00    -0.532 OA
HETATM   52  O7  UNL     1     -14.776 -17.887 -26.165  1.00  0.00    -0.532 OA
ENDBRANCH  47  50
ENDBRANCH  42  44
ENDBRANCH  39  40
ENDBRANCH  38  39
ENDBRANCH  25  38
ENDBRANCH  20  22
ENDBRANCH  18  20
ENDBRANCH  16  18
ENDBRANCH  13  16
ENDBRANCH  10  13
ENDBRANCH   6   7
ENDBRANCH   5   6
ENDBRANCH   4   5
TORSDOF 13
ENDMDL
MODEL 3
REMARK VINA RESULT: -7.822797903      3.558      7.772
REMARK  13 active torsions:
REMARK  status: ('A' for Active; 'I' for Inactive)
REMARK    1  A    between atoms: C4_4  and  C5_5 
REMARK    2  A    between atoms: C5_5  and  O1_6 
REMARK    3  A    between atoms: O1_6  and  C6_7 
REMARK    4  A    between atoms: C9_10  and  S1_11 
REMARK    5  A    between atoms: S1_11  and  N1_14 
REMARK    6  A    between atoms: N1_14  and  C10_16 
REMARK    7  A    between atoms: C10_16  and  N2_18 
REMARK    8  A    between atoms: N2_18  and  N3_20 
REMARK    9  A    between atoms: N4_23  and  C13_24 
REMARK   10  A    between atoms: C13_24  and  C14_25 
REMARK   11  A    between atoms: C14_25  and  C15_26 
REMARK       I    between atoms: C15_26  and  N5_28 
REMARK   12  A    between atoms: N5_28  and  C16_30 
REMARK   13  A    between atoms: C19_33  and  N6_34 
ROOT
HETATM    1  C1  UNL     1     -14.376 -19.336 -16.453  1.00  0.00     0.027 C 
HETATM    2  C2  UNL     1     -14.725 -18.234 -16.076  1.00  0.00    -0.026 C 
HETATM    3  C3  UNL     1     -15.149 -16.964 -15.624  1.00  0.00    -0.014 C 
HETATM    4  C4  UNL     1     -15.538 -15.866 -15.237  1.00  0.00    -0.066 C 
ENDROOT
BRANCH   4   5
HETATM    5  C5  UNL     1     -16.027 -14.569 -14.766  1.00  0.00     0.270 C 
BRANCH   5   6
HETATM    6  O1  UNL     1     -16.640 -13.835 -15.778  1.00  0.00    -0.340 OA
BRANCH   6   7
HETATM    7  C6  UNL     1     -15.967 -12.997 -16.638  1.00  0.00     0.070 A 
HETATM    8  C7  UNL     1     -15.435 -11.781 -16.293  1.00  0.00     0.038 A 
HETATM    9  C8  UNL     1     -14.758 -10.974 -17.221  1.00  0.00     0.028 A 
HETATM   10  C9  UNL     1     -14.592 -11.363 -18.531  1.00  0.00     0.080 A 
HETATM   11  C28 UNL     1     -15.127 -12.584 -18.878  1.00  0.00     0.028 A 
HETATM   12  C29 UNL     1     -15.791 -13.384 -17.983  1.00  0.00     0.038 A 
BRANCH  10  13
HETATM   13  S1  UNL     1     -13.749 -10.355 -19.686  1.00  0.00     0.264 S 
HETATM   14  O2  UNL     1     -12.378 -10.879 -19.976  1.00  0.00    -0.200 OA
HETATM   15  O3  UNL     1     -13.673  -8.958 -19.087  1.00  0.00    -0.200 OA
BRANCH  13  16
HETATM   16  N1  UNL     1     -14.698 -10.263 -21.132  1.00  0.00    -0.265 N 
ATOM     17  H1  UNL     1     -15.341  -9.479 -21.241  1.00  0.00     0.180 HD
BRANCH  16  18
HETATM   18  C10 UNL     1     -14.624 -11.216 -22.165  1.00  0.00     0.120 C 
HETATM   19  C11 UNL     1     -15.716 -11.879 -22.496  1.00  0.00     0.065 C 
BRANCH  18  20
HETATM   20  N2  UNL     1     -13.427 -11.501 -22.874  1.00  0.00    -0.273 N 
ATOM     21  H2  UNL     1     -12.682 -10.809 -22.953  1.00  0.00     0.189 HD
BRANCH  20  22
HETATM   22  N3  UNL     1     -13.311 -12.755 -23.453  1.00  0.00    -0.183 N 
HETATM   23  C12 UNL     1     -12.931 -13.834 -22.570  1.00  0.00     0.353 C 
HETATM   24  O4  UNL     1     -12.536 -13.513 -21.438  1.00  0.00    -0.244 OA
HETATM   25  N4  UNL     1     -12.947 -15.235 -22.828  1.00  0.00    -0.249 N 
HETATM   26  C22 UNL     1     -13.653 -15.850 -23.926  1.00  0.00     0.334 C 
HETATM   27  O8  UNL     1     -13.862 -17.061 -23.764  1.00  0.00    -0.246 OA
HETATM   28  N7  UNL     1     -14.125 -15.236 -25.145  1.00  0.00    -0.286 N 
HETATM   29  C23 UNL     1     -14.874 -16.107 -26.027  1.00  0.00     0.163 C 
HETATM   30  C24 UNL     1     -13.948 -13.894 -25.583  1.00  0.00     0.158 A 
HETATM   31  N8  UNL     1     -14.188 -13.818 -26.904  1.00  0.00    -0.348 N 
HETATM   32  C27 UNL     1     -13.588 -12.790 -24.844  1.00  0.00     0.177 A 
HETATM   33  C25 UNL     1     -14.068 -12.601 -27.515  1.00  0.00     0.107 A 
ATOM     34  H8  UNL     1     -14.453 -14.648 -27.436  1.00  0.00     0.167 HD
HETATM   35  C26 UNL     1     -13.708 -11.504 -26.764  1.00  0.00     0.107 A 
HETATM   36  N9  UNL     1     -13.464 -11.583 -25.421  1.00  0.00    -0.346 N 
ATOM     37  H9  UNL     1     -13.198 -10.760 -24.880  1.00  0.00     0.167 HD
BRANCH  25  38
HETATM   38  C13 UNL     1     -12.213 -16.114 -21.946  1.00  0.00     0.148 C 
BRANCH  38  39
HETATM   39  C14 UNL     1     -13.120 -16.751 -20.916  1.00  0.00     0.123 C 
BRANCH  39  40
HETATM   40  C15 UNL     1     -12.553 -16.524 -19.525  1.00  0.00     0.223 C 
HETATM   41  O5  UNL     1     -12.465 -17.524 -18.775  1.00  0.00    -0.273 OA
HETATM   42  N5  UNL     1     -12.154 -15.244 -19.130  1.00  0.00    -0.327 N 
ATOM     43  H5  UNL     1     -12.273 -14.505 -19.823  1.00  0.00     0.169 HD
BRANCH  42  44
HETATM   44  C16 UNL     1     -11.607 -14.846 -17.892  1.00  0.00     0.034 A 
HETATM   45  C17 UNL     1     -10.277 -14.916 -17.560  1.00  0.00     0.032 A 
HETATM   46  C18 UNL     1      -9.846 -14.518 -16.311  1.00  0.00     0.038 A 
HETATM   47  C19 UNL     1     -10.680 -14.036 -15.336  1.00  0.00     0.103 A 
HETATM   48  C20 UNL     1     -12.014 -13.966 -15.673  1.00  0.00     0.038 A 
HETATM   49  C21 UNL     1     -12.478 -14.351 -16.899  1.00  0.00     0.032 A 
BRANCH  47  50
HETATM   50  N6  UNL     1     -10.219 -13.631 -14.055  1.00  0.00    -0.116 N 
HETATM   51  O6  UNL     1      -8.978 -13.716 -13.843  1.00  0.00    -0.532 OA
HETATM   52  O7  UNL     1     -11.035 -13.171 -13.079  1.00  0.00    -0.532 OA
ENDBRANCH  47  50
ENDBRANCH  42  44
ENDBRANCH  39  40
ENDBRANCH  38  39
ENDBRANCH  25  38
ENDBRANCH  20  22
ENDBRANCH  18  20
ENDBRANCH  16  18
ENDBRANCH  13  16
ENDBRANCH  10  13
ENDBRANCH   6   7
ENDBRANCH   5   6
ENDBRANCH   4   5
TORSDOF 13
ENDMDL
MODEL 4
REMARK VINA RESULT: -7.767995290      2.390      4.404
REMARK  13 active torsions:
REMARK  status: ('A' for Active; 'I' for Inactive)
REMARK    1  A    between atoms: C4_4  and  C5_5 
REMARK    2  A    between atoms: C5_5  and  O1_6 
REMARK    3  A    between atoms: O1_6  and  C6_7 
REMARK    4  A    between atoms: C9_10  and  S1_11 
REMARK    5  A    between atoms: S1_11  and  N1_14 
REMARK    6  A    between atoms: N1_14  and  C10_16 
REMARK    7  A    between atoms: C10_16  and  N2_18 
REMARK    8  A    between atoms: N2_18  and  N3_20 
REMARK    9  A    between atoms: N4_23  and  C13_24 
REMARK   10  A    between atoms: C13_24  and  C14_25 
REMARK   11  A    between atoms: C14_25  and  C15_26 
REMARK       I    between atoms: C15_26  and  N5_28 
REMARK   12  A    between atoms: N5_28  and  C16_30 
REMARK   13  A    between atoms: C19_33  and  N6_34 
ROOT
HETATM    1  C1  UNL     1     -18.322 -18.085 -20.252  1.00  0.00     0.027 C 
HETATM    2  C2  UNL     1     -17.192 -18.464 -20.011  1.00  0.00    -0.026 C 
HETATM    3  C3  UNL     1     -15.888 -18.917 -19.710  1.00  0.00    -0.014 C 
HETATM    4  C4  UNL     1     -14.758 -19.304 -19.428  1.00  0.00    -0.066 C 
ENDROOT
BRANCH   4   5
HETATM    5  C5  UNL     1     -13.420 -19.774 -19.064  1.00  0.00     0.270 C 
BRANCH   5   6
HETATM    6  O1  UNL     1     -13.051 -19.380 -17.781  1.00  0.00    -0.340 OA
BRANCH   6   7
HETATM    7  C6  UNL     1     -12.532 -18.142 -17.473  1.00  0.00     0.070 A 
HETATM    8  C7  UNL     1     -13.218 -17.141 -16.835  1.00  0.00     0.038 A 
HETATM    9  C8  UNL     1     -12.629 -15.900 -16.548  1.00  0.00     0.028 A 
HETATM   10  C9  UNL     1     -11.325 -15.622 -16.895  1.00  0.00     0.080 A 
HETATM   11  C28 UNL     1     -10.637 -16.627 -17.536  1.00  0.00     0.028 A 
HETATM   12  C29 UNL     1     -11.199 -17.846 -17.823  1.00  0.00     0.038 A 
BRANCH  10  13
HETATM   13  S1  UNL     1     -10.593 -14.073 -16.538  1.00  0.00     0.264 S 
HETATM   14  O2  UNL     1      -9.908 -14.083 -15.208  1.00  0.00    -0.200 OA
HETATM   15  O3  UNL     1     -11.708 -13.037 -16.559  1.00  0.00    -0.200 OA
BRANCH  13  16
HETATM   16  N1  UNL     1      -9.482 -13.685 -17.808  1.00  0.00    -0.265 N 
ATOM     17  H1  UNL     1      -8.702 -14.319 -17.981  1.00  0.00     0.180 HD
BRANCH  16  18
HETATM   18  C10 UNL     1      -9.601 -12.536 -18.614  1.00  0.00     0.120 C 
HETATM   19  C11 UNL     1      -9.088 -11.400 -18.180  1.00  0.00     0.065 C 
BRANCH  18  20
HETATM   20  N2  UNL     1     -10.249 -12.539 -19.877  1.00  0.00    -0.273 N 
ATOM     21  H2  UNL     1      -9.742 -12.313 -20.732  1.00  0.00     0.189 HD
BRANCH  20  22
HETATM   22  N3  UNL     1     -11.597 -12.863 -19.902  1.00  0.00    -0.183 N 
HETATM   23  C12 UNL     1     -11.917 -14.250 -20.153  1.00  0.00     0.353 C 
HETATM   24  O4  UNL     1     -10.985 -14.976 -20.533  1.00  0.00    -0.244 OA
HETATM   25  N4  UNL     1     -13.175 -14.904 -20.022  1.00  0.00    -0.249 N 
HETATM   26  C22 UNL     1     -14.302 -14.360 -19.304  1.00  0.00     0.334 C 
HETATM   27  O8  UNL     1     -15.143 -15.212 -18.982  1.00  0.00    -0.246 OA
HETATM   28  N7  UNL     1     -14.551 -12.986 -18.933  1.00  0.00    -0.286 N 
HETATM   29  C23 UNL     1     -15.744 -12.765 -18.142  1.00  0.00     0.163 C 
HETATM   30  C24 UNL     1     -13.777 -11.834 -19.245  1.00  0.00     0.158 A 
HETATM   31  N8  UNL     1     -14.521 -10.730 -19.061  1.00  0.00    -0.348 N 
HETATM   32  C27 UNL     1     -12.470 -11.768 -19.674  1.00  0.00     0.177 A 
HETATM   33  C25 UNL     1     -13.949  -9.514 -19.311  1.00  0.00     0.107 A 
ATOM     34  H8  UNL     1     -15.489 -10.798 -18.743  1.00  0.00     0.167 HD
HETATM   35  C26 UNL     1     -12.641  -9.461 -19.739  1.00  0.00     0.107 A 
HETATM   36  N9  UNL     1     -11.885 -10.585 -19.926  1.00  0.00    -0.346 N 
ATOM     37  H9  UNL     1     -10.917 -10.528 -20.244  1.00  0.00     0.167 HD
BRANCH  25  38
HETATM   38  C13 UNL     1     -13.356 -16.198 -20.642  1.00  0.00     0.148 C 
BRANCH  38  39
HETATM   39  C14 UNL     1     -14.259 -16.111 -21.853  1.00  0.00     0.123 C 
BRANCH  39  40
HETATM   40  C15 UNL     1     -13.649 -15.173 -22.880  1.00  0.00     0.223 C 
HETATM   41  O5  UNL     1     -12.601 -15.557 -23.452  1.00  0.00    -0.273 OA
HETATM   42  N5  UNL     1     -14.254 -13.944 -23.155  1.00  0.00    -0.327 N 
ATOM     43  H5  UNL     1     -15.103 -13.736 -22.628  1.00  0.00     0.169 HD
BRANCH  42  44
HETATM   44  C16 UNL     1     -13.838 -12.953 -24.069  1.00  0.00     0.034 A 
HETATM   45  C17 UNL     1     -13.184 -11.794 -23.731  1.00  0.00     0.032 A 
HETATM   46  C18 UNL     1     -12.838 -10.878 -24.703  1.00  0.00     0.038 A 
HETATM   47  C19 UNL     1     -13.107 -11.045 -26.036  1.00  0.00     0.103 A 
HETATM   48  C20 UNL     1     -13.763 -12.209 -26.372  1.00  0.00     0.038 A 
HETATM   49  C21 UNL     1     -14.121 -13.139 -25.438  1.00  0.00     0.032 A 
BRANCH  47  50
HETATM   50  N6  UNL     1     -12.744 -10.090 -27.023  1.00  0.00    -0.116 N 
HETATM   51  O6  UNL     1     -11.641  -9.497 -26.864  1.00  0.00    -0.532 OA
HETATM   52  O7  UNL     1     -13.511  -9.799 -28.098  1.00  0.00    -0.532 OA
ENDBRANCH  47  50
ENDBRANCH  42  44
ENDBRANCH  39  40
ENDBRANCH  38  39
ENDBRANCH  25  38
ENDBRANCH  20  22
ENDBRANCH  18  20
ENDBRANCH  16  18
ENDBRANCH  13  16
ENDBRANCH  10  13
ENDBRANCH   6   7
ENDBRANCH   5   6
ENDBRANCH   4   5
TORSDOF 13
ENDMDL
MODEL 5
REMARK VINA RESULT: -7.738932674      2.438      5.435
REMARK  13 active torsions:
REMARK  status: ('A' for Active; 'I' for Inactive)
REMARK    1  A    between atoms: C4_4  and  C5_5 
REMARK    2  A    between atoms: C5_5  and  O1_6 
REMARK    3  A    between atoms: O1_6  and  C6_7 
REMARK    4  A    between atoms: C9_10  and  S1_11 
REMARK    5  A    between atoms: S1_11  and  N1_14 
REMARK    6  A    between atoms: N1_14  and  C10_16 
REMARK    7  A    between atoms: C10_16  and  N2_18 
REMARK    8  A    between atoms: N2_18  and  N3_20 
REMARK    9  A    between atoms: N4_23  and  C13_24 
REMARK   10  A    between atoms: C13_24  and  C14_25 
REMARK   11  A    between atoms: C14_25  and  C15_26 
REMARK       I    between atoms: C15_26  and  N5_28 
REMARK   12  A    between atoms: N5_28  and  C16_30 
REMARK   13  A    between atoms: C19_33  and  N6_34 
ROOT
HETATM    1  C1  UNL     1      -8.534 -11.353 -18.702  1.00  0.00     0.027 C 
HETATM    2  C2  UNL     1      -9.600 -10.849 -18.999  1.00  0.00    -0.026 C 
HETATM    3  C3  UNL     1     -10.836 -10.247 -19.324  1.00  0.00    -0.014 C 
HETATM    4  C4  UNL     1     -11.916  -9.727 -19.585  1.00  0.00    -0.066 C 
ENDROOT
BRANCH   4   5
HETATM    5  C5  UNL     1     -13.205  -9.092 -19.869  1.00  0.00     0.270 C 
BRANCH   5   6
HETATM    6  O1  UNL     1     -14.116  -9.977 -20.439  1.00  0.00    -0.340 OA
BRANCH   6   7
HETATM    7  C6  UNL     1     -14.505 -11.164 -19.860  1.00  0.00     0.070 A 
HETATM    8  C7  UNL     1     -14.609 -11.381 -18.510  1.00  0.00     0.038 A 
HETATM    9  C8  UNL     1     -15.014 -12.617 -17.983  1.00  0.00     0.028 A 
HETATM   10  C9  UNL     1     -15.329 -13.681 -18.799  1.00  0.00     0.080 A 
HETATM   11  C28 UNL     1     -15.223 -13.464 -20.155  1.00  0.00     0.028 A 
HETATM   12  C29 UNL     1     -14.829 -12.261 -20.684  1.00  0.00     0.038 A 
BRANCH  10  13
HETATM   13  S1  UNL     1     -15.832 -15.223 -18.140  1.00  0.00     0.264 S 
HETATM   14  O2  UNL     1     -17.053 -15.083 -17.287  1.00  0.00    -0.200 OA
HETATM   15  O3  UNL     1     -14.666 -15.761 -17.324  1.00  0.00    -0.200 OA
BRANCH  13  16
HETATM   16  N1  UNL     1     -16.112 -16.316 -19.453  1.00  0.00    -0.265 N 
ATOM     17  H1  UNL     1     -16.513 -15.947 -20.315  1.00  0.00     0.180 HD
BRANCH  16  18
HETATM   18  C10 UNL     1     -15.812 -17.691 -19.390  1.00  0.00     0.120 C 
HETATM   19  C11 UNL     1     -16.667 -18.500 -18.794  1.00  0.00     0.065 C 
BRANCH  18  20
HETATM   20  N2  UNL     1     -14.630 -18.252 -19.940  1.00  0.00    -0.273 N 
ATOM     21  H2  UNL     1     -14.458 -19.257 -19.909  1.00  0.00     0.189 HD
BRANCH  20  22
HETATM   22  N3  UNL     1     -13.720 -17.383 -20.521  1.00  0.00    -0.183 N 
HETATM   23  C12 UNL     1     -13.963 -17.032 -21.902  1.00  0.00     0.353 C 
HETATM   24  O4  UNL     1     -14.823 -17.697 -22.502  1.00  0.00    -0.244 OA
HETATM   25  N4  UNL     1     -13.339 -16.014 -22.678  1.00  0.00    -0.249 N 
HETATM   26  C22 UNL     1     -12.565 -14.930 -22.123  1.00  0.00     0.334 C 
HETATM   27  O8  UNL     1     -12.438 -13.967 -22.893  1.00  0.00    -0.246 OA
HETATM   28  N7  UNL     1     -11.945 -14.845 -20.821  1.00  0.00    -0.286 N 
HETATM   29  C23 UNL     1     -11.296 -13.585 -20.526  1.00  0.00     0.163 C 
HETATM   30  C24 UNL     1     -11.895 -15.836 -19.802  1.00  0.00     0.158 A 
HETATM   31  N8  UNL     1     -10.924 -15.528 -18.924  1.00  0.00    -0.348 N 
HETATM   32  C27 UNL     1     -12.675 -16.962 -19.659  1.00  0.00     0.177 A 
HETATM   33  C25 UNL     1     -10.718 -16.367 -17.865  1.00  0.00     0.107 A 
ATOM     34  H8  UNL     1     -10.355 -14.689 -19.046  1.00  0.00     0.167 HD
HETATM   35  C26 UNL     1     -11.506 -17.490 -17.733  1.00  0.00     0.107 A 
HETATM   36  N9  UNL     1     -12.493 -17.802 -18.627  1.00  0.00    -0.346 N 
ATOM     37  H9  UNL     1     -13.067 -18.638 -18.515  1.00  0.00     0.167 HD
BRANCH  25  38
HETATM   38  C13 UNL     1     -13.477 -16.051 -24.117  1.00  0.00     0.148 C 
BRANCH  38  39
HETATM   39  C14 UNL     1     -14.776 -15.417 -24.566  1.00  0.00     0.123 C 
BRANCH  39  40
HETATM   40  C15 UNL     1     -14.482 -14.261 -25.506  1.00  0.00     0.223 C 
HETATM   41  O5  UNL     1     -14.260 -14.544 -26.707  1.00  0.00    -0.273 OA
HETATM   42  N5  UNL     1     -14.470 -12.950 -25.023  1.00  0.00    -0.327 N 
ATOM     43  H5  UNL     1     -14.663 -12.838 -24.028  1.00  0.00     0.169 HD
BRANCH  42  44
HETATM   44  C16 UNL     1     -14.222 -11.760 -25.740  1.00  0.00     0.034 A 
HETATM   45  C17 UNL     1     -15.190 -10.960 -26.296  1.00  0.00     0.032 A 
HETATM   46  C18 UNL     1     -14.841  -9.824 -26.996  1.00  0.00     0.038 A 
HETATM   47  C19 UNL     1     -13.546  -9.415 -27.186  1.00  0.00     0.103 A 
HETATM   48  C20 UNL     1     -12.578 -10.219 -26.626  1.00  0.00     0.038 A 
HETATM   49  C21 UNL     1     -12.886 -11.351 -25.926  1.00  0.00     0.032 A 
BRANCH  47  50
HETATM   50  N6  UNL     1     -13.204  -8.242 -27.911  1.00  0.00    -0.116 N 
HETATM   51  O6  UNL     1     -11.975  -7.981 -28.025  1.00  0.00    -0.532 OA
HETATM   52  O7  UNL     1     -14.119  -7.417 -28.470  1.00  0.00    -0.532 OA
ENDBRANCH  47  50
ENDBRANCH  42  44
ENDBRANCH  39  40
ENDBRANCH  38  39
ENDBRANCH  25  38
ENDBRANCH  20  22
ENDBRANCH  18  20
ENDBRANCH  16  18
ENDBRANCH  13  16
ENDBRANCH  10  13
ENDBRANCH   6   7
ENDBRANCH   5   6
ENDBRANCH   4   5
TORSDOF 13
ENDMDL
