MODEL 1
REMARK VINA RESULT: -8.930999324      0.000      0.000
REMARK  11 active torsions:
REMARK  status: ('A' for Active; 'I' for Inactive)
REMARK       I    between atoms: C2_2  and  N1_4 
REMARK    1  A    between atoms: C3_5  and  C4_6 
REMARK    2  A    between atoms: C4_6  and  C5_7 
REMARK    3  A    between atoms: C5_7  and  C6_8 
REMARK    4  A    between atoms: C6_8  and  S1_9 
REMARK    5  A    between atoms: N2_13  and  N3_15 
REMARK    6  A    between atoms: N3_15  and  S2_17 
REMARK    7  A    between atoms: S2_17  and  C8_20 
REMARK    8  A    between atoms: C11_23  and  N4_24 
REMARK       I    between atoms: N4_24  and  C12_26 
REMARK    9  A    between atoms: C12_26  and  C13_28 
REMARK       I    between atoms: C13_28  and  N5_30 
REMARK   10  A    between atoms: N5_30  and  C14_32 
REMARK   11  A    between atoms: C19_37  and  N6_38 
ROOT
HETATM    1  S2  UNL     1     -15.947 -13.566 -18.676  1.00  0.00     0.276 S 
HETATM    2  O4  UNL     1     -16.099 -12.635 -17.518  1.00  0.00    -0.199 OA
HETATM    3  O5  UNL     1     -17.204 -14.334 -18.835  1.00  0.00    -0.199 OA
ENDROOT
BRANCH   1   4
HETATM    4  N3  UNL     1     -14.575 -14.569 -18.355  1.00  0.00    -0.223 N 
ATOM      5  H3  UNL     1     -14.685 -15.562 -18.559  1.00  0.00     0.200 HD
BRANCH   4   6
HETATM    6  N2  UNL     1     -13.367 -14.185 -17.863  1.00  0.00    -0.292 N 
HETATM    7  C4  UNL     1     -12.273 -14.861 -17.941  1.00  0.00     0.072 C 
ATOM      8  H2  UNL     1     -13.323 -13.283 -17.390  1.00  0.00     0.187 HD
BRANCH   7   9
HETATM    9  C3  UNL     1     -11.029 -14.361 -17.381  1.00  0.00     0.140 A 
HETATM   10  N1  UNL     1     -10.287 -13.275 -17.597  1.00  0.00    -0.264 N 
HETATM   11  C2  UNL     1     -10.260 -12.429 -18.699  1.00  0.00     0.226 C 
HETATM   12  C27 UNL     1      -9.325 -13.138 -16.596  1.00  0.00     0.070 A 
HETATM   13  C1  UNL     1     -10.877 -12.620 -20.007  1.00  0.00     0.118 C 
HETATM   14  O1  UNL     1      -9.599 -11.316 -18.615  1.00  0.00    -0.273 OA
HETATM   15  C22 UNL     1      -9.513 -14.215 -15.750  1.00  0.00     0.061 A 
HETATM   16  C26 UNL     1      -8.330 -12.232 -16.321  1.00  0.00     0.032 A 
HETATM   17  N7  UNL     1     -10.518 -14.927 -16.223  1.00  0.00    -0.338 N 
HETATM   18  C23 UNL     1      -8.702 -14.379 -14.635  1.00  0.00     0.032 A 
ATOM     19  H7  UNL     1     -10.873 -15.780 -15.792  1.00  0.00     0.167 HD
HETATM   20  C24 UNL     1      -7.732 -13.465 -14.389  1.00  0.00     0.002 A 
HETATM   21  C25 UNL     1      -7.522 -12.381 -15.213  1.00  0.00     0.002 A 
ENDBRANCH   7   9
BRANCH   7  22
HETATM   22  C5  UNL     1     -12.300 -16.151 -18.678  1.00  0.00     0.077 C 
BRANCH  22  23
HETATM   23  C6  UNL     1     -11.563 -16.275 -19.925  1.00  0.00     0.146 C 
BRANCH  23  24
HETATM   24  S1  UNL     1     -12.212 -15.894 -21.479  1.00  0.00     0.141 S 
HETATM   25  C7  UNL     1     -12.867 -17.237 -22.404  1.00  0.00     0.161 C 
HETATM   26  O2  UNL     1     -11.301 -15.089 -22.371  1.00  0.00    -0.228 OA
HETATM   27  O3  UNL     1     -13.403 -14.935 -21.222  1.00  0.00    -0.228 OA
ENDBRANCH  23  24
ENDBRANCH  22  23
ENDBRANCH   7  22
ENDBRANCH   4   6
ENDBRANCH   1   4
BRANCH   1  28
HETATM   28  C8  UNL     1     -15.531 -12.634 -20.104  1.00  0.00     0.081 A 
HETATM   29  C9  UNL     1     -14.606 -11.639 -20.035  1.00  0.00     0.027 A 
HETATM   30  C10 UNL     1     -14.232 -10.917 -21.183  1.00  0.00     0.031 A 
HETATM   31  C11 UNL     1     -14.828 -11.252 -22.339  1.00  0.00     0.035 A 
HETATM   32  C20 UNL     1     -15.776 -12.256 -22.442  1.00  0.00     0.031 A 
HETATM   33  C21 UNL     1     -16.123 -12.941 -21.324  1.00  0.00     0.027 A 
BRANCH  31  34
HETATM   34  N4  UNL     1     -14.531 -10.612 -23.583  1.00  0.00    -0.319 N 
HETATM   35  C12 UNL     1     -13.440 -11.154 -24.291  1.00  0.00     0.314 C 
HETATM   36  O6  UNL     1     -12.775 -12.103 -23.750  1.00  0.00    -0.262 OA
ATOM     37  H4  UNL     1     -15.071  -9.820 -23.933  1.00  0.00     0.169 HD
BRANCH  35  38
HETATM   38  C13 UNL     1     -12.987 -10.731 -25.609  1.00  0.00     0.314 C 
HETATM   39  O7  UNL     1     -11.836 -11.040 -26.037  1.00  0.00    -0.262 OA
HETATM   40  N5  UNL     1     -13.862  -9.969 -26.415  1.00  0.00    -0.317 N 
ATOM     41  H5  UNL     1     -14.771  -9.743 -26.010  1.00  0.00     0.169 HD
BRANCH  40  42
HETATM   42  C14 UNL     1     -13.626  -9.498 -27.680  1.00  0.00     0.068 A 
HETATM   43  C15 UNL     1     -12.868  -8.384 -27.953  1.00  0.00     0.032 A 
HETATM   44  C16 UNL     1     -12.559  -8.007 -29.257  1.00  0.00     0.002 A 
HETATM   45  C17 UNL     1     -13.003  -8.736 -30.318  1.00  0.00     0.003 A 
HETATM   46  C18 UNL     1     -13.759  -9.847 -30.094  1.00  0.00     0.038 A 
HETATM   47  C19 UNL     1     -14.068 -10.223 -28.787  1.00  0.00     0.129 A 
BRANCH  47  48
HETATM   48  N6  UNL     1     -14.890 -11.344 -28.617  1.00  0.00    -0.113 N 
HETATM   49  O8  UNL     1     -14.448 -12.484 -28.560  1.00  0.00    -0.532 OA
HETATM   50  O9  UNL     1     -16.246 -11.173 -28.461  1.00  0.00    -0.532 OA
ENDBRANCH  47  48
ENDBRANCH  40  42
ENDBRANCH  35  38
ENDBRANCH  31  34
ENDBRANCH   1  28
TORSDOF 11
ENDMDL
MODEL 2
REMARK VINA RESULT: -8.770830312      1.363      1.554
REMARK  11 active torsions:
REMARK  status: ('A' for Active; 'I' for Inactive)
REMARK       I    between atoms: C2_2  and  N1_4 
REMARK    1  A    between atoms: C3_5  and  C4_6 
REMARK    2  A    between atoms: C4_6  and  C5_7 
REMARK    3  A    between atoms: C5_7  and  C6_8 
REMARK    4  A    between atoms: C6_8  and  S1_9 
REMARK    5  A    between atoms: N2_13  and  N3_15 
REMARK    6  A    between atoms: N3_15  and  S2_17 
REMARK    7  A    between atoms: S2_17  and  C8_20 
REMARK    8  A    between atoms: C11_23  and  N4_24 
REMARK       I    between atoms: N4_24  and  C12_26 
REMARK    9  A    between atoms: C12_26  and  C13_28 
REMARK       I    between atoms: C13_28  and  N5_30 
REMARK   10  A    between atoms: N5_30  and  C14_32 
REMARK   11  A    between atoms: C19_37  and  N6_38 
ROOT
HETATM    1  S2  UNL     1     -16.029 -13.688 -18.689  1.00  0.00     0.276 S 
HETATM    2  O4  UNL     1     -16.169 -12.780 -17.512  1.00  0.00    -0.199 OA
HETATM    3  O5  UNL     1     -17.294 -14.438 -18.864  1.00  0.00    -0.199 OA
ENDROOT
BRANCH   1   4
HETATM    4  N3  UNL     1     -14.668 -14.713 -18.391  1.00  0.00    -0.223 N 
ATOM      5  H3  UNL     1     -14.792 -15.702 -18.608  1.00  0.00     0.200 HD
BRANCH   4   6
HETATM    6  N2  UNL     1     -13.452 -14.352 -17.900  1.00  0.00    -0.292 N 
HETATM    7  C4  UNL     1     -12.310 -14.688 -18.393  1.00  0.00     0.072 C 
ATOM      8  H2  UNL     1     -13.444 -13.763 -17.067  1.00  0.00     0.187 HD
BRANCH   7   9
HETATM    9  C3  UNL     1     -11.064 -14.248 -17.792  1.00  0.00     0.140 A 
HETATM   10  N1  UNL     1     -10.334 -13.136 -17.882  1.00  0.00    -0.264 N 
HETATM   11  C2  UNL     1     -10.329 -12.161 -18.872  1.00  0.00     0.226 C 
HETATM   12  C27 UNL     1      -9.359 -13.114 -16.884  1.00  0.00     0.070 A 
HETATM   13  C1  UNL     1     -10.963 -12.196 -20.186  1.00  0.00     0.118 C 
HETATM   14  O1  UNL     1      -9.677 -11.060 -18.660  1.00  0.00    -0.273 OA
HETATM   15  C22 UNL     1      -9.526 -14.288 -16.175  1.00  0.00     0.061 A 
HETATM   16  C26 UNL     1      -8.368 -12.238 -16.513  1.00  0.00     0.032 A 
HETATM   17  N7  UNL     1     -10.532 -14.946 -16.719  1.00  0.00    -0.338 N 
HETATM   18  C23 UNL     1      -8.699 -14.579 -15.099  1.00  0.00     0.032 A 
ATOM     19  H7  UNL     1     -10.873 -15.850 -16.392  1.00  0.00     0.167 HD
HETATM   20  C24 UNL     1      -7.734 -13.693 -14.754  1.00  0.00     0.002 A 
HETATM   21  C25 UNL     1      -7.544 -12.514 -15.441  1.00  0.00     0.002 A 
ENDBRANCH   7   9
BRANCH   7  22
HETATM   22  C5  UNL     1     -12.300 -15.495 -19.641  1.00  0.00     0.077 C 
BRANCH  22  23
HETATM   23  C6  UNL     1     -12.534 -16.929 -19.565  1.00  0.00     0.146 C 
BRANCH  23  24
HETATM   24  S1  UNL     1     -12.492 -17.844 -18.102  1.00  0.00     0.141 S 
HETATM   25  C7  UNL     1     -12.897 -19.548 -18.233  1.00  0.00     0.161 C 
HETATM   26  O2  UNL     1     -13.266 -17.247 -16.954  1.00  0.00    -0.228 OA
HETATM   27  O3  UNL     1     -11.023 -17.794 -17.608  1.00  0.00    -0.228 OA
ENDBRANCH  23  24
ENDBRANCH  22  23
ENDBRANCH   7  22
ENDBRANCH   4   6
ENDBRANCH   1   4
BRANCH   1  28
HETATM   28  C8  UNL     1     -15.603 -12.732 -20.098  1.00  0.00     0.081 A 
HETATM   29  C9  UNL     1     -14.777 -11.657 -19.981  1.00  0.00     0.027 A 
HETATM   30  C10 UNL     1     -14.394 -10.911 -21.110  1.00  0.00     0.031 A 
HETATM   31  C11 UNL     1     -14.878 -11.306 -22.298  1.00  0.00     0.035 A 
HETATM   32  C20 UNL     1     -15.724 -12.391 -22.452  1.00  0.00     0.031 A 
HETATM   33  C21 UNL     1     -16.082 -13.098 -21.351  1.00  0.00     0.027 A 
BRANCH  31  34
HETATM   34  N4  UNL     1     -14.557 -10.649 -23.528  1.00  0.00    -0.319 N 
HETATM   35  C12 UNL     1     -13.478 -11.208 -24.242  1.00  0.00     0.314 C 
HETATM   36  O6  UNL     1     -12.843 -12.185 -23.717  1.00  0.00    -0.262 OA
ATOM     37  H4  UNL     1     -15.073  -9.836 -23.864  1.00  0.00     0.169 HD
BRANCH  35  38
HETATM   38  C13 UNL     1     -13.007 -10.771 -25.549  1.00  0.00     0.314 C 
HETATM   39  O7  UNL     1     -11.841 -11.055 -25.954  1.00  0.00    -0.262 OA
HETATM   40  N5  UNL     1     -13.881 -10.024 -26.371  1.00  0.00    -0.317 N 
ATOM     41  H5  UNL     1     -14.802  -9.819 -25.984  1.00  0.00     0.169 HD
BRANCH  40  42
HETATM   42  C14 UNL     1     -13.629  -9.544 -27.629  1.00  0.00     0.068 A 
HETATM   43  C15 UNL     1     -12.859  -8.434 -27.885  1.00  0.00     0.032 A 
HETATM   44  C16 UNL     1     -12.534  -8.048 -29.183  1.00  0.00     0.002 A 
HETATM   45  C17 UNL     1     -12.973  -8.765 -30.255  1.00  0.00     0.003 A 
HETATM   46  C18 UNL     1     -13.739  -9.872 -30.047  1.00  0.00     0.038 A 
HETATM   47  C19 UNL     1     -14.064 -10.256 -28.747  1.00  0.00     0.129 A 
BRANCH  47  48
HETATM   48  N6  UNL     1     -14.896 -11.373 -28.595  1.00  0.00    -0.113 N 
HETATM   49  O8  UNL     1     -14.618 -12.471 -29.059  1.00  0.00    -0.532 OA
HETATM   50  O9  UNL     1     -16.054 -11.261 -27.859  1.00  0.00    -0.532 OA
ENDBRANCH  47  48
ENDBRANCH  40  42
ENDBRANCH  35  38
ENDBRANCH  31  34
ENDBRANCH   1  28
TORSDOF 11
ENDMDL
MODEL 3
REMARK VINA RESULT: -8.635487001      1.777      3.200
REMARK  11 active torsions:
REMARK  status: ('A' for Active; 'I' for Inactive)
REMARK       I    between atoms: C2_2  and  N1_4 
REMARK    1  A    between atoms: C3_5  and  C4_6 
REMARK    2  A    between atoms: C4_6  and  C5_7 
REMARK    3  A    between atoms: C5_7  and  C6_8 
REMARK    4  A    between atoms: C6_8  and  S1_9 
REMARK    5  A    between atoms: N2_13  and  N3_15 
REMARK    6  A    between atoms: N3_15  and  S2_17 
REMARK    7  A    between atoms: S2_17  and  C8_20 
REMARK    8  A    between atoms: C11_23  and  N4_24 
REMARK       I    between atoms: N4_24  and  C12_26 
REMARK    9  A    between atoms: C12_26  and  C13_28 
REMARK       I    between atoms: C13_28  and  N5_30 
REMARK   10  A    between atoms: N5_30  and  C14_32 
REMARK   11  A    between atoms: C19_37  and  N6_38 
ROOT
HETATM    1  S2  UNL     1     -15.598 -15.720 -19.613  1.00  0.00     0.276 S 
HETATM    2  O4  UNL     1     -17.038 -16.033 -19.374  1.00  0.00    -0.199 OA
HETATM    3  O5  UNL     1     -14.874 -16.986 -19.873  1.00  0.00    -0.199 OA
ENDROOT
BRANCH   1   4
HETATM    4  N3  UNL     1     -15.014 -14.879 -18.219  1.00  0.00    -0.223 N 
ATOM      5  H3  UNL     1     -15.720 -14.429 -17.635  1.00  0.00     0.200 HD
BRANCH   4   6
HETATM    6  N2  UNL     1     -13.724 -14.749 -17.810  1.00  0.00    -0.292 N 
HETATM    7  C4  UNL     1     -13.110 -13.637 -17.592  1.00  0.00     0.072 C 
ATOM      8  H2  UNL     1     -13.195 -15.609 -17.664  1.00  0.00     0.187 HD
BRANCH   7   9
HETATM    9  C3  UNL     1     -11.726 -13.607 -17.155  1.00  0.00     0.140 A 
HETATM   10  N1  UNL     1     -10.625 -13.007 -17.608  1.00  0.00    -0.264 N 
HETATM   11  C2  UNL     1     -10.352 -12.500 -18.873  1.00  0.00     0.226 C 
HETATM   12  C27 UNL     1      -9.604 -13.086 -16.660  1.00  0.00     0.070 A 
HETATM   13  C1  UNL     1     -11.111 -12.677 -20.106  1.00  0.00     0.118 C 
HETATM   14  O1  UNL     1      -9.286 -11.779 -19.040  1.00  0.00    -0.273 OA
HETATM   15  C22 UNL     1     -10.141 -13.782 -15.593  1.00  0.00     0.061 A 
HETATM   16  C26 UNL     1      -8.303 -12.650 -16.593  1.00  0.00     0.032 A 
HETATM   17  N7  UNL     1     -11.389 -14.082 -15.896  1.00  0.00    -0.338 N 
HETATM   18  C23 UNL     1      -9.371 -14.038 -14.467  1.00  0.00     0.032 A 
ATOM     19  H7  UNL     1     -12.023 -14.596 -15.285  1.00  0.00     0.167 HD
HETATM   20  C24 UNL     1      -8.092 -13.591 -14.430  1.00  0.00     0.002 A 
HETATM   21  C25 UNL     1      -7.530 -12.895 -15.477  1.00  0.00     0.002 A 
ENDBRANCH   7   9
BRANCH   7  22
HETATM   22  C5  UNL     1     -13.880 -12.375 -17.740  1.00  0.00     0.077 C 
BRANCH  22  23
HETATM   23  C6  UNL     1     -14.461 -11.752 -16.561  1.00  0.00     0.146 C 
BRANCH  23  24
HETATM   24  S1  UNL     1     -15.886 -12.317 -15.766  1.00  0.00     0.141 S 
HETATM   25  C7  UNL     1     -15.648 -13.194 -14.263  1.00  0.00     0.161 C 
HETATM   26  O2  UNL     1     -16.837 -13.097 -16.639  1.00  0.00    -0.228 OA
HETATM   27  O3  UNL     1     -16.698 -11.050 -15.394  1.00  0.00    -0.228 OA
ENDBRANCH  23  24
ENDBRANCH  22  23
ENDBRANCH   7  22
ENDBRANCH   4   6
ENDBRANCH   1   4
BRANCH   1  28
HETATM   28  C8  UNL     1     -15.475 -14.579 -20.941  1.00  0.00     0.081 A 
HETATM   29  C9  UNL     1     -15.736 -13.259 -20.745  1.00  0.00     0.027 A 
HETATM   30  C10 UNL     1     -15.597 -12.329 -21.792  1.00  0.00     0.031 A 
HETATM   31  C11 UNL     1     -15.200 -12.803 -22.983  1.00  0.00     0.035 A 
HETATM   32  C20 UNL     1     -14.931 -14.141 -23.218  1.00  0.00     0.031 A 
HETATM   33  C21 UNL     1     -15.071 -15.022 -22.196  1.00  0.00     0.027 A 
BRANCH  31  34
HETATM   34  N4  UNL     1     -15.003 -11.969 -24.128  1.00  0.00    -0.319 N 
HETATM   35  C12 UNL     1     -13.663 -11.625 -24.395  1.00  0.00     0.314 C 
HETATM   36  O6  UNL     1     -12.760 -12.015 -23.578  1.00  0.00    -0.262 OA
ATOM     37  H4  UNL     1     -15.777 -11.646 -24.709  1.00  0.00     0.169 HD
BRANCH  35  38
HETATM   38  C13 UNL     1     -13.196 -10.852 -25.539  1.00  0.00     0.314 C 
HETATM   39  O7  UNL     1     -12.016 -10.983 -25.979  1.00  0.00    -0.262 OA
HETATM   40  N5  UNL     1     -14.089  -9.951 -26.160  1.00  0.00    -0.317 N 
ATOM     41  H5  UNL     1     -15.022  -9.884 -25.752  1.00  0.00     0.169 HD
BRANCH  40  42
HETATM   42  C14 UNL     1     -13.843  -9.157 -27.249  1.00  0.00     0.068 A 
HETATM   43  C15 UNL     1     -12.583  -8.895 -27.736  1.00  0.00     0.032 A 
HETATM   44  C16 UNL     1     -12.385  -8.177 -28.913  1.00  0.00     0.002 A 
HETATM   45  C17 UNL     1     -13.444  -7.705 -29.629  1.00  0.00     0.003 A 
HETATM   46  C18 UNL     1     -14.708  -7.941 -29.182  1.00  0.00     0.038 A 
HETATM   47  C19 UNL     1     -14.905  -8.659 -28.004  1.00  0.00     0.129 A 
BRANCH  47  48
HETATM   48  N6  UNL     1     -16.225  -8.829 -27.566  1.00  0.00    -0.113 N 
HETATM   49  O8  UNL     1     -17.022  -7.902 -27.499  1.00  0.00    -0.532 OA
HETATM   50  O9  UNL     1     -16.674 -10.087 -27.237  1.00  0.00    -0.532 OA
ENDBRANCH  47  48
ENDBRANCH  40  42
ENDBRANCH  35  38
ENDBRANCH  31  34
ENDBRANCH   1  28
TORSDOF 11
ENDMDL
MODEL 4
REMARK VINA RESULT: -8.406409703      2.468      4.547
REMARK  11 active torsions:
REMARK  status: ('A' for Active; 'I' for Inactive)
REMARK       I    between atoms: C2_2  and  N1_4 
REMARK    1  A    between atoms: C3_5  and  C4_6 
REMARK    2  A    between atoms: C4_6  and  C5_7 
REMARK    3  A    between atoms: C5_7  and  C6_8 
REMARK    4  A    between atoms: C6_8  and  S1_9 
REMARK    5  A    between atoms: N2_13  and  N3_15 
REMARK    6  A    between atoms: N3_15  and  S2_17 
REMARK    7  A    between atoms: S2_17  and  C8_20 
REMARK    8  A    between atoms: C11_23  and  N4_24 
REMARK       I    between atoms: N4_24  and  C12_26 
REMARK    9  A    between atoms: C12_26  and  C13_28 
REMARK       I    between atoms: C13_28  and  N5_30 
REMARK   10  A    between atoms: N5_30  and  C14_32 
REMARK   11  A    between atoms: C19_37  and  N6_38 
ROOT
HETATM    1  S2  UNL     1     -13.055 -18.228 -18.739  1.00  0.00     0.276 S 
HETATM    2  O4  UNL     1     -14.022 -18.504 -17.635  1.00  0.00    -0.199 OA
HETATM    3  O5  UNL     1     -12.741 -19.502 -19.426  1.00  0.00    -0.199 OA
ENDROOT
BRANCH   1   4
HETATM    4  N3  UNL     1     -11.666 -17.477 -18.032  1.00  0.00    -0.223 N 
ATOM      5  H3  UNL     1     -11.085 -18.070 -17.440  1.00  0.00     0.200 HD
BRANCH   4   6
HETATM    6  N2  UNL     1     -11.259 -16.187 -18.176  1.00  0.00    -0.292 N 
HETATM    7  C4  UNL     1     -11.699 -15.179 -17.505  1.00  0.00     0.072 C 
ATOM      8  H2  UNL     1     -10.543 -16.002 -18.879  1.00  0.00     0.187 HD
BRANCH   7   9
HETATM    9  C3  UNL     1     -11.197 -13.836 -17.735  1.00  0.00     0.140 A 
HETATM   10  N1  UNL     1     -10.031 -13.231 -17.507  1.00  0.00    -0.264 N 
HETATM   11  C2  UNL     1      -9.012 -13.581 -16.629  1.00  0.00     0.226 C 
HETATM   12  C27 UNL     1      -9.983 -12.003 -18.169  1.00  0.00     0.070 A 
HETATM   13  C1  UNL     1      -9.031 -14.578 -15.564  1.00  0.00     0.118 C 
HETATM   14  O1  UNL     1      -7.876 -12.958 -16.711  1.00  0.00    -0.273 OA
HETATM   15  C22 UNL     1     -11.199 -11.882 -18.814  1.00  0.00     0.061 A 
HETATM   16  C26 UNL     1      -9.055 -10.998 -18.286  1.00  0.00     0.032 A 
HETATM   17  N7  UNL     1     -11.903 -12.966 -18.552  1.00  0.00    -0.338 N 
HETATM   18  C23 UNL     1     -11.479 -10.753 -19.573  1.00  0.00     0.032 A 
ATOM     19  H7  UNL     1     -12.844 -13.141 -18.904  1.00  0.00     0.167 HD
HETATM   20  C24 UNL     1     -10.541  -9.781 -19.673  1.00  0.00     0.002 A 
HETATM   21  C25 UNL     1      -9.320  -9.874 -19.041  1.00  0.00     0.002 A 
ENDBRANCH   7   9
BRANCH   7  22
HETATM   22  C5  UNL     1     -12.698 -15.435 -16.436  1.00  0.00     0.077 C 
BRANCH  22  23
HETATM   23  C6  UNL     1     -12.963 -14.403 -15.446  1.00  0.00     0.146 C 
BRANCH  23  24
HETATM   24  S1  UNL     1     -14.205 -13.212 -15.592  1.00  0.00     0.141 S 
HETATM   25  C7  UNL     1     -15.696 -13.526 -14.718  1.00  0.00     0.161 C 
HETATM   26  O2  UNL     1     -14.545 -12.815 -17.006  1.00  0.00    -0.228 OA
HETATM   27  O3  UNL     1     -13.622 -11.911 -14.983  1.00  0.00    -0.228 OA
ENDBRANCH  23  24
ENDBRANCH  22  23
ENDBRANCH   7  22
ENDBRANCH   4   6
ENDBRANCH   1   4
BRANCH   1  28
HETATM   28  C8  UNL     1     -13.748 -17.026 -19.814  1.00  0.00     0.081 A 
HETATM   29  C9  UNL     1     -14.808 -16.271 -19.416  1.00  0.00     0.027 A 
HETATM   30  C10 UNL     1     -15.342 -15.274 -20.254  1.00  0.00     0.031 A 
HETATM   31  C11 UNL     1     -14.764 -15.107 -21.453  1.00  0.00     0.035 A 
HETATM   32  C20 UNL     1     -13.688 -15.860 -21.890  1.00  0.00     0.031 A 
HETATM   33  C21 UNL     1     -13.187 -16.817 -21.069  1.00  0.00     0.027 A 
BRANCH  31  34
HETATM   34  N4  UNL     1     -15.194 -14.121 -22.396  1.00  0.00    -0.319 N 
HETATM   35  C12 UNL     1     -14.529 -12.881 -22.312  1.00  0.00     0.314 C 
HETATM   36  O6  UNL     1     -13.667 -12.715 -21.383  1.00  0.00    -0.262 OA
ATOM     37  H4  UNL     1     -15.930 -14.302 -23.079  1.00  0.00     0.169 HD
BRANCH  35  38
HETATM   38  C13 UNL     1     -14.732 -11.746 -23.203  1.00  0.00     0.314 C 
HETATM   39  O7  UNL     1     -15.023 -10.601 -22.749  1.00  0.00    -0.262 OA
HETATM   40  N5  UNL     1     -14.590 -11.943 -24.596  1.00  0.00    -0.317 N 
ATOM     41  H5  UNL     1     -14.365 -12.891 -24.899  1.00  0.00     0.169 HD
BRANCH  40  42
HETATM   42  C14 UNL     1     -14.721 -11.003 -25.583  1.00  0.00     0.068 A 
HETATM   43  C15 UNL     1     -15.929 -10.617 -26.117  1.00  0.00     0.032 A 
HETATM   44  C16 UNL     1     -16.026  -9.577 -27.038  1.00  0.00     0.002 A 
HETATM   45  C17 UNL     1     -14.917  -8.900 -27.445  1.00  0.00     0.003 A 
HETATM   46  C18 UNL     1     -13.700  -9.250 -26.943  1.00  0.00     0.038 A 
HETATM   47  C19 UNL     1     -13.604 -10.292 -26.022  1.00  0.00     0.129 A 
BRANCH  47  48
HETATM   48  N6  UNL     1     -12.323 -10.642 -25.577  1.00  0.00    -0.113 N 
HETATM   49  O8  UNL     1     -12.021 -10.669 -24.392  1.00  0.00    -0.532 OA
HETATM   50  O9  UNL     1     -11.366 -11.017 -26.493  1.00  0.00    -0.532 OA
ENDBRANCH  47  48
ENDBRANCH  40  42
ENDBRANCH  35  38
ENDBRANCH  31  34
ENDBRANCH   1  28
TORSDOF 11
ENDMDL
MODEL 5
REMARK VINA RESULT: -8.375542350      1.793      3.156
REMARK  11 active torsions:
REMARK  status: ('A' for Active; 'I' for Inactive)
REMARK       I    between atoms: C2_2  and  N1_4 
REMARK    1  A    between atoms: C3_5  and  C4_6 
REMARK    2  A    between atoms: C4_6  and  C5_7 
REMARK    3  A    between atoms: C5_7  and  C6_8 
REMARK    4  A    between atoms: C6_8  and  S1_9 
REMARK    5  A    between atoms: N2_13  and  N3_15 
REMARK    6  A    between atoms: N3_15  and  S2_17 
REMARK    7  A    between atoms: S2_17  and  C8_20 
REMARK    8  A    between atoms: C11_23  and  N4_24 
REMARK       I    between atoms: N4_24  and  C12_26 
REMARK    9  A    between atoms: C12_26  and  C13_28 
REMARK       I    between atoms: C13_28  and  N5_30 
REMARK   10  A    between atoms: N5_30  and  C14_32 
REMARK   11  A    between atoms: C19_37  and  N6_38 
ROOT
HETATM    1  S2  UNL     1     -15.498 -16.275 -19.543  1.00  0.00     0.276 S 
HETATM    2  O4  UNL     1     -16.968 -16.493 -19.401  1.00  0.00    -0.199 OA
HETATM    3  O5  UNL     1     -14.824 -17.593 -19.573  1.00  0.00    -0.199 OA
ENDROOT
BRANCH   1   4
HETATM    4  N3  UNL     1     -14.993 -15.284 -18.219  1.00  0.00    -0.223 N 
ATOM      5  H3  UNL     1     -15.733 -14.811 -17.700  1.00  0.00     0.200 HD
BRANCH   4   6
HETATM    6  N2  UNL     1     -13.722 -15.063 -17.789  1.00  0.00    -0.292 N 
HETATM    7  C4  UNL     1     -13.094 -13.939 -17.839  1.00  0.00     0.072 C 
ATOM      8  H2  UNL     1     -13.221 -15.858 -17.391  1.00  0.00     0.187 HD
BRANCH   7   9
HETATM    9  C3  UNL     1     -11.732 -13.806 -17.351  1.00  0.00     0.140 A 
HETATM   10  N1  UNL     1     -10.657 -13.142 -17.774  1.00  0.00    -0.264 N 
HETATM   11  C2  UNL     1     -10.370 -12.641 -19.038  1.00  0.00     0.226 C 
HETATM   12  C27 UNL     1      -9.671 -13.134 -16.786  1.00  0.00     0.070 A 
HETATM   13  C1  UNL     1     -11.065 -12.892 -20.296  1.00  0.00     0.118 C 
HETATM   14  O1  UNL     1      -9.348 -11.853 -19.180  1.00  0.00    -0.273 OA
HETATM   15  C22 UNL     1     -10.202 -13.845 -15.726  1.00  0.00     0.061 A 
HETATM   16  C26 UNL     1      -8.406 -12.610 -16.679  1.00  0.00     0.032 A 
HETATM   17  N7  UNL     1     -11.415 -14.235 -16.071  1.00  0.00    -0.338 N 
HETATM   18  C23 UNL     1      -9.462 -14.028 -14.566  1.00  0.00     0.032 A 
ATOM     19  H7  UNL     1     -12.037 -14.779 -15.474  1.00  0.00     0.167 HD
HETATM   20  C24 UNL     1      -8.219 -13.495 -14.490  1.00  0.00     0.002 A 
HETATM   21  C25 UNL     1      -7.663 -12.781 -15.529  1.00  0.00     0.002 A 
ENDBRANCH   7   9
BRANCH   7  22
HETATM   22  C5  UNL     1     -13.825 -12.754 -18.359  1.00  0.00     0.077 C 
BRANCH  22  23
HETATM   23  C6  UNL     1     -14.292 -11.740 -17.428  1.00  0.00     0.146 C 
BRANCH  23  24
HETATM   24  S1  UNL     1     -14.652 -12.039 -15.766  1.00  0.00     0.141 S 
HETATM   25  C7  UNL     1     -15.906 -11.041 -15.046  1.00  0.00     0.161 C 
HETATM   26  O2  UNL     1     -13.456 -12.055 -14.847  1.00  0.00    -0.228 OA
HETATM   27  O3  UNL     1     -15.177 -13.496 -15.698  1.00  0.00    -0.228 OA
ENDBRANCH  23  24
ENDBRANCH  22  23
ENDBRANCH   7  22
ENDBRANCH   4   6
ENDBRANCH   1   4
BRANCH   1  28
HETATM   28  C8  UNL     1     -15.202 -15.323 -20.988  1.00  0.00     0.081 A 
HETATM   29  C9  UNL     1     -14.386 -15.793 -21.970  1.00  0.00     0.027 A 
HETATM   30  C10 UNL     1     -14.177 -15.058 -23.152  1.00  0.00     0.031 A 
HETATM   31  C11 UNL     1     -14.814 -13.882 -23.262  1.00  0.00     0.035 A 
HETATM   32  C20 UNL     1     -15.647 -13.373 -22.281  1.00  0.00     0.031 A 
HETATM   33  C21 UNL     1     -15.835 -14.096 -21.148  1.00  0.00     0.027 A 
BRANCH  31  34
HETATM   34  N4  UNL     1     -14.705 -13.041 -24.415  1.00  0.00    -0.319 N 
HETATM   35  C12 UNL     1     -13.541 -12.248 -24.470  1.00  0.00     0.314 C 
HETATM   36  O6  UNL     1     -12.731 -12.287 -23.481  1.00  0.00    -0.262 OA
ATOM     37  H4  UNL     1     -15.418 -13.018 -25.144  1.00  0.00     0.169 HD
BRANCH  35  38
HETATM   38  C13 UNL     1     -13.163 -11.370 -25.569  1.00  0.00     0.314 C 
HETATM   39  O7  UNL     1     -11.953 -11.054 -25.767  1.00  0.00    -0.262 OA
HETATM   40  N5  UNL     1     -14.174 -10.877 -26.423  1.00  0.00    -0.317 N 
ATOM     41  H5  UNL     1     -15.130 -11.159 -26.204  1.00  0.00     0.169 HD
BRANCH  40  42
HETATM   42  C14 UNL     1     -14.015 -10.061 -27.512  1.00  0.00     0.068 A 
HETATM   43  C15 UNL     1     -13.595  -8.754 -27.435  1.00  0.00     0.032 A 
HETATM   44  C16 UNL     1     -13.336  -7.997 -28.575  1.00  0.00     0.002 A 
HETATM   45  C17 UNL     1     -13.495  -8.531 -29.818  1.00  0.00     0.003 A 
HETATM   46  C18 UNL     1     -13.911  -9.821 -29.941  1.00  0.00     0.038 A 
HETATM   47  C19 UNL     1     -14.170 -10.578 -28.799  1.00  0.00     0.129 A 
BRANCH  47  48
HETATM   48  N6  UNL     1     -14.644 -11.883 -28.985  1.00  0.00    -0.113 N 
HETATM   49  O8  UNL     1     -15.746 -12.123 -29.461  1.00  0.00    -0.532 OA
HETATM   50  O9  UNL     1     -13.835 -12.950 -28.669  1.00  0.00    -0.532 OA
ENDBRANCH  47  48
ENDBRANCH  40  42
ENDBRANCH  35  38
ENDBRANCH  31  34
ENDBRANCH   1  28
TORSDOF 11
ENDMDL
