MODEL 1
REMARK VINA RESULT: -8.667118932      0.000      0.000
REMARK  13 active torsions:
REMARK  status: ('A' for Active; 'I' for Inactive)
REMARK    1  A    between atoms: C5_5  and  S1_6 
REMARK    2  A    between atoms: S1_6  and  N1_9 
REMARK    3  A    between atoms: N1_9  and  N2_11 
REMARK       I    between atoms: N2_11  and  C7_14 
REMARK    4  A    between atoms: C7_14  and  C8_16 
REMARK    5  A    between atoms: C8_16  and  C9_17 
REMARK    6  A    between atoms: C8_16  and  C17_28 
REMARK    7  A    between atoms: C9_17  and  N4_18 
REMARK    8  A    between atoms: C22_33  and  C23_34 
REMARK    9  A    between atoms: C23_34  and  O5_36 
REMARK   10  A    between atoms: O5_36  and  C24_37 
REMARK   11  A    between atoms: C24_37  and  C25_38 
REMARK       I    between atoms: C25_38  and  N6_40 
REMARK   12  A    between atoms: N6_40  and  N7_42 
REMARK   13  A    between atoms: C26_44  and  C27_45 
ROOT
HETATM    1  N2  UNL     1     -13.171 -14.067 -21.424  1.00  0.00    -0.145 N 
HETATM    2  C6  UNL     1     -12.823 -14.841 -22.563  1.00  0.00     0.208 C 
HETATM    3  N3  UNL     1     -12.509 -15.489 -23.496  1.00  0.00    -0.170 NA
HETATM    4  C7  UNL     1     -12.176 -13.892 -20.437  1.00  0.00     0.262 C 
HETATM    5  O3  UNL     1     -11.013 -14.395 -20.713  1.00  0.00    -0.270 OA
ENDROOT
BRANCH   1   6
HETATM    6  N1  UNL     1     -14.421 -13.522 -21.284  1.00  0.00    -0.204 N 
ATOM      7  H1  UNL     1     -14.645 -12.580 -21.601  1.00  0.00     0.201 HD
BRANCH   6   8
HETATM    8  S1  UNL     1     -15.559 -14.524 -20.548  1.00  0.00     0.277 S 
HETATM    9  O1  UNL     1     -14.868 -15.860 -20.272  1.00  0.00    -0.199 OA
HETATM   10  O2  UNL     1     -16.701 -14.841 -21.444  1.00  0.00    -0.199 OA
BRANCH   8  11
HETATM   11  C5  UNL     1     -16.083 -13.897 -18.994  1.00  0.00     0.081 A 
HETATM   12  C4  UNL     1     -15.546 -12.745 -18.460  1.00  0.00     0.026 A 
HETATM   13  C3  UNL     1     -15.936 -12.232 -17.226  1.00  0.00     0.008 A 
HETATM   14  C2  UNL     1     -16.899 -12.895 -16.498  1.00  0.00    -0.062 A 
HETATM   15  C1  UNL     1     -17.315 -12.349 -15.182  1.00  0.00     0.048 C 
HETATM   16  C31 UNL     1     -17.449 -14.046 -17.012  1.00  0.00     0.008 A 
HETATM   17  C30 UNL     1     -17.044 -14.548 -18.256  1.00  0.00     0.026 A 
ENDBRANCH   8  11
ENDBRANCH   6   8
ENDBRANCH   1   6
BRANCH   4  18
HETATM   18  C8  UNL     1     -12.256 -13.220 -19.140  1.00  0.00     0.133 C 
BRANCH  18  19
HETATM   19  C9  UNL     1     -11.770 -14.153 -18.007  1.00  0.00     0.149 C 
BRANCH  19  20
HETATM   20  N4  UNL     1     -12.766 -14.829 -17.264  1.00  0.00    -0.340 N 
HETATM   21  C10 UNL     1     -13.363 -15.992 -17.613  1.00  0.00     0.183 A 
HETATM   22  N5  UNL     1     -14.258 -16.342 -16.673  1.00  0.00    -0.350 N 
HETATM   23  C11 UNL     1     -14.245 -15.400 -15.705  1.00  0.00     0.060 A 
ATOM     24  H5  UNL     1     -14.845 -17.176 -16.688  1.00  0.00     0.166 HD
HETATM   25  C12 UNL     1     -14.917 -15.193 -14.531  1.00  0.00     0.032 A 
HETATM   26  C16 UNL     1     -13.305 -14.466 -16.098  1.00  0.00     0.062 A 
HETATM   27  C13 UNL     1     -14.682 -14.071 -13.728  1.00  0.00     0.002 A 
HETATM   28  C14 UNL     1     -13.747 -13.137 -14.117  1.00  0.00     0.002 A 
HETATM   29  C15 UNL     1     -13.067 -13.361 -15.317  1.00  0.00     0.032 A 
ENDBRANCH  19  20
ENDBRANCH  18  19
BRANCH  18  30
HETATM   30  C17 UNL     1     -11.292 -12.057 -19.092  1.00  0.00    -0.027 A 
HETATM   31  C18 UNL     1      -9.985 -12.217 -18.612  1.00  0.00     0.009 A 
HETATM   32  C19 UNL     1      -9.102 -11.144 -18.628  1.00  0.00     0.001 A 
HETATM   33  C20 UNL     1      -9.522  -9.931 -19.116  1.00  0.00     0.001 A 
HETATM   34  C21 UNL     1     -10.790  -9.749 -19.587  1.00  0.00     0.018 A 
HETATM   35  C22 UNL     1     -11.688 -10.839 -19.570  1.00  0.00     0.046 A 
BRANCH  35  36
HETATM   36  C23 UNL     1     -13.014 -10.517 -20.019  1.00  0.00     0.294 C 
HETATM   37  O4  UNL     1     -13.919 -10.015 -19.340  1.00  0.00    -0.259 OA
BRANCH  36  38
HETATM   38  O5  UNL     1     -13.419 -10.765 -21.360  1.00  0.00    -0.308 OA
BRANCH  38  39
HETATM   39  C24 UNL     1     -12.510 -10.850 -22.422  1.00  0.00     0.283 C 
BRANCH  39  40
HETATM   40  C25 UNL     1     -13.274 -11.084 -23.672  1.00  0.00     0.260 C 
HETATM   41  O6  UNL     1     -12.721 -11.735 -24.588  1.00  0.00    -0.269 OA
HETATM   42  N6  UNL     1     -14.588 -10.609 -23.868  1.00  0.00    -0.269 N 
ATOM     43  H6  UNL     1     -15.042 -10.077 -23.124  1.00  0.00     0.190 HD
BRANCH  42  44
HETATM   44  N7  UNL     1     -15.275 -10.847 -25.043  1.00  0.00    -0.306 N 
HETATM   45  C26 UNL     1     -15.490 -10.011 -25.989  1.00  0.00     0.146 C 
ATOM     46  H7  UNL     1     -15.650 -11.787 -25.170  1.00  0.00     0.186 HD
BRANCH  45  47
HETATM   47  C27 UNL     1     -16.254 -10.496 -27.156  1.00  0.00     0.117 A 
HETATM   48  C28 UNL     1     -15.958 -11.608 -27.912  1.00  0.00     0.059 A 
HETATM   49  C29 UNL     1     -16.936 -11.665 -28.881  1.00  0.00     0.117 A 
HETATM   50  N8  UNL     1     -17.727 -10.622 -28.655  1.00  0.00    -0.272 N 
HETATM   51  O7  UNL     1     -17.325  -9.938 -27.643  1.00  0.00    -0.237 OA
ATOM     52  H8  UNL     1     -18.550 -10.394 -29.214  1.00  0.00     0.194 HD
ENDBRANCH  45  47
ENDBRANCH  42  44
ENDBRANCH  39  40
ENDBRANCH  38  39
ENDBRANCH  36  38
ENDBRANCH  35  36
ENDBRANCH  18  30
ENDBRANCH   4  18
TORSDOF 13
ENDMDL
MODEL 2
REMARK VINA RESULT: -8.428328178      1.426      1.972
REMARK  13 active torsions:
REMARK  status: ('A' for Active; 'I' for Inactive)
REMARK    1  A    between atoms: C5_5  and  S1_6 
REMARK    2  A    between atoms: S1_6  and  N1_9 
REMARK    3  A    between atoms: N1_9  and  N2_11 
REMARK       I    between atoms: N2_11  and  C7_14 
REMARK    4  A    between atoms: C7_14  and  C8_16 
REMARK    5  A    between atoms: C8_16  and  C9_17 
REMARK    6  A    between atoms: C8_16  and  C17_28 
REMARK    7  A    between atoms: C9_17  and  N4_18 
REMARK    8  A    between atoms: C22_33  and  C23_34 
REMARK    9  A    between atoms: C23_34  and  O5_36 
REMARK   10  A    between atoms: O5_36  and  C24_37 
REMARK   11  A    between atoms: C24_37  and  C25_38 
REMARK       I    between atoms: C25_38  and  N6_40 
REMARK   12  A    between atoms: N6_40  and  N7_42 
REMARK   13  A    between atoms: C26_44  and  C27_45 
ROOT
HETATM    1  N2  UNL     1     -13.242 -13.848 -21.538  1.00  0.00    -0.145 N 
HETATM    2  C6  UNL     1     -13.043 -14.424 -22.822  1.00  0.00     0.208 C 
HETATM    3  N3  UNL     1     -12.849 -14.904 -23.881  1.00  0.00    -0.170 NA
HETATM    4  C7  UNL     1     -12.096 -13.651 -20.737  1.00  0.00     0.262 C 
HETATM    5  O3  UNL     1     -10.962 -13.946 -21.292  1.00  0.00    -0.270 OA
ENDROOT
BRANCH   1   6
HETATM    6  N1  UNL     1     -14.493 -13.509 -21.093  1.00  0.00    -0.204 N 
ATOM      7  H1  UNL     1     -14.913 -12.601 -21.285  1.00  0.00     0.201 HD
BRANCH   6   8
HETATM    8  S1  UNL     1     -15.284 -14.702 -20.205  1.00  0.00     0.277 S 
HETATM    9  O1  UNL     1     -14.235 -15.750 -19.828  1.00  0.00    -0.199 OA
HETATM   10  O2  UNL     1     -16.303 -15.427 -21.007  1.00  0.00    -0.199 OA
BRANCH   8  11
HETATM   11  C5  UNL     1     -15.938 -14.079 -18.699  1.00  0.00     0.081 A 
HETATM   12  C4  UNL     1     -15.431 -12.943 -18.105  1.00  0.00     0.026 A 
HETATM   13  C3  UNL     1     -15.924 -12.433 -16.907  1.00  0.00     0.008 A 
HETATM   14  C2  UNL     1     -16.962 -13.084 -16.278  1.00  0.00    -0.062 A 
HETATM   15  C1  UNL     1     -17.488 -12.542 -15.000  1.00  0.00     0.048 C 
HETATM   16  C31 UNL     1     -17.484 -14.220 -16.853  1.00  0.00     0.008 A 
HETATM   17  C30 UNL     1     -16.975 -14.718 -18.059  1.00  0.00     0.026 A 
ENDBRANCH   8  11
ENDBRANCH   6   8
ENDBRANCH   1   6
BRANCH   4  18
HETATM   18  C8  UNL     1     -11.990 -13.157 -19.364  1.00  0.00     0.133 C 
BRANCH  18  19
HETATM   19  C9  UNL     1     -11.117 -14.100 -18.505  1.00  0.00     0.149 C 
BRANCH  19  20
HETATM   20  N4  UNL     1     -11.198 -13.945 -17.102  1.00  0.00    -0.340 N 
HETATM   21  C10 UNL     1     -12.328 -13.733 -16.390  1.00  0.00     0.183 A 
HETATM   22  N5  UNL     1     -12.031 -13.636 -15.083  1.00  0.00    -0.350 N 
HETATM   23  C11 UNL     1     -10.695 -13.784 -14.942  1.00  0.00     0.060 A 
ATOM     24  H5  UNL     1     -12.698 -13.477 -14.328  1.00  0.00     0.166 HD
HETATM   25  C12 UNL     1      -9.815 -13.772 -13.894  1.00  0.00     0.032 A 
HETATM   26  C16 UNL     1     -10.199 -13.976 -16.217  1.00  0.00     0.062 A 
HETATM   27  C13 UNL     1      -8.438 -13.946 -14.079  1.00  0.00     0.002 A 
HETATM   28  C14 UNL     1      -7.939 -14.136 -15.349  1.00  0.00     0.002 A 
HETATM   29  C15 UNL     1      -8.849 -14.147 -16.409  1.00  0.00     0.032 A 
ENDBRANCH  19  20
ENDBRANCH  18  19
BRANCH  18  30
HETATM   30  C17 UNL     1     -11.243 -11.843 -19.336  1.00  0.00    -0.027 A 
HETATM   31  C18 UNL     1      -9.917 -11.773 -18.890  1.00  0.00     0.009 A 
HETATM   32  C19 UNL     1      -9.235 -10.563 -18.924  1.00  0.00     0.001 A 
HETATM   33  C20 UNL     1      -9.872  -9.442 -19.396  1.00  0.00     0.001 A 
HETATM   34  C21 UNL     1     -11.164  -9.483 -19.835  1.00  0.00     0.018 A 
HETATM   35  C22 UNL     1     -11.858 -10.713 -19.799  1.00  0.00     0.046 A 
BRANCH  35  36
HETATM   36  C23 UNL     1     -13.231 -10.628 -20.213  1.00  0.00     0.294 C 
HETATM   37  O4  UNL     1     -14.218 -10.536 -19.472  1.00  0.00    -0.259 OA
BRANCH  36  38
HETATM   38  O5  UNL     1     -13.588 -10.642 -21.590  1.00  0.00    -0.308 OA
BRANCH  38  39
HETATM   39  C24 UNL     1     -12.641 -10.754 -22.617  1.00  0.00     0.283 C 
BRANCH  39  40
HETATM   40  C25 UNL     1     -13.364 -10.970 -23.894  1.00  0.00     0.260 C 
HETATM   41  O6  UNL     1     -12.734 -11.485 -24.847  1.00  0.00    -0.269 OA
HETATM   42  N6  UNL     1     -14.719 -10.624 -24.077  1.00  0.00    -0.269 N 
ATOM     43  H6  UNL     1     -15.234 -10.203 -23.304  1.00  0.00     0.190 HD
BRANCH  42  44
HETATM   44  N7  UNL     1     -15.365 -10.841 -25.279  1.00  0.00    -0.306 N 
HETATM   45  C26 UNL     1     -15.632  -9.967 -26.176  1.00  0.00     0.146 C 
ATOM     46  H7  UNL     1     -15.659 -11.799 -25.473  1.00  0.00     0.186 HD
BRANCH  45  47
HETATM   47  C27 UNL     1     -16.334 -10.438 -27.388  1.00  0.00     0.117 A 
HETATM   48  C28 UNL     1     -16.061 -11.593 -28.084  1.00  0.00     0.059 A 
HETATM   49  C29 UNL     1     -16.960 -11.614 -29.128  1.00  0.00     0.117 A 
HETATM   50  N8  UNL     1     -17.689 -10.512 -28.997  1.00  0.00    -0.272 N 
HETATM   51  O7  UNL     1     -17.320  -9.823 -27.976  1.00  0.00    -0.237 OA
ATOM     52  H8  UNL     1     -18.446 -10.246 -29.627  1.00  0.00     0.194 HD
ENDBRANCH  45  47
ENDBRANCH  42  44
ENDBRANCH  39  40
ENDBRANCH  38  39
ENDBRANCH  36  38
ENDBRANCH  35  36
ENDBRANCH  18  30
ENDBRANCH   4  18
TORSDOF 13
ENDMDL
MODEL 3
REMARK VINA RESULT: -8.406441795      2.974      7.939
REMARK  13 active torsions:
REMARK  status: ('A' for Active; 'I' for Inactive)
REMARK    1  A    between atoms: C5_5  and  S1_6 
REMARK    2  A    between atoms: S1_6  and  N1_9 
REMARK    3  A    between atoms: N1_9  and  N2_11 
REMARK       I    between atoms: N2_11  and  C7_14 
REMARK    4  A    between atoms: C7_14  and  C8_16 
REMARK    5  A    between atoms: C8_16  and  C9_17 
REMARK    6  A    between atoms: C8_16  and  C17_28 
REMARK    7  A    between atoms: C9_17  and  N4_18 
REMARK    8  A    between atoms: C22_33  and  C23_34 
REMARK    9  A    between atoms: C23_34  and  O5_36 
REMARK   10  A    between atoms: O5_36  and  C24_37 
REMARK   11  A    between atoms: C24_37  and  C25_38 
REMARK       I    between atoms: C25_38  and  N6_40 
REMARK   12  A    between atoms: N6_40  and  N7_42 
REMARK   13  A    between atoms: C26_44  and  C27_45 
ROOT
HETATM    1  N2  UNL     1     -13.967 -12.958 -17.668  1.00  0.00    -0.145 N 
HETATM    2  C6  UNL     1     -14.613 -12.885 -16.405  1.00  0.00     0.208 C 
HETATM    3  N3  UNL     1     -15.150 -12.796 -15.360  1.00  0.00    -0.170 NA
HETATM    4  C7  UNL     1     -13.708 -11.738 -18.330  1.00  0.00     0.262 C 
HETATM    5  O3  UNL     1     -14.018 -10.664 -17.673  1.00  0.00    -0.270 OA
ENDROOT
BRANCH   1   6
HETATM    6  N1  UNL     1     -13.621 -14.162 -18.226  1.00  0.00    -0.204 N 
ATOM      7  H1  UNL     1     -12.685 -14.555 -18.139  1.00  0.00     0.201 HD
BRANCH   6   8
HETATM    8  S1  UNL     1     -14.855 -14.943 -19.066  1.00  0.00     0.277 S 
HETATM    9  O1  UNL     1     -16.106 -14.071 -18.938  1.00  0.00    -0.199 OA
HETATM   10  O2  UNL     1     -15.215 -16.251 -18.461  1.00  0.00    -0.199 OA
BRANCH   8  11
HETATM   11  C5  UNL     1     -14.506 -15.073 -20.782  1.00  0.00     0.081 A 
HETATM   12  C4  UNL     1     -15.442 -15.541 -21.678  1.00  0.00     0.026 A 
HETATM   13  C3  UNL     1     -15.187 -15.663 -23.041  1.00  0.00     0.008 A 
HETATM   14  C2  UNL     1     -13.949 -15.305 -23.527  1.00  0.00    -0.062 A 
HETATM   15  C1  UNL     1     -13.676 -15.436 -24.980  1.00  0.00     0.048 C 
HETATM   16  C31 UNL     1     -12.999 -14.835 -22.650  1.00  0.00     0.008 A 
HETATM   17  C30 UNL     1     -13.274 -14.718 -21.281  1.00  0.00     0.026 A 
ENDBRANCH   8  11
ENDBRANCH   6   8
ENDBRANCH   1   6
BRANCH   4  18
HETATM   18  C8  UNL     1     -13.134 -11.497 -19.654  1.00  0.00     0.133 C 
BRANCH  18  19
HETATM   19  C9  UNL     1     -14.061 -10.594 -20.499  1.00  0.00     0.149 C 
BRANCH  19  20
HETATM   20  N4  UNL     1     -14.561 -11.140 -21.704  1.00  0.00    -0.340 N 
HETATM   21  C10 UNL     1     -15.756 -11.755 -21.861  1.00  0.00     0.183 A 
HETATM   22  N5  UNL     1     -15.901 -12.146 -23.138  1.00  0.00    -0.350 N 
HETATM   23  C11 UNL     1     -14.792 -11.784 -23.820  1.00  0.00     0.060 A 
ATOM     24  H5  UNL     1     -16.709 -12.632 -23.526  1.00  0.00     0.166 HD
HETATM   25  C12 UNL     1     -14.350 -11.911 -25.109  1.00  0.00     0.032 A 
HETATM   26  C16 UNL     1     -13.971 -11.158 -22.901  1.00  0.00     0.062 A 
HETATM   27  C13 UNL     1     -13.102 -11.428 -25.517  1.00  0.00     0.002 A 
HETATM   28  C14 UNL     1     -12.280 -10.803 -24.604  1.00  0.00     0.002 A 
HETATM   29  C15 UNL     1     -12.743 -10.681 -23.292  1.00  0.00     0.032 A 
ENDBRANCH  19  20
ENDBRANCH  18  19
BRANCH  18  30
HETATM   30  C17 UNL     1     -11.857 -10.698 -19.534  1.00  0.00    -0.027 A 
HETATM   31  C18 UNL     1     -11.809  -9.348 -19.904  1.00  0.00     0.009 A 
HETATM   32  C19 UNL     1     -10.636  -8.622 -19.734  1.00  0.00     0.001 A 
HETATM   33  C20 UNL     1      -9.530  -9.239 -19.204  1.00  0.00     0.001 A 
HETATM   34  C21 UNL     1      -9.551 -10.554 -18.838  1.00  0.00     0.018 A 
HETATM   35  C22 UNL     1     -10.742 -11.293 -19.011  1.00  0.00     0.046 A 
BRANCH  35  36
HETATM   36  C23 UNL     1     -10.630 -12.682 -18.664  1.00  0.00     0.294 C 
HETATM   37  O4  UNL     1     -10.536 -13.632 -19.451  1.00  0.00    -0.259 OA
BRANCH  36  38
HETATM   38  O5  UNL     1     -10.618 -13.103 -17.304  1.00  0.00    -0.308 OA
BRANCH  38  39
HETATM   39  C24 UNL     1      -9.798 -14.140 -16.840  1.00  0.00     0.283 C 
BRANCH  39  40
HETATM   40  C25 UNL     1     -10.580 -15.399 -16.866  1.00  0.00     0.260 C 
HETATM   41  O6  UNL     1     -11.578 -15.489 -16.112  1.00  0.00    -0.269 OA
HETATM   42  N6  UNL     1     -10.251 -16.490 -17.697  1.00  0.00    -0.269 N 
ATOM     43  H6  UNL     1      -9.439 -16.421 -18.311  1.00  0.00     0.190 HD
BRANCH  42  44
HETATM   44  N7  UNL     1     -11.003 -17.650 -17.700  1.00  0.00    -0.306 N 
HETATM   45  C26 UNL     1     -12.076 -17.867 -18.364  1.00  0.00     0.146 C 
ATOM     46  H7  UNL     1     -10.668 -18.413 -17.112  1.00  0.00     0.186 HD
BRANCH  45  47
HETATM   47  C27 UNL     1     -12.709 -19.192 -18.208  1.00  0.00     0.117 A 
HETATM   48  C28 UNL     1     -12.051 -20.395 -18.095  1.00  0.00     0.059 A 
HETATM   49  C29 UNL     1     -13.042 -21.345 -17.970  1.00  0.00     0.117 A 
HETATM   50  N8  UNL     1     -14.188 -20.677 -18.013  1.00  0.00    -0.272 N 
HETATM   51  O7  UNL     1     -13.992 -19.414 -18.153  1.00  0.00    -0.237 OA
ATOM     52  H8  UNL     1     -15.109 -21.112 -17.943  1.00  0.00     0.194 HD
ENDBRANCH  45  47
ENDBRANCH  42  44
ENDBRANCH  39  40
ENDBRANCH  38  39
ENDBRANCH  36  38
ENDBRANCH  35  36
ENDBRANCH  18  30
ENDBRANCH   4  18
TORSDOF 13
ENDMDL
MODEL 4
REMARK VINA RESULT: -8.304091256      3.418      7.688
REMARK  13 active torsions:
REMARK  status: ('A' for Active; 'I' for Inactive)
REMARK    1  A    between atoms: C5_5  and  S1_6 
REMARK    2  A    between atoms: S1_6  and  N1_9 
REMARK    3  A    between atoms: N1_9  and  N2_11 
REMARK       I    between atoms: N2_11  and  C7_14 
REMARK    4  A    between atoms: C7_14  and  C8_16 
REMARK    5  A    between atoms: C8_16  and  C9_17 
REMARK    6  A    between atoms: C8_16  and  C17_28 
REMARK    7  A    between atoms: C9_17  and  N4_18 
REMARK    8  A    between atoms: C22_33  and  C23_34 
REMARK    9  A    between atoms: C23_34  and  O5_36 
REMARK   10  A    between atoms: O5_36  and  C24_37 
REMARK   11  A    between atoms: C24_37  and  C25_38 
REMARK       I    between atoms: C25_38  and  N6_40 
REMARK   12  A    between atoms: N6_40  and  N7_42 
REMARK   13  A    between atoms: C26_44  and  C27_45 
ROOT
HETATM    1  N2  UNL     1     -14.203 -12.225 -17.160  1.00  0.00    -0.145 N 
HETATM    2  C6  UNL     1     -15.158 -11.766 -16.214  1.00  0.00     0.208 C 
HETATM    3  N3  UNL     1     -15.957 -11.363 -15.447  1.00  0.00    -0.170 NA
HETATM    4  C7  UNL     1     -14.017 -11.440 -18.319  1.00  0.00     0.262 C 
HETATM    5  O3  UNL     1     -14.688 -10.331 -18.362  1.00  0.00    -0.270 OA
ENDROOT
BRANCH   1   6
HETATM    6  N1  UNL     1     -13.500 -13.385 -16.962  1.00  0.00    -0.204 N 
ATOM      7  H1  UNL     1     -12.506 -13.389 -16.735  1.00  0.00     0.201 HD
BRANCH   6   8
HETATM    8  S1  UNL     1     -14.397 -14.802 -17.121  1.00  0.00     0.277 S 
HETATM    9  O1  UNL     1     -15.864 -14.391 -17.255  1.00  0.00    -0.199 OA
HETATM   10  O2  UNL     1     -14.330 -15.657 -15.908  1.00  0.00    -0.199 OA
BRANCH   8  11
HETATM   11  C5  UNL     1     -13.985 -15.682 -18.584  1.00  0.00     0.081 A 
HETATM   12  C4  UNL     1     -12.990 -15.248 -19.434  1.00  0.00     0.026 A 
HETATM   13  C3  UNL     1     -12.651 -15.922 -20.604  1.00  0.00     0.008 A 
HETATM   14  C2  UNL     1     -13.331 -17.072 -20.938  1.00  0.00    -0.062 A 
HETATM   15  C1  UNL     1     -12.970 -17.790 -22.185  1.00  0.00     0.048 C 
HETATM   16  C31 UNL     1     -14.327 -17.524 -20.103  1.00  0.00     0.008 A 
HETATM   17  C30 UNL     1     -14.656 -16.833 -18.929  1.00  0.00     0.026 A 
ENDBRANCH   8  11
ENDBRANCH   6   8
ENDBRANCH   1   6
BRANCH   4  18
HETATM   18  C8  UNL     1     -13.174 -11.687 -19.489  1.00  0.00     0.133 C 
BRANCH  18  19
HETATM   19  C9  UNL     1     -13.940 -11.376 -20.795  1.00  0.00     0.149 C 
BRANCH  19  20
HETATM   20  N4  UNL     1     -14.206 -12.467 -21.656  1.00  0.00    -0.340 N 
HETATM   21  C10 UNL     1     -13.515 -12.783 -22.774  1.00  0.00     0.183 A 
HETATM   22  N5  UNL     1     -14.044 -13.880 -23.341  1.00  0.00    -0.350 N 
HETATM   23  C11 UNL     1     -15.090 -14.282 -22.586  1.00  0.00     0.060 A 
ATOM     24  H5  UNL     1     -13.714 -14.332 -24.193  1.00  0.00     0.166 HD
HETATM   25  C12 UNL     1     -16.008 -15.295 -22.647  1.00  0.00     0.032 A 
HETATM   26  C16 UNL     1     -15.171 -13.383 -21.540  1.00  0.00     0.062 A 
HETATM   27  C13 UNL     1     -17.017 -15.442 -21.688  1.00  0.00     0.002 A 
HETATM   28  C14 UNL     1     -17.101 -14.547 -20.644  1.00  0.00     0.002 A 
HETATM   29  C15 UNL     1     -16.157 -13.518 -20.594  1.00  0.00     0.032 A 
ENDBRANCH  19  20
ENDBRANCH  18  19
BRANCH  18  30
HETATM   30  C17 UNL     1     -12.011 -10.721 -19.510  1.00  0.00    -0.027 A 
HETATM   31  C18 UNL     1     -12.178  -9.396 -19.933  1.00  0.00     0.009 A 
HETATM   32  C19 UNL     1     -11.105  -8.513 -19.893  1.00  0.00     0.001 A 
HETATM   33  C20 UNL     1      -9.886  -8.953 -19.438  1.00  0.00     0.001 A 
HETATM   34  C21 UNL     1      -9.698 -10.239 -19.021  1.00  0.00     0.018 A 
HETATM   35  C22 UNL     1     -10.788 -11.136 -19.062  1.00  0.00     0.046 A 
BRANCH  35  36
HETATM   36  C23 UNL     1     -10.461 -12.479 -18.673  1.00  0.00     0.294 C 
HETATM   37  O4  UNL     1     -10.262 -13.438 -19.431  1.00  0.00    -0.259 OA
BRANCH  36  38
HETATM   38  O5  UNL     1     -10.331 -12.839 -17.302  1.00  0.00    -0.308 OA
BRANCH  38  39
HETATM   39  C24 UNL     1      -9.512 -13.889 -16.869  1.00  0.00     0.283 C 
BRANCH  39  40
HETATM   40  C25 UNL     1     -10.361 -15.087 -16.663  1.00  0.00     0.260 C 
HETATM   41  O6  UNL     1     -11.151 -15.089 -15.690  1.00  0.00    -0.269 OA
HETATM   42  N6  UNL     1     -10.317 -16.214 -17.511  1.00  0.00    -0.269 N 
ATOM     43  H6  UNL     1      -9.674 -16.217 -18.303  1.00  0.00     0.190 HD
BRANCH  42  44
HETATM   44  N7  UNL     1     -11.125 -17.314 -17.293  1.00  0.00    -0.306 N 
HETATM   45  C26 UNL     1     -11.263 -18.329 -18.062  1.00  0.00     0.146 C 
ATOM     46  H7  UNL     1     -11.668 -17.319 -16.430  1.00  0.00     0.186 HD
BRANCH  45  47
HETATM   47  C27 UNL     1     -12.189 -19.391 -17.618  1.00  0.00     0.117 A 
HETATM   48  C28 UNL     1     -12.136 -20.716 -17.985  1.00  0.00     0.059 A 
HETATM   49  C29 UNL     1     -13.188 -21.320 -17.330  1.00  0.00     0.117 A 
HETATM   50  N8  UNL     1     -13.782 -20.356 -16.637  1.00  0.00    -0.272 N 
HETATM   51  O7  UNL     1     -13.195 -19.224 -16.807  1.00  0.00    -0.237 OA
ATOM     52  H8  UNL     1     -14.601 -20.495 -16.045  1.00  0.00     0.194 HD
ENDBRANCH  45  47
ENDBRANCH  42  44
ENDBRANCH  39  40
ENDBRANCH  38  39
ENDBRANCH  36  38
ENDBRANCH  35  36
ENDBRANCH  18  30
ENDBRANCH   4  18
TORSDOF 13
ENDMDL
MODEL 5
REMARK VINA RESULT: -8.273602165      2.533      6.143
REMARK  13 active torsions:
REMARK  status: ('A' for Active; 'I' for Inactive)
REMARK    1  A    between atoms: C5_5  and  S1_6 
REMARK    2  A    between atoms: S1_6  and  N1_9 
REMARK    3  A    between atoms: N1_9  and  N2_11 
REMARK       I    between atoms: N2_11  and  C7_14 
REMARK    4  A    between atoms: C7_14  and  C8_16 
REMARK    5  A    between atoms: C8_16  and  C9_17 
REMARK    6  A    between atoms: C8_16  and  C17_28 
REMARK    7  A    between atoms: C9_17  and  N4_18 
REMARK    8  A    between atoms: C22_33  and  C23_34 
REMARK    9  A    between atoms: C23_34  and  O5_36 
REMARK   10  A    between atoms: O5_36  and  C24_37 
REMARK   11  A    between atoms: C24_37  and  C25_38 
REMARK       I    between atoms: C25_38  and  N6_40 
REMARK   12  A    between atoms: N6_40  and  N7_42 
REMARK   13  A    between atoms: C26_44  and  C27_45 
ROOT
HETATM    1  N2  UNL     1     -14.332 -12.328 -18.022  1.00  0.00    -0.145 N 
HETATM    2  C6  UNL     1     -15.360 -11.955 -17.115  1.00  0.00     0.208 C 
HETATM    3  N3  UNL     1     -16.216 -11.620 -16.377  1.00  0.00    -0.170 NA
HETATM    4  C7  UNL     1     -13.986 -11.394 -19.022  1.00  0.00     0.262 C 
HETATM    5  O3  UNL     1     -14.594 -10.250 -18.960  1.00  0.00    -0.270 OA
ENDROOT
BRANCH   1   6
HETATM    6  N1  UNL     1     -13.710 -13.547 -17.936  1.00  0.00    -0.204 N 
ATOM      7  H1  UNL     1     -12.755 -13.651 -17.597  1.00  0.00     0.201 HD
BRANCH   6   8
HETATM    8  S1  UNL     1     -14.641 -14.861 -18.433  1.00  0.00     0.277 S 
HETATM    9  O1  UNL     1     -14.945 -14.660 -19.918  1.00  0.00    -0.199 OA
HETATM   10  O2  UNL     1     -15.963 -14.910 -17.756  1.00  0.00    -0.199 OA
BRANCH   8  11
HETATM   11  C5  UNL     1     -13.765 -16.377 -18.299  1.00  0.00     0.081 A 
HETATM   12  C4  UNL     1     -12.756 -16.552 -17.375  1.00  0.00     0.026 A 
HETATM   13  C3  UNL     1     -12.040 -17.739 -17.255  1.00  0.00     0.008 A 
HETATM   14  C2  UNL     1     -12.342 -18.792 -18.090  1.00  0.00    -0.062 A 
HETATM   15  C1  UNL     1     -11.577 -20.058 -17.963  1.00  0.00     0.048 C 
HETATM   16  C31 UNL     1     -13.345 -18.640 -19.019  1.00  0.00     0.008 A 
HETATM   17  C30 UNL     1     -14.055 -17.438 -19.126  1.00  0.00     0.026 A 
ENDBRANCH   8  11
ENDBRANCH   6   8
ENDBRANCH   1   6
BRANCH   4  18
HETATM   18  C8  UNL     1     -13.035 -11.518 -20.127  1.00  0.00     0.133 C 
BRANCH  18  19
HETATM   19  C9  UNL     1     -13.504 -10.697 -21.351  1.00  0.00     0.149 C 
BRANCH  19  20
HETATM   20  N4  UNL     1     -13.985 -11.426 -22.463  1.00  0.00    -0.340 N 
HETATM   21  C10 UNL     1     -14.987 -12.334 -22.444  1.00  0.00     0.183 A 
HETATM   22  N5  UNL     1     -15.176 -12.828 -23.680  1.00  0.00    -0.350 N 
HETATM   23  C11 UNL     1     -14.289 -12.238 -24.511  1.00  0.00     0.060 A 
ATOM     24  H5  UNL     1     -15.870 -13.527 -23.945  1.00  0.00     0.166 HD
HETATM   25  C12 UNL     1     -13.987 -12.326 -25.843  1.00  0.00     0.032 A 
HETATM   26  C16 UNL     1     -13.557 -11.367 -23.727  1.00  0.00     0.062 A 
HETATM   27  C13 UNL     1     -12.966 -11.567 -26.425  1.00  0.00     0.002 A 
HETATM   28  C14 UNL     1     -12.232 -10.699 -25.646  1.00  0.00     0.002 A 
HETATM   29  C15 UNL     1     -12.551 -10.618 -24.288  1.00  0.00     0.032 A 
ENDBRANCH  19  20
ENDBRANCH  18  19
BRANCH  18  30
HETATM   30  C17 UNL     1     -11.712 -10.890 -19.752  1.00  0.00    -0.027 A 
HETATM   31  C18 UNL     1     -11.512  -9.507 -19.853  1.00  0.00     0.009 A 
HETATM   32  C19 UNL     1     -10.304  -8.949 -19.452  1.00  0.00     0.001 A 
HETATM   33  C20 UNL     1      -9.314  -9.763 -18.962  1.00  0.00     0.001 A 
HETATM   34  C21 UNL     1      -9.483 -11.113 -18.855  1.00  0.00     0.018 A 
HETATM   35  C22 UNL     1     -10.710 -11.681 -19.263  1.00  0.00     0.046 A 
BRANCH  35  36
HETATM   36  C23 UNL     1     -10.753 -13.114 -19.179  1.00  0.00     0.294 C 
HETATM   37  O4  UNL     1     -10.908 -13.788 -18.152  1.00  0.00    -0.259 OA
BRANCH  36  38
HETATM   38  O5  UNL     1     -10.613 -13.925 -20.341  1.00  0.00    -0.308 OA
BRANCH  38  39
HETATM   39  C24 UNL     1     -11.344 -15.105 -20.534  1.00  0.00     0.283 C 
BRANCH  39  40
HETATM   40  C25 UNL     1     -12.096 -14.982 -21.805  1.00  0.00     0.260 C 
HETATM   41  O6  UNL     1     -11.851 -14.000 -22.544  1.00  0.00    -0.269 OA
HETATM   42  N6  UNL     1     -13.068 -15.919 -22.215  1.00  0.00    -0.269 N 
ATOM     43  H6  UNL     1     -13.272 -16.719 -21.616  1.00  0.00     0.190 HD
BRANCH  42  44
HETATM   44  N7  UNL     1     -13.751 -15.779 -23.409  1.00  0.00    -0.306 N 
HETATM   45  C26 UNL     1     -13.392 -16.223 -24.555  1.00  0.00     0.146 C 
ATOM     46  H7  UNL     1     -14.633 -15.267 -23.373  1.00  0.00     0.186 HD
BRANCH  45  47
HETATM   47  C27 UNL     1     -14.289 -15.949 -25.695  1.00  0.00     0.117 A 
HETATM   48  C28 UNL     1     -13.975 -16.100 -27.027  1.00  0.00     0.059 A 
HETATM   49  C29 UNL     1     -15.110 -15.730 -27.716  1.00  0.00     0.117 A 
HETATM   50  N8  UNL     1     -16.000 -15.394 -26.789  1.00  0.00    -0.272 N 
HETATM   51  O7  UNL     1     -15.517 -15.523 -25.605  1.00  0.00    -0.237 OA
ATOM     52  H8  UNL     1     -16.947 -15.074 -26.992  1.00  0.00     0.194 HD
ENDBRANCH  45  47
ENDBRANCH  42  44
ENDBRANCH  39  40
ENDBRANCH  38  39
ENDBRANCH  36  38
ENDBRANCH  35  36
ENDBRANCH  18  30
ENDBRANCH   4  18
TORSDOF 13
ENDMDL
