MODEL 1
REMARK VINA RESULT: -7.375148997      0.000      0.000
REMARK  5 active torsions:
REMARK  status: ('A' for Active; 'I' for Inactive)
REMARK    1  A    between atoms: C2_2  and  C3_3 
REMARK    2  A    between atoms: C3_3  and  C4_4 
REMARK    3  A    between atoms: C9_9  and  N1_10 
REMARK    4  A    between atoms: C11_14  and  N2_15 
REMARK    5  A    between atoms: C15_21  and  O5_22 
ROOT
HETATM    1  C4  UNL     1     -20.563 -35.395  28.209  1.00  0.00     0.086 C 
HETATM    2  C5  UNL     1     -20.759 -34.217  29.068  1.00  0.00     0.026 C 
HETATM    3  C6  UNL     1     -21.943 -33.336  28.824  1.00  0.00     0.007 C 
HETATM    4  C7  UNL     1     -23.252 -34.003  28.665  1.00  0.00     0.001 C 
HETATM    5  C8  UNL     1     -23.178 -35.511  28.892  1.00  0.00     0.066 C 
HETATM    6  C9  UNL     1     -22.736 -36.115  27.581  1.00  0.00     0.172 C 
HETATM    7  C10 UNL     1     -23.893 -36.014  26.638  1.00  0.00     0.092 C 
HETATM    8  C11 UNL     1     -24.745 -34.792  26.791  1.00  0.00     0.169 C 
HETATM    9  C12 UNL     1     -23.995 -33.632  27.401  1.00  0.00     0.054 C 
HETATM   10  C13 UNL     1     -23.077 -33.170  26.326  1.00  0.00    -0.019 A 
HETATM   11  C14 UNL     1     -23.257 -31.941  25.742  1.00  0.00     0.065 A 
HETATM   12  C15 UNL     1     -22.282 -31.768  24.780  1.00  0.00     0.140 A 
HETATM   13  N3  UNL     1     -21.528 -32.867  24.779  1.00  0.00    -0.336 N 
ATOM     14  H3  UNL     1     -20.725 -33.034  24.172  1.00  0.00     0.168 HD
HETATM   15  C16 UNL     1     -21.989 -33.707  25.693  1.00  0.00     0.056 A 
HETATM   16  C17 UNL     1     -21.316 -35.044  25.917  1.00  0.00     0.118 C 
HETATM   17  N4  UNL     1     -21.534 -35.518  27.214  1.00  0.00    -0.352 N 
ENDROOT
BRANCH   1  18
HETATM   18  C3  UNL     1     -19.143 -35.621  27.734  1.00  0.00     0.025 C 
BRANCH  18  19
HETATM   19  C2  UNL     1     -18.616 -36.998  28.029  1.00  0.00    -0.002 C 
HETATM   20  C1  UNL     1     -19.200 -37.598  29.281  1.00  0.00     0.005 C 
ENDBRANCH  18  19
ENDBRANCH   1  18
BRANCH   6  21
HETATM   21  N1  UNL     1     -22.516 -37.539  27.809  1.00  0.00    -0.124 N 
HETATM   22  O1  UNL     1     -21.920 -38.254  26.987  1.00  0.00    -0.534 OA
HETATM   23  O2  UNL     1     -22.973 -38.170  28.941  1.00  0.00    -0.534 OA
ENDBRANCH   6  21
BRANCH   8  24
HETATM   24  N2  UNL     1     -26.051 -35.020  27.337  1.00  0.00    -0.150 N 
HETATM   25  O3  UNL     1     -26.649 -36.071  27.008  1.00  0.00    -0.536 OA
HETATM   26  O4  UNL     1     -26.707 -34.189  28.177  1.00  0.00    -0.536 OA
ENDBRANCH   8  24
BRANCH  12  27
HETATM   27  O5  UNL     1     -22.121 -30.629  23.950  1.00  0.00    -0.346 OA
ATOM     28  H5  UNL     1     -21.795 -29.780  24.224  1.00  0.00     0.219 HD
ENDBRANCH  12  27
TORSDOF 5
ENDMDL
MODEL 2
REMARK VINA RESULT: -7.319318066      0.812      1.075
REMARK  5 active torsions:
REMARK  status: ('A' for Active; 'I' for Inactive)
REMARK    1  A    between atoms: C2_2  and  C3_3 
REMARK    2  A    between atoms: C3_3  and  C4_4 
REMARK    3  A    between atoms: C9_9  and  N1_10 
REMARK    4  A    between atoms: C11_14  and  N2_15 
REMARK    5  A    between atoms: C15_21  and  O5_22 
ROOT
HETATM    1  C4  UNL     1     -21.202 -34.943  28.666  1.00  0.00     0.086 C 
HETATM    2  C5  UNL     1     -21.386 -33.665  29.373  1.00  0.00     0.026 C 
HETATM    3  C6  UNL     1     -22.484 -32.750  28.931  1.00  0.00     0.007 C 
HETATM    4  C7  UNL     1     -23.817 -33.353  28.728  1.00  0.00     0.001 C 
HETATM    5  C8  UNL     1     -23.865 -34.827  29.122  1.00  0.00     0.066 C 
HETATM    6  C9  UNL     1     -23.359 -35.601  27.928  1.00  0.00     0.172 C 
HETATM    7  C10 UNL     1     -24.426 -35.540  26.881  1.00  0.00     0.092 C 
HETATM    8  C11 UNL     1     -25.202 -34.260  26.825  1.00  0.00     0.169 C 
HETATM    9  C12 UNL     1     -24.427 -33.085  27.371  1.00  0.00     0.054 C 
HETATM   10  C13 UNL     1     -23.394 -32.802  26.338  1.00  0.00    -0.019 A 
HETATM   11  C14 UNL     1     -23.442 -31.638  25.612  1.00  0.00     0.065 A 
HETATM   12  C15 UNL     1     -22.382 -31.632  24.727  1.00  0.00     0.140 A 
HETATM   13  N3  UNL     1     -21.706 -32.767  24.911  1.00  0.00    -0.336 N 
ATOM     14  H3  UNL     1     -20.870 -33.048  24.401  1.00  0.00     0.168 HD
HETATM   15  C16 UNL     1     -22.298 -33.470  25.866  1.00  0.00     0.056 A 
HETATM   16  C17 UNL     1     -21.737 -34.810  26.293  1.00  0.00     0.118 C 
HETATM   17  N4  UNL     1     -22.093 -35.120  27.608  1.00  0.00    -0.352 N 
ENDROOT
BRANCH   1  18
HETATM   18  C3  UNL     1     -19.765 -35.304  28.348  1.00  0.00     0.025 C 
BRANCH  18  19
HETATM   19  C2  UNL     1     -19.464 -36.771  28.484  1.00  0.00    -0.002 C 
HETATM   20  C1  UNL     1     -19.032 -37.408  27.189  1.00  0.00     0.005 C 
ENDBRANCH  18  19
ENDBRANCH   1  18
BRANCH   6  21
HETATM   21  N1  UNL     1     -23.256 -37.000  28.327  1.00  0.00    -0.124 N 
HETATM   22  O1  UNL     1     -23.738 -37.420  29.393  1.00  0.00    -0.534 OA
HETATM   23  O2  UNL     1     -22.603 -37.928  27.552  1.00  0.00    -0.534 OA
ENDBRANCH   6  21
BRANCH   8  24
HETATM   24  N2  UNL     1     -26.561 -34.348  27.274  1.00  0.00    -0.150 N 
HETATM   25  O3  UNL     1     -27.100 -35.479  27.291  1.00  0.00    -0.536 OA
HETATM   26  O4  UNL     1     -27.324 -33.307  27.675  1.00  0.00    -0.536 OA
ENDBRANCH   8  24
BRANCH  12  27
HETATM   27  O5  UNL     1     -22.076 -30.606  23.797  1.00  0.00    -0.346 OA
ATOM     28  H5  UNL     1     -21.489 -29.874  23.946  1.00  0.00     0.219 HD
ENDBRANCH  12  27
TORSDOF 5
ENDMDL
MODEL 3
REMARK VINA RESULT: -7.245833614      2.205      5.813
REMARK  5 active torsions:
REMARK  status: ('A' for Active; 'I' for Inactive)
REMARK    1  A    between atoms: C2_2  and  C3_3 
REMARK    2  A    between atoms: C3_3  and  C4_4 
REMARK    3  A    between atoms: C9_9  and  N1_10 
REMARK    4  A    between atoms: C11_14  and  N2_15 
REMARK    5  A    between atoms: C15_21  and  O5_22 
ROOT
HETATM    1  C4  UNL     1     -23.694 -32.950  27.130  1.00  0.00     0.086 C 
HETATM    2  C5  UNL     1     -23.882 -32.617  28.551  1.00  0.00     0.026 C 
HETATM    3  C6  UNL     1     -23.302 -33.527  29.587  1.00  0.00     0.007 C 
HETATM    4  C7  UNL     1     -21.896 -33.942  29.401  1.00  0.00     0.001 C 
HETATM    5  C8  UNL     1     -21.232 -33.262  28.207  1.00  0.00     0.066 C 
HETATM    6  C9  UNL     1     -21.609 -34.077  26.992  1.00  0.00     0.172 C 
HETATM    7  C10 UNL     1     -20.842 -35.358  27.067  1.00  0.00     0.092 C 
HETATM    8  C11 UNL     1     -20.623 -35.900  28.446  1.00  0.00     0.169 C 
HETATM    9  C12 UNL     1     -21.675 -35.438  29.426  1.00  0.00     0.054 C 
HETATM   10  C13 UNL     1     -22.901 -36.192  29.047  1.00  0.00    -0.019 A 
HETATM   11  C14 UNL     1     -23.419 -37.141  29.892  1.00  0.00     0.065 A 
HETATM   12  C15 UNL     1     -24.540 -37.688  29.299  1.00  0.00     0.140 A 
HETATM   13  N3  UNL     1     -24.698 -37.085  28.121  1.00  0.00    -0.336 N 
ATOM     14  H3  UNL     1     -25.443 -37.278  27.452  1.00  0.00     0.168 HD
HETATM   15  C16 UNL     1     -23.731 -36.194  27.960  1.00  0.00     0.056 A 
HETATM   16  C17 UNL     1     -23.666 -35.349  26.705  1.00  0.00     0.118 C 
HETATM   17  N4  UNL     1     -22.998 -34.143  26.932  1.00  0.00    -0.352 N 
ENDROOT
BRANCH   1  18
HETATM   18  C3  UNL     1     -24.922 -32.784  26.259  1.00  0.00     0.025 C 
BRANCH  18  19
HETATM   19  C2  UNL     1     -24.983 -31.465  25.541  1.00  0.00    -0.002 C 
HETATM   20  C1  UNL     1     -23.640 -31.002  25.040  1.00  0.00     0.005 C 
ENDBRANCH  18  19
ENDBRANCH   1  18
BRANCH   6  21
HETATM   21  N1  UNL     1     -21.110 -33.367  25.819  1.00  0.00    -0.124 N 
HETATM   22  O1  UNL     1     -21.379 -33.733  24.663  1.00  0.00    -0.534 OA
HETATM   23  O2  UNL     1     -20.299 -32.264  25.931  1.00  0.00    -0.534 OA
ENDBRANCH   6  21
BRANCH   8  24
HETATM   24  N2  UNL     1     -19.275 -35.824  28.927  1.00  0.00    -0.150 N 
HETATM   25  O3  UNL     1     -18.357 -35.716  28.082  1.00  0.00    -0.536 OA
HETATM   26  O4  UNL     1     -18.902 -35.870  30.225  1.00  0.00    -0.536 OA
ENDBRANCH   8  24
BRANCH  12  27
HETATM   27  O5  UNL     1     -25.364 -38.703  29.848  1.00  0.00    -0.346 OA
ATOM     28  H5  UNL     1     -25.909 -39.307  29.358  1.00  0.00     0.219 HD
ENDBRANCH  12  27
TORSDOF 5
ENDMDL
MODEL 4
REMARK VINA RESULT: -7.082526255      2.512      5.391
REMARK  5 active torsions:
REMARK  status: ('A' for Active; 'I' for Inactive)
REMARK    1  A    between atoms: C2_2  and  C3_3 
REMARK    2  A    between atoms: C3_3  and  C4_4 
REMARK    3  A    between atoms: C9_9  and  N1_10 
REMARK    4  A    between atoms: C11_14  and  N2_15 
REMARK    5  A    between atoms: C15_21  and  O5_22 
ROOT
HETATM    1  C4  UNL     1     -22.874 -33.976  26.812  1.00  0.00     0.086 C 
HETATM    2  C5  UNL     1     -23.478 -35.272  26.465  1.00  0.00     0.026 C 
HETATM    3  C6  UNL     1     -23.016 -36.498  27.187  1.00  0.00     0.007 C 
HETATM    4  C7  UNL     1     -22.935 -36.417  28.660  1.00  0.00     0.001 C 
HETATM    5  C8  UNL     1     -23.455 -35.091  29.208  1.00  0.00     0.066 C 
HETATM    6  C9  UNL     1     -22.306 -34.114  29.113  1.00  0.00     0.172 C 
HETATM    7  C10 UNL     1     -21.314 -34.500  30.164  1.00  0.00     0.092 C 
HETATM    8  C11 UNL     1     -21.189 -35.969  30.425  1.00  0.00     0.169 C 
HETATM    9  C12 UNL     1     -21.592 -36.808  29.236  1.00  0.00     0.054 C 
HETATM   10  C13 UNL     1     -20.487 -36.629  28.256  1.00  0.00    -0.019 A 
HETATM   11  C14 UNL     1     -19.668 -37.682  27.935  1.00  0.00     0.065 A 
HETATM   12  C15 UNL     1     -18.733 -37.244  27.018  1.00  0.00     0.140 A 
HETATM   13  N3  UNL     1     -18.978 -35.954  26.788  1.00  0.00    -0.336 N 
ATOM     14  H3  UNL     1     -18.451 -35.355  26.154  1.00  0.00     0.168 HD
HETATM   15  C16 UNL     1     -20.019 -35.577  27.517  1.00  0.00     0.056 A 
HETATM   16  C17 UNL     1     -20.528 -34.153  27.449  1.00  0.00     0.118 C 
HETATM   17  N4  UNL     1     -21.882 -34.076  27.788  1.00  0.00    -0.352 N 
ENDROOT
BRANCH   1  18
HETATM   18  C3  UNL     1     -22.514 -33.094  25.635  1.00  0.00     0.025 C 
BRANCH  18  19
HETATM   19  C2  UNL     1     -23.210 -31.761  25.640  1.00  0.00    -0.002 C 
HETATM   20  C1  UNL     1     -24.675 -31.862  25.977  1.00  0.00     0.005 C 
ENDBRANCH  18  19
ENDBRANCH   1  18
BRANCH   6  21
HETATM   21  N1  UNL     1     -22.817 -32.802  29.493  1.00  0.00    -0.124 N 
HETATM   22  O1  UNL     1     -22.064 -31.865  29.804  1.00  0.00    -0.534 OA
HETATM   23  O2  UNL     1     -24.165 -32.537  29.545  1.00  0.00    -0.534 OA
ENDBRANCH   6  21
BRANCH   8  24
HETATM   24  N2  UNL     1     -21.713 -36.414  31.683  1.00  0.00    -0.150 N 
HETATM   25  O3  UNL     1     -21.064 -36.137  32.719  1.00  0.00    -0.536 OA
HETATM   26  O4  UNL     1     -22.851 -37.123  31.853  1.00  0.00    -0.536 OA
ENDBRANCH   8  24
BRANCH  12  27
HETATM   27  O5  UNL     1     -17.705 -38.028  26.435  1.00  0.00    -0.346 OA
ATOM     28  H5  UNL     1     -16.785 -38.006  26.669  1.00  0.00     0.219 HD
ENDBRANCH  12  27
TORSDOF 5
ENDMDL
MODEL 5
REMARK VINA RESULT: -7.052072103      1.857      4.691
REMARK  5 active torsions:
REMARK  status: ('A' for Active; 'I' for Inactive)
REMARK    1  A    between atoms: C2_2  and  C3_3 
REMARK    2  A    between atoms: C3_3  and  C4_4 
REMARK    3  A    between atoms: C9_9  and  N1_10 
REMARK    4  A    between atoms: C11_14  and  N2_15 
REMARK    5  A    between atoms: C15_21  and  O5_22 
ROOT
HETATM    1  C4  UNL     1     -23.255 -35.867  29.839  1.00  0.00     0.086 C 
HETATM    2  C5  UNL     1     -22.130 -35.245  30.555  1.00  0.00     0.026 C 
HETATM    3  C6  UNL     1     -21.036 -34.607  29.761  1.00  0.00     0.007 C 
HETATM    4  C7  UNL     1     -21.444 -33.691  28.675  1.00  0.00     0.001 C 
HETATM    5  C8  UNL     1     -22.953 -33.469  28.625  1.00  0.00     0.066 C 
HETATM    6  C9  UNL     1     -23.525 -34.623  27.836  1.00  0.00     0.172 C 
HETATM    7  C10 UNL     1     -23.146 -34.407  26.405  1.00  0.00     0.092 C 
HETATM    8  C11 UNL     1     -21.807 -33.776  26.180  1.00  0.00     0.169 C 
HETATM    9  C12 UNL     1     -20.850 -34.018  27.323  1.00  0.00     0.054 C 
HETATM   10  C13 UNL     1     -20.479 -35.455  27.206  1.00  0.00    -0.019 A 
HETATM   11  C14 UNL     1     -19.196 -35.813  26.874  1.00  0.00     0.065 A 
HETATM   12  C15 UNL     1     -19.127 -37.192  26.827  1.00  0.00     0.140 A 
HETATM   13  N3  UNL     1     -20.341 -37.659  27.122  1.00  0.00    -0.336 N 
ATOM     14  H3  UNL     1     -20.602 -38.644  27.167  1.00  0.00     0.168 HD
HETATM   15  C16 UNL     1     -21.152 -36.636  27.350  1.00  0.00     0.056 A 
HETATM   16  C17 UNL     1     -22.601 -36.873  27.718  1.00  0.00     0.118 C 
HETATM   17  N4  UNL     1     -23.126 -35.805  28.452  1.00  0.00    -0.352 N 
ENDROOT
BRANCH   1  18
HETATM   18  C3  UNL     1     -23.696 -37.215  30.372  1.00  0.00     0.025 C 
BRANCH  18  19
HETATM   19  C2  UNL     1     -25.187 -37.365  30.488  1.00  0.00    -0.002 C 
HETATM   20  C1  UNL     1     -25.795 -38.128  29.341  1.00  0.00     0.005 C 
ENDBRANCH  18  19
ENDBRANCH   1  18
BRANCH   6  21
HETATM   21  N1  UNL     1     -24.978 -34.515  27.897  1.00  0.00    -0.124 N 
HETATM   22  O1  UNL     1     -25.723 -35.243  27.220  1.00  0.00    -0.534 OA
HETATM   23  O2  UNL     1     -25.603 -33.587  28.695  1.00  0.00    -0.534 OA
ENDBRANCH   6  21
BRANCH   8  24
HETATM   24  N2  UNL     1     -21.838 -32.427  25.695  1.00  0.00    -0.150 N 
HETATM   25  O3  UNL     1     -20.802 -31.975  25.155  1.00  0.00    -0.536 OA
HETATM   26  O4  UNL     1     -22.894 -31.588  25.777  1.00  0.00    -0.536 OA
ENDBRANCH   8  24
BRANCH  12  27
HETATM   27  O5  UNL     1     -17.976 -37.960  26.519  1.00  0.00    -0.346 OA
ATOM     28  H5  UNL     1     -17.800 -38.398  25.695  1.00  0.00     0.219 HD
ENDBRANCH  12  27
TORSDOF 5
ENDMDL
