MODEL 1
REMARK VINA RESULT: -8.181273689      0.000      0.000
REMARK  7 active torsions:
REMARK  status: ('A' for Active; 'I' for Inactive)
REMARK    1  A    between atoms: C2_2  and  C19_27 
REMARK    2  A    between atoms: C3_3  and  C4_4 
REMARK    3  A    between atoms: C4_4  and  C5_5 
REMARK    4  A    between atoms: C7_7  and  C9_9 
REMARK    5  A    between atoms: C9_9  and  O1_10 
REMARK    6  A    between atoms: C13_17  and  O4_18 
REMARK    7  A    between atoms: C16_22  and  C18_24 
ROOT
HETATM    1  C5  UNL     1     -24.262 -35.129  27.814  1.00  0.00     0.052 C 
HETATM    2  C6  UNL     1     -23.651 -33.798  28.157  1.00  0.00     0.003 C 
HETATM    3  C7  UNL     1     -22.866 -33.581  29.157  1.00  0.00    -0.050 C 
HETATM    4  C8  UNL     1     -22.334 -32.200  29.377  1.00  0.00     0.046 C 
HETATM    5  C10 UNL     1     -24.008 -32.717  27.213  1.00  0.00     0.192 C 
HETATM    6  O2  UNL     1     -23.287 -31.726  27.002  1.00  0.00    -0.287 OA
HETATM    7  C11 UNL     1     -25.254 -32.811  26.497  1.00  0.00     0.056 A 
HETATM    8  C12 UNL     1     -26.083 -33.893  26.699  1.00  0.00     0.090 A 
HETATM    9  O3  UNL     1     -27.147 -33.763  25.962  1.00  0.00    -0.290 OA
HETATM   10  C13 UNL     1     -27.067 -32.655  25.284  1.00  0.00     0.190 A 
HETATM   11  C14 UNL     1     -25.901 -31.992  25.564  1.00  0.00     0.013 A 
HETATM   12  C15 UNL     1     -25.342 -30.728  25.077  1.00  0.00     0.054 C 
HETATM   13  C16 UNL     1     -25.733 -34.992  27.632  1.00  0.00     0.103 C 
HETATM   14  C17 UNL     1     -26.496 -36.215  27.261  1.00  0.00     0.035 C 
ENDROOT
BRANCH   1  15
HETATM   15  C4  UNL     1     -23.499 -35.584  26.606  1.00  0.00     0.038 C 
BRANCH  15  16
HETATM   16  C3  UNL     1     -22.214 -36.266  26.827  1.00  0.00    -0.023 C 
HETATM   17  C2  UNL     1     -21.043 -35.715  26.463  1.00  0.00    -0.084 C 
HETATM   18  C1  UNL     1     -21.063 -34.389  25.823  1.00  0.00     0.043 C 
BRANCH  17  19
HETATM   19  C19 UNL     1     -19.772 -36.410  26.691  1.00  0.00     0.005 C 
HETATM   20  C20 UNL     1     -18.758 -35.558  27.426  1.00  0.00     0.014 C 
HETATM   21  C21 UNL     1     -19.982 -37.670  27.534  1.00  0.00     0.014 C 
ENDBRANCH  17  19
ENDBRANCH  15  16
ENDBRANCH   1  15
BRANCH  13  22
HETATM   22  C18 UNL     1     -26.308 -34.546  28.962  1.00  0.00     0.189 C 
HETATM   23  O5  UNL     1     -26.478 -33.334  29.249  1.00  0.00    -0.647 OA
HETATM   24  O6  UNL     1     -26.659 -35.493  29.897  1.00  0.00    -0.647 OA
ENDBRANCH  13  22
BRANCH   3  25
HETATM   25  C9  UNL     1     -22.418 -34.596  30.119  1.00  0.00     0.198 C 
BRANCH  25  26
HETATM   26  O1  UNL     1     -22.262 -34.036  31.410  1.00  0.00    -0.397 OA
ATOM     27  H1  UNL     1     -21.848 -34.654  32.001  1.00  0.00     0.209 HD
ENDBRANCH  25  26
ENDBRANCH   3  25
BRANCH  10  28
HETATM   28  O4  UNL     1     -28.018 -32.183  24.392  1.00  0.00    -0.340 OA
ATOM     29  H4  UNL     1     -28.544 -31.400  24.507  1.00  0.00     0.220 HD
ENDBRANCH  10  28
TORSDOF 7
ENDMDL
MODEL 2
REMARK VINA RESULT: -7.263025680      1.241      1.625
REMARK  7 active torsions:
REMARK  status: ('A' for Active; 'I' for Inactive)
REMARK    1  A    between atoms: C2_2  and  C19_27 
REMARK    2  A    between atoms: C3_3  and  C4_4 
REMARK    3  A    between atoms: C4_4  and  C5_5 
REMARK    4  A    between atoms: C7_7  and  C9_9 
REMARK    5  A    between atoms: C9_9  and  O1_10 
REMARK    6  A    between atoms: C13_17  and  O4_18 
REMARK    7  A    between atoms: C16_22  and  C18_24 
ROOT
HETATM    1  C5  UNL     1     -24.013 -35.570  28.017  1.00  0.00     0.052 C 
HETATM    2  C6  UNL     1     -23.998 -34.073  28.162  1.00  0.00     0.003 C 
HETATM    3  C7  UNL     1     -23.280 -33.420  29.011  1.00  0.00    -0.050 C 
HETATM    4  C8  UNL     1     -23.371 -31.927  29.044  1.00  0.00     0.046 C 
HETATM    5  C10 UNL     1     -24.884 -33.373  27.207  1.00  0.00     0.192 C 
HETATM    6  O2  UNL     1     -24.684 -32.210  26.814  1.00  0.00    -0.287 OA
HETATM    7  C11 UNL     1     -26.037 -34.069  26.700  1.00  0.00     0.056 A 
HETATM    8  C12 UNL     1     -26.296 -35.360  27.106  1.00  0.00     0.090 A 
HETATM    9  O3  UNL     1     -27.385 -35.781  26.533  1.00  0.00    -0.290 OA
HETATM   10  C13 UNL     1     -27.861 -34.840  25.771  1.00  0.00     0.190 A 
HETATM   11  C14 UNL     1     -27.069 -33.723  25.818  1.00  0.00     0.013 A 
HETATM   12  C15 UNL     1     -27.162 -32.417  25.159  1.00  0.00     0.054 C 
HETATM   13  C16 UNL     1     -25.411 -36.081  28.053  1.00  0.00     0.103 C 
HETATM   14  C17 UNL     1     -25.611 -37.547  27.895  1.00  0.00     0.035 C 
ENDROOT
BRANCH   1  15
HETATM   15  C4  UNL     1     -23.263 -35.823  26.743  1.00  0.00     0.038 C 
BRANCH  15  16
HETATM   16  C3  UNL     1     -21.798 -35.681  26.773  1.00  0.00    -0.023 C 
HETATM   17  C2  UNL     1     -20.987 -36.725  27.012  1.00  0.00    -0.084 C 
HETATM   18  C1  UNL     1     -21.596 -38.044  27.251  1.00  0.00     0.043 C 
BRANCH  17  19
HETATM   19  C19 UNL     1     -19.529 -36.565  27.039  1.00  0.00     0.005 C 
HETATM   20  C20 UNL     1     -19.097 -35.134  27.284  1.00  0.00     0.014 C 
HETATM   21  C21 UNL     1     -18.908 -37.409  28.155  1.00  0.00     0.014 C 
ENDBRANCH  17  19
ENDBRANCH  15  16
ENDBRANCH   1  15
BRANCH  13  22
HETATM   22  C18 UNL     1     -25.975 -35.742  29.418  1.00  0.00     0.189 C 
HETATM   23  O5  UNL     1     -26.804 -34.813  29.592  1.00  0.00    -0.647 OA
HETATM   24  O6  UNL     1     -25.570 -36.469  30.515  1.00  0.00    -0.647 OA
ENDBRANCH  13  22
BRANCH   3  25
HETATM   25  C9  UNL     1     -22.340 -34.021  29.966  1.00  0.00     0.198 C 
BRANCH  25  26
HETATM   26  O1  UNL     1     -22.421 -33.383  31.226  1.00  0.00    -0.397 OA
ATOM     27  H1  UNL     1     -22.115 -33.958  31.919  1.00  0.00     0.209 HD
ENDBRANCH  25  26
ENDBRANCH   3  25
BRANCH  10  28
HETATM   28  O4  UNL     1     -29.013 -34.927  25.002  1.00  0.00    -0.340 OA
ATOM     29  H4  UNL     1     -29.334 -34.258  24.409  1.00  0.00     0.220 HD
ENDBRANCH  10  28
TORSDOF 7
ENDMDL
MODEL 3
REMARK VINA RESULT: -7.005695278      2.591      5.108
REMARK  7 active torsions:
REMARK  status: ('A' for Active; 'I' for Inactive)
REMARK    1  A    between atoms: C2_2  and  C19_27 
REMARK    2  A    between atoms: C3_3  and  C4_4 
REMARK    3  A    between atoms: C4_4  and  C5_5 
REMARK    4  A    between atoms: C7_7  and  C9_9 
REMARK    5  A    between atoms: C9_9  and  O1_10 
REMARK    6  A    between atoms: C13_17  and  O4_18 
REMARK    7  A    between atoms: C16_22  and  C18_24 
ROOT
HETATM    1  C5  UNL     1     -20.944 -35.199  28.383  1.00  0.00     0.052 C 
HETATM    2  C6  UNL     1     -21.327 -35.869  29.674  1.00  0.00     0.003 C 
HETATM    3  C7  UNL     1     -20.493 -36.310  30.554  1.00  0.00    -0.050 C 
HETATM    4  C8  UNL     1     -21.021 -36.959  31.794  1.00  0.00     0.046 C 
HETATM    5  C10 UNL     1     -22.788 -35.970  29.883  1.00  0.00     0.192 C 
HETATM    6  O2  UNL     1     -23.317 -36.019  31.008  1.00  0.00    -0.287 OA
HETATM    7  C11 UNL     1     -23.647 -36.011  28.729  1.00  0.00     0.056 A 
HETATM    8  C12 UNL     1     -23.104 -35.957  27.464  1.00  0.00     0.090 A 
HETATM    9  O3  UNL     1     -24.059 -36.020  26.582  1.00  0.00    -0.290 OA
HETATM   10  C13 UNL     1     -25.203 -36.113  27.195  1.00  0.00     0.190 A 
HETATM   11  C14 UNL     1     -25.033 -36.114  28.555  1.00  0.00     0.013 A 
HETATM   12  C15 UNL     1     -25.982 -36.197  29.669  1.00  0.00     0.054 C 
HETATM   13  C16 UNL     1     -21.642 -35.844  27.238  1.00  0.00     0.103 C 
HETATM   14  C17 UNL     1     -21.396 -35.284  25.880  1.00  0.00     0.035 C 
ENDROOT
BRANCH   1  15
HETATM   15  C4  UNL     1     -21.268 -33.752  28.610  1.00  0.00     0.038 C 
BRANCH  15  16
HETATM   16  C3  UNL     1     -21.978 -33.036  27.538  1.00  0.00    -0.023 C 
HETATM   17  C2  UNL     1     -23.154 -32.422  27.750  1.00  0.00    -0.084 C 
HETATM   18  C1  UNL     1     -23.739 -32.477  29.101  1.00  0.00     0.043 C 
BRANCH  17  19
HETATM   19  C19 UNL     1     -23.848 -31.713  26.671  1.00  0.00     0.005 C 
HETATM   20  C20 UNL     1     -23.012 -31.589  25.414  1.00  0.00     0.014 C 
HETATM   21  C21 UNL     1     -25.133 -32.446  26.274  1.00  0.00     0.014 C 
ENDBRANCH  17  19
ENDBRANCH  15  16
ENDBRANCH   1  15
BRANCH  13  22
HETATM   22  C18 UNL     1     -21.164 -37.280  27.174  1.00  0.00     0.189 C 
HETATM   23  O5  UNL     1     -21.960 -38.253  27.121  1.00  0.00    -0.647 OA
HETATM   24  O6  UNL     1     -19.813 -37.543  27.176  1.00  0.00    -0.647 OA
ENDBRANCH  13  22
BRANCH   3  25
HETATM   25  C9  UNL     1     -19.031 -36.215  30.458  1.00  0.00     0.198 C 
BRANCH  25  26
HETATM   26  O1  UNL     1     -18.511 -35.373  31.470  1.00  0.00    -0.397 OA
ATOM     27  H1  UNL     1     -17.562 -35.332  31.424  1.00  0.00     0.209 HD
ENDBRANCH  25  26
ENDBRANCH   3  25
BRANCH  10  28
HETATM   28  O4  UNL     1     -26.444 -36.200  26.581  1.00  0.00    -0.340 OA
ATOM     29  H4  UNL     1     -27.270 -36.360  27.023  1.00  0.00     0.220 HD
ENDBRANCH  10  28
TORSDOF 7
ENDMDL
MODEL 4
REMARK VINA RESULT: -6.991349018      2.463      6.123
REMARK  7 active torsions:
REMARK  status: ('A' for Active; 'I' for Inactive)
REMARK    1  A    between atoms: C2_2  and  C19_27 
REMARK    2  A    between atoms: C3_3  and  C4_4 
REMARK    3  A    between atoms: C4_4  and  C5_5 
REMARK    4  A    between atoms: C7_7  and  C9_9 
REMARK    5  A    between atoms: C9_9  and  O1_10 
REMARK    6  A    between atoms: C13_17  and  O4_18 
REMARK    7  A    between atoms: C16_22  and  C18_24 
ROOT
HETATM    1  C5  UNL     1     -23.609 -34.372  28.372  1.00  0.00     0.052 C 
HETATM    2  C6  UNL     1     -23.721 -35.861  28.555  1.00  0.00     0.003 C 
HETATM    3  C7  UNL     1     -24.710 -36.464  29.121  1.00  0.00    -0.050 C 
HETATM    4  C8  UNL     1     -24.683 -37.955  29.235  1.00  0.00     0.046 C 
HETATM    5  C10 UNL     1     -22.581 -36.617  27.995  1.00  0.00     0.192 C 
HETATM    6  O2  UNL     1     -22.667 -37.793  27.597  1.00  0.00    -0.287 OA
HETATM    7  C11 UNL     1     -21.301 -35.964  27.899  1.00  0.00     0.056 A 
HETATM    8  C12 UNL     1     -21.160 -34.661  28.325  1.00  0.00     0.090 A 
HETATM    9  O3  UNL     1     -19.926 -34.284  28.155  1.00  0.00    -0.290 OA
HETATM   10  C13 UNL     1     -19.245 -35.266  27.641  1.00  0.00     0.190 A 
HETATM   11  C14 UNL     1     -20.038 -36.366  27.447  1.00  0.00     0.013 A 
HETATM   12  C15 UNL     1     -19.762 -37.701  26.907  1.00  0.00     0.054 C 
HETATM   13  C16 UNL     1     -22.297 -33.885  28.878  1.00  0.00     0.103 C 
HETATM   14  C17 UNL     1     -22.008 -32.430  28.749  1.00  0.00     0.035 C 
ENDROOT
BRANCH   1  15
HETATM   15  C4  UNL     1     -23.860 -34.161  26.909  1.00  0.00     0.038 C 
BRANCH  15  16
HETATM   16  C3  UNL     1     -25.116 -33.501  26.519  1.00  0.00    -0.023 C 
HETATM   17  C2  UNL     1     -25.131 -32.323  25.875  1.00  0.00    -0.084 C 
HETATM   18  C1  UNL     1     -23.843 -31.682  25.558  1.00  0.00     0.043 C 
BRANCH  17  19
HETATM   19  C19 UNL     1     -26.392 -31.679  25.494  1.00  0.00     0.005 C 
HETATM   20  C20 UNL     1     -26.226 -30.668  24.379  1.00  0.00     0.014 C 
HETATM   21  C21 UNL     1     -27.406 -32.715  25.001  1.00  0.00     0.014 C 
ENDBRANCH  17  19
ENDBRANCH  15  16
ENDBRANCH   1  15
BRANCH  13  22
HETATM   22  C18 UNL     1     -22.255 -34.174  30.365  1.00  0.00     0.189 C 
HETATM   23  O5  UNL     1     -22.856 -33.459  31.207  1.00  0.00    -0.647 OA
HETATM   24  O6  UNL     1     -21.536 -35.255  30.822  1.00  0.00    -0.647 OA
ENDBRANCH  13  22
BRANCH   3  25
HETATM   25  C9  UNL     1     -25.905 -35.806  29.666  1.00  0.00     0.198 C 
BRANCH  25  26
HETATM   26  O1  UNL     1     -26.294 -36.396  30.892  1.00  0.00    -0.397 OA
ATOM     27  H1  UNL     1     -25.642 -36.240  31.566  1.00  0.00     0.209 HD
ENDBRANCH  25  26
ENDBRANCH   3  25
BRANCH  10  28
HETATM   28  O4  UNL     1     -17.895 -35.233  27.321  1.00  0.00    -0.340 OA
ATOM     29  H4  UNL     1     -17.438 -35.868  26.783  1.00  0.00     0.220 HD
ENDBRANCH  10  28
TORSDOF 7
ENDMDL
MODEL 5
REMARK VINA RESULT: -6.860540623      2.095      5.873
REMARK  7 active torsions:
REMARK  status: ('A' for Active; 'I' for Inactive)
REMARK    1  A    between atoms: C2_2  and  C19_27 
REMARK    2  A    between atoms: C3_3  and  C4_4 
REMARK    3  A    between atoms: C4_4  and  C5_5 
REMARK    4  A    between atoms: C7_7  and  C9_9 
REMARK    5  A    between atoms: C9_9  and  O1_10 
REMARK    6  A    between atoms: C13_17  and  O4_18 
REMARK    7  A    between atoms: C16_22  and  C18_24 
ROOT
HETATM    1  C5  UNL     1     -25.031 -33.706  27.619  1.00  0.00     0.052 C 
HETATM    2  C6  UNL     1     -24.671 -35.087  28.093  1.00  0.00     0.003 C 
HETATM    3  C7  UNL     1     -25.397 -35.814  28.872  1.00  0.00    -0.050 C 
HETATM    4  C8  UNL     1     -24.908 -37.172  29.264  1.00  0.00     0.046 C 
HETATM    5  C10 UNL     1     -23.383 -35.583  27.560  1.00  0.00     0.192 C 
HETATM    6  O2  UNL     1     -23.125 -36.790  27.406  1.00  0.00    -0.287 OA
HETATM    7  C11 UNL     1     -22.373 -34.624  27.197  1.00  0.00     0.056 A 
HETATM    8  C12 UNL     1     -22.617 -33.276  27.349  1.00  0.00     0.090 A 
HETATM    9  O3  UNL     1     -21.569 -32.604  26.971  1.00  0.00    -0.290 OA
HETATM   10  C13 UNL     1     -20.646 -33.433  26.578  1.00  0.00     0.190 A 
HETATM   11  C14 UNL     1     -21.072 -34.730  26.689  1.00  0.00     0.013 A 
HETATM   12  C15 UNL     1     -20.428 -36.011  26.385  1.00  0.00     0.054 C 
HETATM   13  C16 UNL     1     -23.908 -32.762  27.869  1.00  0.00     0.103 C 
HETATM   14  C17 UNL     1     -24.087 -31.350  27.434  1.00  0.00     0.035 C 
ENDROOT
BRANCH   1  15
HETATM   15  C4  UNL     1     -25.409 -33.898  26.180  1.00  0.00     0.038 C 
BRANCH  15  16
HETATM   16  C3  UNL     1     -26.820 -33.699  25.811  1.00  0.00    -0.023 C 
HETATM   17  C2  UNL     1     -27.227 -32.636  25.099  1.00  0.00    -0.084 C 
HETATM   18  C1  UNL     1     -26.219 -31.645  24.682  1.00  0.00     0.043 C 
BRANCH  17  19
HETATM   19  C19 UNL     1     -28.637 -32.453  24.741  1.00  0.00     0.005 C 
HETATM   20  C20 UNL     1     -28.857 -32.346  23.247  1.00  0.00     0.014 C 
HETATM   21  C21 UNL     1     -29.480 -33.636  25.226  1.00  0.00     0.014 C 
ENDBRANCH  17  19
ENDBRANCH  15  16
ENDBRANCH   1  15
BRANCH  13  22
HETATM   22  C18 UNL     1     -23.704 -32.699  29.369  1.00  0.00     0.189 C 
HETATM   23  O5  UNL     1     -22.571 -32.830  29.901  1.00  0.00    -0.647 OA
HETATM   24  O6  UNL     1     -24.789 -32.493  30.190  1.00  0.00    -0.647 OA
ENDBRANCH  13  22
BRANCH   3  25
HETATM   25  C9  UNL     1     -26.707 -35.429  29.414  1.00  0.00     0.198 C 
BRANCH  25  26
HETATM   26  O1  UNL     1     -26.933 -36.036  30.672  1.00  0.00    -0.397 OA
ATOM     27  H1  UNL     1     -27.842 -36.296  30.765  1.00  0.00     0.209 HD
ENDBRANCH  25  26
ENDBRANCH   3  25
BRANCH  10  28
HETATM   28  O4  UNL     1     -19.390 -33.079  26.107  1.00  0.00    -0.340 OA
ATOM     29  H4  UNL     1     -18.723 -32.618  26.601  1.00  0.00     0.220 HD
ENDBRANCH  10  28
TORSDOF 7
ENDMDL
