MODEL 1
REMARK VINA RESULT: -7.416802676      0.000      0.000
REMARK  7 active torsions:
REMARK  status: ('A' for Active; 'I' for Inactive)
REMARK    1  A    between atoms: C2_2  and  C4_4 
REMARK    2  A    between atoms: C13_14  and  C14_15 
REMARK    3  A    between atoms: C14_15  and  O2_16 
REMARK    4  A    between atoms: C14_15  and  C15_18 
REMARK    5  A    between atoms: C15_18  and  N1_19 
REMARK    6  A    between atoms: C15_18  and  C16_23 
REMARK    7  A    between atoms: C18_26  and  O4_27 
ROOT
HETATM    1  C4  UNL     1     -21.513 -35.699  28.008  1.00  0.00     0.022 C 
HETATM    2  C5  UNL     1     -20.366 -34.719  27.726  1.00  0.00     0.010 C 
HETATM    3  C6  UNL     1     -21.102 -33.606  27.022  1.00  0.00     0.010 C 
HETATM    4  C7  UNL     1     -22.287 -33.500  28.003  1.00  0.00     0.023 C 
HETATM    5  C8  UNL     1     -23.203 -32.419  27.725  1.00  0.00    -0.077 C 
HETATM    6  C9  UNL     1     -23.632 -31.807  28.827  1.00  0.00     0.015 C 
HETATM    7  C10 UNL     1     -23.866 -31.723  26.552  1.00  0.00     0.117 C 
HETATM    8  C11 UNL     1     -25.137 -32.458  26.296  1.00  0.00     0.167 C 
HETATM    9  O1  UNL     1     -25.986 -31.821  25.615  1.00  0.00    -0.292 OA
HETATM   10  C12 UNL     1     -25.671 -33.772  26.642  1.00  0.00     0.058 A 
HETATM   11  C13 UNL     1     -27.013 -33.958  26.759  1.00  0.00     0.124 A 
HETATM   12  O3  UNL     1     -27.144 -35.266  27.068  1.00  0.00    -0.284 OA
HETATM   13  C18 UNL     1     -26.013 -35.869  27.146  1.00  0.00     0.191 A 
HETATM   14  C19 UNL     1     -25.008 -34.972  26.884  1.00  0.00     0.018 A 
HETATM   15  C20 UNL     1     -23.606 -35.349  26.895  1.00  0.00     0.055 C 
HETATM   16  C21 UNL     1     -22.788 -34.894  28.065  1.00  0.00    -0.025 C 
HETATM   17  C22 UNL     1     -23.508 -35.175  29.355  1.00  0.00     0.017 C 
ENDROOT
BRANCH  11  18
HETATM   18  C14 UNL     1     -28.081 -33.000  26.600  1.00  0.00     0.108 C 
BRANCH  18  19
HETATM   19  O2  UNL     1     -28.834 -32.588  27.662  1.00  0.00    -0.360 OA
ATOM     20  H2  UNL     1     -29.444 -31.864  27.587  1.00  0.00     0.217 HD
ENDBRANCH  18  19
BRANCH  18  21
HETATM   21  C15 UNL     1     -28.912 -33.233  25.340  1.00  0.00     0.242 C 
BRANCH  21  22
HETATM   22  N1  UNL     1     -28.111 -33.862  24.321  1.00  0.00    -0.069 N 
ATOM     23  H13 UNL     1     -28.327 -33.502  23.391  1.00  0.00     0.275 HD
ATOM     24  H12 UNL     1     -27.135 -33.571  24.372  1.00  0.00     0.275 HD
ATOM     25  H11 UNL     1     -28.208 -34.876  24.368  1.00  0.00     0.275 HD
ENDBRANCH  21  22
BRANCH  21  26
HETATM   26  C16 UNL     1     -30.101 -34.136  25.581  1.00  0.00     0.035 C 
HETATM   27  C17 UNL     1     -30.021 -35.439  24.819  1.00  0.00     0.007 C 
ENDBRANCH  21  26
ENDBRANCH  18  21
ENDBRANCH  11  18
BRANCH  13  28
HETATM   28  O4  UNL     1     -25.777 -37.199  27.441  1.00  0.00    -0.340 OA
ATOM     29  H4  UNL     1     -25.154 -37.787  27.030  1.00  0.00     0.220 HD
ENDBRANCH  13  28
BRANCH   1  30
HETATM   30  C2  UNL     1     -21.219 -36.538  29.161  1.00  0.00    -0.088 C 
HETATM   31  C1  UNL     1     -21.599 -37.809  29.179  1.00  0.00     0.014 C 
HETATM   32  C3  UNL     1     -20.453 -36.026  30.318  1.00  0.00     0.043 C 
ENDBRANCH   1  30
TORSDOF 7
ENDMDL
MODEL 2
REMARK VINA RESULT: -7.264389995      0.797      1.104
REMARK  7 active torsions:
REMARK  status: ('A' for Active; 'I' for Inactive)
REMARK    1  A    between atoms: C2_2  and  C4_4 
REMARK    2  A    between atoms: C13_14  and  C14_15 
REMARK    3  A    between atoms: C14_15  and  O2_16 
REMARK    4  A    between atoms: C14_15  and  C15_18 
REMARK    5  A    between atoms: C15_18  and  N1_19 
REMARK    6  A    between atoms: C15_18  and  C16_23 
REMARK    7  A    between atoms: C18_26  and  O4_27 
ROOT
HETATM    1  C4  UNL     1     -21.563 -35.928  28.387  1.00  0.00     0.022 C 
HETATM    2  C5  UNL     1     -20.373 -34.980  28.186  1.00  0.00     0.010 C 
HETATM    3  C6  UNL     1     -21.024 -33.858  27.416  1.00  0.00     0.010 C 
HETATM    4  C7  UNL     1     -22.278 -33.710  28.301  1.00  0.00     0.023 C 
HETATM    5  C8  UNL     1     -23.141 -32.611  27.941  1.00  0.00    -0.077 C 
HETATM    6  C9  UNL     1     -23.639 -31.976  29.000  1.00  0.00     0.015 C 
HETATM    7  C10 UNL     1     -23.693 -31.912  26.713  1.00  0.00     0.117 C 
HETATM    8  C11 UNL     1     -24.959 -32.618  26.366  1.00  0.00     0.167 C 
HETATM    9  O1  UNL     1     -25.735 -31.969  25.615  1.00  0.00    -0.292 OA
HETATM   10  C12 UNL     1     -25.551 -33.915  26.681  1.00  0.00     0.058 A 
HETATM   11  C13 UNL     1     -26.903 -34.066  26.695  1.00  0.00     0.124 A 
HETATM   12  O3  UNL     1     -27.091 -35.366  27.006  1.00  0.00    -0.284 OA
HETATM   13  C18 UNL     1     -25.986 -35.996  27.178  1.00  0.00     0.191 A 
HETATM   14  C19 UNL     1     -24.940 -35.127  26.986  1.00  0.00     0.018 A 
HETATM   15  C20 UNL     1     -23.553 -35.539  27.110  1.00  0.00     0.055 C 
HETATM   16  C21 UNL     1     -22.818 -35.092  28.336  1.00  0.00    -0.025 C 
HETATM   17  C22 UNL     1     -23.643 -35.340  29.568  1.00  0.00     0.017 C 
ENDROOT
BRANCH  11  18
HETATM   18  C14 UNL     1     -27.931 -33.083  26.444  1.00  0.00     0.108 C 
BRANCH  18  19
HETATM   19  O2  UNL     1     -28.759 -32.648  27.438  1.00  0.00    -0.360 OA
ATOM     20  H2  UNL     1     -28.971 -31.727  27.539  1.00  0.00     0.217 HD
ENDBRANCH  18  19
BRANCH  18  21
HETATM   21  C15 UNL     1     -28.659 -33.304  25.120  1.00  0.00     0.242 C 
BRANCH  21  22
HETATM   22  N1  UNL     1     -29.966 -33.863  25.354  1.00  0.00    -0.069 N 
ATOM     23  H13 UNL     1     -29.913 -34.793  25.769  1.00  0.00     0.275 HD
ATOM     24  H12 UNL     1     -30.453 -33.386  26.112  1.00  0.00     0.275 HD
ATOM     25  H11 UNL     1     -30.512 -33.862  24.492  1.00  0.00     0.275 HD
ENDBRANCH  21  22
BRANCH  21  26
HETATM   26  C16 UNL     1     -28.864 -32.022  24.343  1.00  0.00     0.035 C 
HETATM   27  C17 UNL     1     -28.216 -32.046  22.978  1.00  0.00     0.007 C 
ENDBRANCH  21  26
ENDBRANCH  18  21
ENDBRANCH  11  18
BRANCH  13  28
HETATM   28  O4  UNL     1     -25.807 -37.328  27.502  1.00  0.00    -0.340 OA
ATOM     29  H4  UNL     1     -25.007 -37.840  27.455  1.00  0.00     0.220 HD
ENDBRANCH  13  28
BRANCH   1  30
HETATM   30  C2  UNL     1     -21.381 -36.761  29.567  1.00  0.00    -0.088 C 
HETATM   31  C1  UNL     1     -21.788 -38.024  29.565  1.00  0.00     0.014 C 
HETATM   32  C3  UNL     1     -20.701 -36.252  30.778  1.00  0.00     0.043 C 
ENDBRANCH   1  30
TORSDOF 7
ENDMDL
MODEL 3
REMARK VINA RESULT: -7.237371870      2.038      3.679
REMARK  7 active torsions:
REMARK  status: ('A' for Active; 'I' for Inactive)
REMARK    1  A    between atoms: C2_2  and  C4_4 
REMARK    2  A    between atoms: C13_14  and  C14_15 
REMARK    3  A    between atoms: C14_15  and  O2_16 
REMARK    4  A    between atoms: C14_15  and  C15_18 
REMARK    5  A    between atoms: C15_18  and  N1_19 
REMARK    6  A    between atoms: C15_18  and  C16_23 
REMARK    7  A    between atoms: C18_26  and  O4_27 
ROOT
HETATM    1  C4  UNL     1     -21.496 -34.215  28.389  1.00  0.00     0.022 C 
HETATM    2  C5  UNL     1     -21.759 -35.000  29.681  1.00  0.00     0.010 C 
HETATM    3  C6  UNL     1     -23.252 -34.840  29.819  1.00  0.00     0.010 C 
HETATM    4  C7  UNL     1     -23.623 -35.169  28.359  1.00  0.00     0.023 C 
HETATM    5  C8  UNL     1     -25.042 -35.233  28.099  1.00  0.00    -0.077 C 
HETATM    6  C9  UNL     1     -25.373 -36.223  27.273  1.00  0.00     0.015 C 
HETATM    7  C10 UNL     1     -26.330 -34.520  28.466  1.00  0.00     0.117 C 
HETATM    8  C11 UNL     1     -26.505 -33.434  27.459  1.00  0.00     0.167 C 
HETATM    9  O1  UNL     1     -27.677 -32.977  27.377  1.00  0.00    -0.292 OA
HETATM   10  C12 UNL     1     -25.639 -32.738  26.513  1.00  0.00     0.058 A 
HETATM   11  C13 UNL     1     -26.155 -32.210  25.371  1.00  0.00     0.124 A 
HETATM   12  O3  UNL     1     -25.095 -31.643  24.755  1.00  0.00    -0.284 OA
HETATM   13  C18 UNL     1     -24.006 -31.786  25.419  1.00  0.00     0.191 A 
HETATM   14  C19 UNL     1     -24.272 -32.484  26.571  1.00  0.00     0.018 A 
HETATM   15  C20 UNL     1     -23.240 -32.809  27.540  1.00  0.00     0.055 C 
HETATM   16  C21 UNL     1     -22.773 -34.231  27.586  1.00  0.00    -0.025 C 
HETATM   17  C22 UNL     1     -22.494 -34.742  26.199  1.00  0.00     0.017 C 
ENDROOT
BRANCH  11  18
HETATM   18  C14 UNL     1     -27.517 -32.234  24.892  1.00  0.00     0.108 C 
BRANCH  18  19
HETATM   19  O2  UNL     1     -28.062 -33.360  24.346  1.00  0.00    -0.360 OA
ATOM     20  H2  UNL     1     -28.606 -33.321  23.568  1.00  0.00     0.217 HD
ENDBRANCH  18  19
BRANCH  18  21
HETATM   21  C15 UNL     1     -27.911 -30.962  24.144  1.00  0.00     0.242 C 
BRANCH  21  22
HETATM   22  N1  UNL     1     -27.030 -29.879  24.498  1.00  0.00    -0.069 N 
ATOM     23  H13 UNL     1     -26.167 -30.215  24.926  1.00  0.00     0.275 HD
ATOM     24  H12 UNL     1     -26.627 -29.433  23.674  1.00  0.00     0.275 HD
ATOM     25  H11 UNL     1     -27.514 -29.208  25.094  1.00  0.00     0.275 HD
ENDBRANCH  21  22
BRANCH  21  26
HETATM   26  C16 UNL     1     -27.830 -31.119  22.641  1.00  0.00     0.035 C 
HETATM   27  C17 UNL     1     -26.943 -30.087  21.984  1.00  0.00     0.007 C 
ENDBRANCH  21  26
ENDBRANCH  18  21
ENDBRANCH  11  18
BRANCH  13  28
HETATM   28  O4  UNL     1     -22.742 -31.335  25.088  1.00  0.00    -0.340 OA
ATOM     29  H4  UNL     1     -21.913 -31.573  25.486  1.00  0.00     0.220 HD
ENDBRANCH  13  28
BRANCH   1  30
HETATM   30  C2  UNL     1     -20.295 -34.693  27.717  1.00  0.00    -0.088 C 
HETATM   31  C1  UNL     1     -19.786 -34.015  26.697  1.00  0.00     0.014 C 
HETATM   32  C3  UNL     1     -19.583 -35.906  28.171  1.00  0.00     0.043 C 
ENDBRANCH   1  30
TORSDOF 7
ENDMDL
MODEL 4
REMARK VINA RESULT: -6.953839563      3.193      6.878
REMARK  7 active torsions:
REMARK  status: ('A' for Active; 'I' for Inactive)
REMARK    1  A    between atoms: C2_2  and  C4_4 
REMARK    2  A    between atoms: C13_14  and  C14_15 
REMARK    3  A    between atoms: C14_15  and  O2_16 
REMARK    4  A    between atoms: C14_15  and  C15_18 
REMARK    5  A    between atoms: C15_18  and  N1_19 
REMARK    6  A    between atoms: C15_18  and  C16_23 
REMARK    7  A    between atoms: C18_26  and  O4_27 
ROOT
HETATM    1  C4  UNL     1     -25.386 -32.800  26.911  1.00  0.00     0.022 C 
HETATM    2  C5  UNL     1     -24.742 -31.711  26.041  1.00  0.00     0.010 C 
HETATM    3  C6  UNL     1     -23.281 -31.915  26.356  1.00  0.00     0.010 C 
HETATM    4  C7  UNL     1     -23.258 -33.450  26.211  1.00  0.00     0.023 C 
HETATM    5  C8  UNL     1     -21.950 -34.047  26.333  1.00  0.00    -0.077 C 
HETATM    6  C9  UNL     1     -21.751 -35.041  25.470  1.00  0.00     0.015 C 
HETATM    7  C10 UNL     1     -20.678 -33.916  27.149  1.00  0.00     0.117 C 
HETATM    8  C11 UNL     1     -20.853 -34.797  28.338  1.00  0.00     0.167 C 
HETATM    9  O1  UNL     1     -19.783 -35.102  28.930  1.00  0.00    -0.292 OA
HETATM   10  C12 UNL     1     -21.985 -35.419  29.018  1.00  0.00     0.058 A 
HETATM   11  C13 UNL     1     -21.818 -36.580  29.707  1.00  0.00     0.124 A 
HETATM   12  O3  UNL     1     -23.043 -36.852  30.207  1.00  0.00    -0.284 OA
HETATM   13  C18 UNL     1     -23.915 -35.969  29.880  1.00  0.00     0.191 A 
HETATM   14  C19 UNL     1     -23.311 -35.007  29.109  1.00  0.00     0.018 A 
HETATM   15  C20 UNL     1     -24.036 -33.866  28.580  1.00  0.00     0.055 C 
HETATM   16  C21 UNL     1     -24.353 -33.880  27.116  1.00  0.00    -0.025 C 
HETATM   17  C22 UNL     1     -24.924 -35.211  26.711  1.00  0.00     0.017 C 
ENDROOT
BRANCH  11  18
HETATM   18  C14 UNL     1     -20.622 -37.369  29.883  1.00  0.00     0.108 C 
BRANCH  18  19
HETATM   19  O2  UNL     1     -20.479 -38.590  29.290  1.00  0.00    -0.360 OA
ATOM     20  H2  UNL     1     -20.418 -39.387  29.804  1.00  0.00     0.217 HD
ENDBRANCH  18  19
BRANCH  18  21
HETATM   21  C15 UNL     1     -20.091 -37.340  31.315  1.00  0.00     0.242 C 
BRANCH  21  22
HETATM   22  N1  UNL     1     -20.390 -36.074  31.935  1.00  0.00    -0.069 N 
ATOM     23  H13 UNL     1     -20.218 -36.093  32.940  1.00  0.00     0.275 HD
ATOM     24  H12 UNL     1     -19.712 -35.356  31.679  1.00  0.00     0.275 HD
ATOM     25  H11 UNL     1     -21.345 -35.790  31.718  1.00  0.00     0.275 HD
ENDBRANCH  21  22
BRANCH  21  26
HETATM   26  C16 UNL     1     -20.704 -38.411  32.189  1.00  0.00     0.035 C 
HETATM   27  C17 UNL     1     -21.541 -37.851  33.315  1.00  0.00     0.007 C 
ENDBRANCH  21  26
ENDBRANCH  18  21
ENDBRANCH  11  18
BRANCH  13  28
HETATM   28  O4  UNL     1     -25.256 -35.933  30.214  1.00  0.00    -0.340 OA
ATOM     29  H4  UNL     1     -25.696 -35.332  30.804  1.00  0.00     0.220 HD
ENDBRANCH  13  28
BRANCH   1  30
HETATM   30  C2  UNL     1     -26.670 -33.218  26.367  1.00  0.00    -0.088 C 
HETATM   31  C1  UNL     1     -27.569 -33.801  27.148  1.00  0.00     0.014 C 
HETATM   32  C3  UNL     1     -27.033 -32.968  24.955  1.00  0.00     0.043 C 
ENDBRANCH   1  30
TORSDOF 7
ENDMDL
MODEL 5
REMARK VINA RESULT: -6.879936495      2.785      7.246
REMARK  7 active torsions:
REMARK  status: ('A' for Active; 'I' for Inactive)
REMARK    1  A    between atoms: C2_2  and  C4_4 
REMARK    2  A    between atoms: C13_14  and  C14_15 
REMARK    3  A    between atoms: C14_15  and  O2_16 
REMARK    4  A    between atoms: C14_15  and  C15_18 
REMARK    5  A    between atoms: C15_18  and  N1_19 
REMARK    6  A    between atoms: C15_18  and  C16_23 
REMARK    7  A    between atoms: C18_26  and  O4_27 
ROOT
HETATM    1  C4  UNL     1     -28.098 -32.307  23.174  1.00  0.00     0.022 C 
HETATM    2  C5  UNL     1     -29.294 -33.267  23.119  1.00  0.00     0.010 C 
HETATM    3  C6  UNL     1     -29.015 -34.146  24.313  1.00  0.00     0.010 C 
HETATM    4  C7  UNL     1     -28.683 -33.022  25.315  1.00  0.00     0.023 C 
HETATM    5  C8  UNL     1     -28.457 -33.470  26.668  1.00  0.00    -0.077 C 
HETATM    6  C9  UNL     1     -28.984 -32.654  27.579  1.00  0.00     0.015 C 
HETATM    7  C10 UNL     1     -27.795 -34.603  27.428  1.00  0.00     0.117 C 
HETATM    8  C11 UNL     1     -26.384 -34.180  27.660  1.00  0.00     0.167 C 
HETATM    9  O1  UNL     1     -25.788 -34.811  28.575  1.00  0.00    -0.292 OA
HETATM   10  C12 UNL     1     -25.483 -33.189  27.079  1.00  0.00     0.058 A 
HETATM   11  C13 UNL     1     -24.482 -32.652  27.826  1.00  0.00     0.124 A 
HETATM   12  O3  UNL     1     -23.855 -31.803  26.984  1.00  0.00    -0.284 OA
HETATM   13  C18 UNL     1     -24.387 -31.785  25.816  1.00  0.00     0.191 A 
HETATM   14  C19 UNL     1     -25.449 -32.655  25.795  1.00  0.00     0.018 A 
HETATM   15  C20 UNL     1     -26.261 -32.863  24.609  1.00  0.00     0.055 C 
HETATM   16  C21 UNL     1     -27.630 -32.254  24.607  1.00  0.00    -0.025 C 
HETATM   17  C22 UNL     1     -27.573 -30.824  25.069  1.00  0.00     0.017 C 
ENDROOT
BRANCH  11  18
HETATM   18  C14 UNL     1     -24.140 -32.905  29.206  1.00  0.00     0.108 C 
BRANCH  18  19
HETATM   19  O2  UNL     1     -24.850 -32.348  30.231  1.00  0.00    -0.360 OA
ATOM     20  H2  UNL     1     -25.510 -31.684  30.074  1.00  0.00     0.217 HD
ENDBRANCH  18  19
BRANCH  18  21
HETATM   21  C15 UNL     1     -22.634 -32.903  29.459  1.00  0.00     0.242 C 
BRANCH  21  22
HETATM   22  N1  UNL     1     -22.363 -32.911  30.875  1.00  0.00    -0.069 N 
ATOM     23  H13 UNL     1     -21.393 -33.155  31.075  1.00  0.00     0.275 HD
ATOM     24  H12 UNL     1     -22.367 -31.970  31.267  1.00  0.00     0.275 HD
ATOM     25  H11 UNL     1     -23.017 -33.527  31.357  1.00  0.00     0.275 HD
ENDBRANCH  21  22
BRANCH  21  26
HETATM   26  C16 UNL     1     -21.939 -34.112  28.874  1.00  0.00     0.035 C 
HETATM   27  C17 UNL     1     -21.089 -33.783  27.669  1.00  0.00     0.007 C 
ENDBRANCH  21  26
ENDBRANCH  18  21
ENDBRANCH  11  18
BRANCH  13  28
HETATM   28  O4  UNL     1     -24.005 -31.038  24.718  1.00  0.00    -0.340 OA
ATOM     29  H4  UNL     1     -24.560 -30.557  24.116  1.00  0.00     0.220 HD
ENDBRANCH  13  28
BRANCH   1  30
HETATM   30  C2  UNL     1     -28.414 -31.034  22.542  1.00  0.00    -0.088 C 
HETATM   31  C1  UNL     1     -29.676 -30.660  22.384  1.00  0.00     0.014 C 
HETATM   32  C3  UNL     1     -27.352 -30.102  22.103  1.00  0.00     0.043 C 
ENDBRANCH   1  30
TORSDOF 7
ENDMDL
