MODEL 1
REMARK VINA RESULT: -9.041733445      0.000      0.000
REMARK  5 active torsions:
REMARK  status: ('A' for Active; 'I' for Inactive)
REMARK    1  A    between atoms: C4_4  and  C5_5 
REMARK    2  A    between atoms: C5_5  and  C6_6 
REMARK    3  A    between atoms: C9_9  and  N1_10 
REMARK    4  A    between atoms: N1_10  and  C10_12 
REMARK    5  A    between atoms: C15_22  and  C16_23 
ROOT
HETATM    1  C10 UNL     1     -24.723 -32.935  26.554  1.00  0.00     0.677 C 
HETATM    2  N2  UNL     1     -25.563 -33.427  27.421  1.00  0.00    -0.164 N 
ATOM      3  H2  UNL     1     -26.552 -33.252  27.248  1.00  0.00     0.187 HD
HETATM    4  C11 UNL     1     -25.238 -34.195  28.598  1.00  0.00     0.203 C 
HETATM    5  N3  UNL     1     -26.202 -35.097  29.095  1.00  0.00    -0.063 NA
HETATM    6  N4  UNL     1     -24.107 -34.094  29.221  1.00  0.00    -0.353 N 
ATOM      7  H4  UNL     1     -24.002 -34.692  30.040  1.00  0.00     0.163 HD
HETATM    8  C12 UNL     1     -22.957 -33.243  28.914  1.00  0.00     0.047 C 
HETATM    9  C13 UNL     1     -21.992 -33.393  30.059  1.00  0.00     0.040 C 
HETATM   10  C14 UNL     1     -23.410 -31.777  28.899  1.00  0.00     0.040 C 
HETATM   11  C15 UNL     1     -22.372 -33.526  27.576  1.00  0.00     0.134 C 
HETATM   12  N5  UNL     1     -23.290 -33.038  26.566  1.00  0.00    -0.218 N 
ATOM     13  H5  UNL     1     -22.839 -32.709  25.713  1.00  0.00     0.178 HD
ENDROOT
BRANCH   1  14
HETATM   14  N1  UNL     1     -25.275 -32.210  25.468  1.00  0.00    -0.215 N 
ATOM     15  H1  UNL     1     -24.701 -32.054  24.639  1.00  0.00     0.178 HD
BRANCH  14  16
HETATM   16  C9  UNL     1     -26.602 -31.693  25.493  1.00  0.00     0.169 C 
HETATM   17  C8  UNL     1     -27.615 -32.822  25.390  1.00  0.00     0.034 C 
HETATM   18  C7  UNL     1     -28.792 -32.409  24.539  1.00  0.00     0.007 C 
HETATM   19  C6  UNL     1     -28.361 -32.256  23.051  1.00  0.00    -0.004 C 
HETATM   20  C21 UNL     1     -27.161 -31.323  23.012  1.00  0.00     0.085 C 
HETATM   21  C20 UNL     1     -26.880 -30.741  24.378  1.00  0.00     0.150 C 
HETATM   22  O1  UNL     1     -26.891 -29.539  24.511  1.00  0.00    -0.296 OA
BRANCH  19  23
HETATM   23  C5  UNL     1     -29.533 -31.687  22.352  1.00  0.00     0.032 C 
BRANCH  23  24
HETATM   24  C4  UNL     1     -30.866 -32.041  22.763  1.00  0.00    -0.024 C 
HETATM   25  C2  UNL     1     -31.577 -33.112  22.814  1.00  0.00    -0.091 C 
HETATM   26  C1  UNL     1     -33.012 -32.918  23.360  1.00  0.00     0.042 C 
HETATM   27  C3  UNL     1     -31.296 -34.514  22.477  1.00  0.00     0.042 C 
ENDBRANCH  23  24
ENDBRANCH  19  23
ENDBRANCH  14  16
ENDBRANCH   1  14
BRANCH  11  28
HETATM   28  C16 UNL     1     -22.037 -34.956  27.299  1.00  0.00    -0.021 A 
HETATM   29  C17 UNL     1     -21.225 -35.729  28.339  1.00  0.00     0.017 C 
HETATM   30  C18 UNL     1     -22.768 -35.784  26.331  1.00  0.00     0.012 A 
HETATM   31  C19 UNL     1     -21.489 -35.163  25.871  1.00  0.00     0.012 A 
ENDBRANCH  11  28
TORSDOF 5
ENDMDL
MODEL 2
REMARK VINA RESULT: -8.913290547      2.223      3.385
REMARK  5 active torsions:
REMARK  status: ('A' for Active; 'I' for Inactive)
REMARK    1  A    between atoms: C4_4  and  C5_5 
REMARK    2  A    between atoms: C5_5  and  C6_6 
REMARK    3  A    between atoms: C9_9  and  N1_10 
REMARK    4  A    between atoms: N1_10  and  C10_12 
REMARK    5  A    between atoms: C15_22  and  C16_23 
ROOT
HETATM    1  C10 UNL     1     -24.066 -35.592  27.389  1.00  0.00     0.677 C 
HETATM    2  N2  UNL     1     -23.665 -36.830  27.456  1.00  0.00    -0.164 N 
ATOM      3  H2  UNL     1     -24.378 -37.549  27.334  1.00  0.00     0.187 HD
HETATM    4  C11 UNL     1     -22.316 -37.290  27.683  1.00  0.00     0.203 C 
HETATM    5  N3  UNL     1     -21.949 -38.557  27.185  1.00  0.00    -0.063 NA
HETATM    6  N4  UNL     1     -21.429 -36.595  28.323  1.00  0.00    -0.353 N 
ATOM      7  H4  UNL     1     -20.513 -37.034  28.415  1.00  0.00     0.163 HD
HETATM    8  C12 UNL     1     -21.556 -35.272  28.931  1.00  0.00     0.047 C 
HETATM    9  C13 UNL     1     -20.282 -35.024  29.694  1.00  0.00     0.040 C 
HETATM   10  C14 UNL     1     -22.695 -35.300  29.958  1.00  0.00     0.040 C 
HETATM   11  C15 UNL     1     -21.896 -34.214  27.941  1.00  0.00     0.134 C 
HETATM   12  N5  UNL     1     -23.271 -34.404  27.527  1.00  0.00    -0.218 N 
ATOM     13  H5  UNL     1     -23.761 -33.542  27.290  1.00  0.00     0.178 HD
ENDROOT
BRANCH   1  14
HETATM   14  N1  UNL     1     -25.449 -35.379  27.156  1.00  0.00    -0.215 N 
ATOM     15  H1  UNL     1     -26.012 -36.151  26.798  1.00  0.00     0.178 HD
BRANCH  14  16
HETATM   16  C9  UNL     1     -26.079 -34.126  27.405  1.00  0.00     0.169 C 
HETATM   17  C8  UNL     1     -27.583 -34.304  27.539  1.00  0.00     0.034 C 
HETATM   18  C7  UNL     1     -28.318 -33.149  26.903  1.00  0.00     0.007 C 
HETATM   19  C6  UNL     1     -28.149 -33.180  25.356  1.00  0.00    -0.004 C 
HETATM   20  C21 UNL     1     -26.660 -33.259  25.056  1.00  0.00     0.085 C 
HETATM   21  C20 UNL     1     -25.843 -33.128  26.321  1.00  0.00     0.150 C 
HETATM   22  O1  UNL     1     -25.038 -32.228  26.403  1.00  0.00    -0.296 OA
BRANCH  19  23
HETATM   23  C5  UNL     1     -28.751 -31.924  24.862  1.00  0.00     0.032 C 
BRANCH  23  24
HETATM   24  C4  UNL     1     -28.066 -31.128  23.877  1.00  0.00    -0.024 C 
HETATM   25  C2  UNL     1     -27.959 -31.112  22.596  1.00  0.00    -0.091 C 
HETATM   26  C1  UNL     1     -27.050 -29.994  22.030  1.00  0.00     0.042 C 
HETATM   27  C3  UNL     1     -28.552 -31.936  21.533  1.00  0.00     0.042 C 
ENDBRANCH  23  24
ENDBRANCH  19  23
ENDBRANCH  14  16
ENDBRANCH   1  14
BRANCH  11  28
HETATM   28  C16 UNL     1     -21.014 -34.139  26.736  1.00  0.00    -0.021 A 
HETATM   29  C17 UNL     1     -19.565 -34.610  26.863  1.00  0.00     0.017 C 
HETATM   30  C18 UNL     1     -21.530 -34.053  25.364  1.00  0.00     0.012 A 
HETATM   31  C19 UNL     1     -21.117 -32.776  26.019  1.00  0.00     0.012 A 
ENDBRANCH  11  28
TORSDOF 5
ENDMDL
MODEL 3
REMARK VINA RESULT: -8.844751183      2.223      3.329
REMARK  5 active torsions:
REMARK  status: ('A' for Active; 'I' for Inactive)
REMARK    1  A    between atoms: C4_4  and  C5_5 
REMARK    2  A    between atoms: C5_5  and  C6_6 
REMARK    3  A    between atoms: C9_9  and  N1_10 
REMARK    4  A    between atoms: N1_10  and  C10_12 
REMARK    5  A    between atoms: C15_22  and  C16_23 
ROOT
HETATM    1  C10 UNL     1     -23.670 -34.900  28.433  1.00  0.00     0.677 C 
HETATM    2  N2  UNL     1     -23.850 -36.137  28.799  1.00  0.00    -0.164 N 
ATOM      3  H2  UNL     1     -24.812 -36.477  28.805  1.00  0.00     0.187 HD
HETATM    4  C11 UNL     1     -22.831 -37.077  29.197  1.00  0.00     0.203 C 
HETATM    5  N3  UNL     1     -23.084 -38.453  29.021  1.00  0.00    -0.063 NA
HETATM    6  N4  UNL     1     -21.696 -36.718  29.710  1.00  0.00    -0.353 N 
ATOM      7  H4  UNL     1     -21.063 -37.480  29.948  1.00  0.00     0.163 HD
HETATM    8  C12 UNL     1     -21.196 -35.374  29.994  1.00  0.00     0.047 C 
HETATM    9  C13 UNL     1     -19.905 -35.544  30.749  1.00  0.00     0.040 C 
HETATM   10  C14 UNL     1     -22.177 -34.665  30.938  1.00  0.00     0.040 C 
HETATM   11  C15 UNL     1     -21.088 -34.530  28.774  1.00  0.00     0.134 C 
HETATM   12  N5  UNL     1     -22.427 -34.186  28.340  1.00  0.00    -0.218 N 
ATOM     13  H5  UNL     1     -22.500 -33.274  27.888  1.00  0.00     0.178 HD
ENDROOT
BRANCH   1  14
HETATM   14  N1  UNL     1     -24.828 -34.161  28.083  1.00  0.00    -0.215 N 
ATOM     15  H1  UNL     1     -25.334 -33.663  28.815  1.00  0.00     0.178 HD
BRANCH  14  16
HETATM   16  C9  UNL     1     -25.310 -34.088  26.744  1.00  0.00     0.169 C 
HETATM   17  C8  UNL     1     -25.338 -32.644  26.266  1.00  0.00     0.034 C 
HETATM   18  C7  UNL     1     -26.553 -32.388  25.408  1.00  0.00     0.007 C 
HETATM   19  C6  UNL     1     -27.849 -32.445  26.266  1.00  0.00    -0.004 C 
HETATM   20  C21 UNL     1     -27.844 -33.764  27.024  1.00  0.00     0.085 C 
HETATM   21  C20 UNL     1     -26.689 -34.636  26.588  1.00  0.00     0.150 C 
HETATM   22  O1  UNL     1     -26.926 -35.732  26.135  1.00  0.00    -0.296 OA
BRANCH  19  23
HETATM   23  C5  UNL     1     -28.970 -32.357  25.307  1.00  0.00     0.032 C 
BRANCH  23  24
HETATM   24  C4  UNL     1     -28.710 -32.180  23.902  1.00  0.00    -0.024 C 
HETATM   25  C2  UNL     1     -29.363 -32.324  22.804  1.00  0.00    -0.091 C 
HETATM   26  C1  UNL     1     -28.568 -31.982  21.520  1.00  0.00     0.042 C 
HETATM   27  C3  UNL     1     -30.744 -32.732  22.508  1.00  0.00     0.042 C 
ENDBRANCH  23  24
ENDBRANCH  19  23
ENDBRANCH  14  16
ENDBRANCH   1  14
BRANCH  11  28
HETATM   28  C16 UNL     1     -20.328 -35.126  27.633  1.00  0.00    -0.021 A 
HETATM   29  C17 UNL     1     -18.953 -35.733  27.911  1.00  0.00     0.017 C 
HETATM   30  C18 UNL     1     -20.960 -35.549  26.377  1.00  0.00     0.012 A 
HETATM   31  C19 UNL     1     -20.312 -34.203  26.396  1.00  0.00     0.012 A 
ENDBRANCH  11  28
TORSDOF 5
ENDMDL
MODEL 4
REMARK VINA RESULT: -8.743209300      1.140      2.456
REMARK  5 active torsions:
REMARK  status: ('A' for Active; 'I' for Inactive)
REMARK    1  A    between atoms: C4_4  and  C5_5 
REMARK    2  A    between atoms: C5_5  and  C6_6 
REMARK    3  A    between atoms: C9_9  and  N1_10 
REMARK    4  A    between atoms: N1_10  and  C10_12 
REMARK    5  A    between atoms: C15_22  and  C16_23 
ROOT
HETATM    1  C10 UNL     1     -24.406 -32.756  26.376  1.00  0.00     0.677 C 
HETATM    2  N2  UNL     1     -23.570 -32.123  27.151  1.00  0.00    -0.164 N 
ATOM      3  H2  UNL     1     -23.427 -31.133  26.955  1.00  0.00     0.187 HD
HETATM    4  C11 UNL     1     -22.827 -32.678  28.255  1.00  0.00     0.203 C 
HETATM    5  N3  UNL     1     -22.432 -31.813  29.297  1.00  0.00    -0.063 NA
HETATM    6  N4  UNL     1     -22.504 -33.930  28.335  1.00  0.00    -0.353 N 
ATOM      7  H4  UNL     1     -21.978 -34.194  29.167  1.00  0.00     0.163 HD
HETATM    8  C12 UNL     1     -22.787 -35.018  27.400  1.00  0.00     0.047 C 
HETATM    9  C13 UNL     1     -22.029 -36.220  27.894  1.00  0.00     0.040 C 
HETATM   10  C14 UNL     1     -22.210 -34.658  26.024  1.00  0.00     0.040 C 
HETATM   11  C15 UNL     1     -24.245 -35.247  27.207  1.00  0.00     0.134 C 
HETATM   12  N5  UNL     1     -24.780 -34.142  26.438  1.00  0.00    -0.218 N 
ATOM     13  H5  UNL     1     -25.562 -34.392  25.833  1.00  0.00     0.178 HD
ENDROOT
BRANCH   1  14
HETATM   14  N1  UNL     1     -25.024 -32.000  25.348  1.00  0.00    -0.215 N 
ATOM     15  H1  UNL     1     -24.496 -31.803  24.497  1.00  0.00     0.178 HD
BRANCH  14  16
HETATM   16  C9  UNL     1     -26.356 -31.507  25.461  1.00  0.00     0.169 C 
HETATM   17  C8  UNL     1     -27.354 -32.653  25.413  1.00  0.00     0.034 C 
HETATM   18  C7  UNL     1     -28.588 -32.256  24.640  1.00  0.00     0.007 C 
HETATM   19  C6  UNL     1     -28.255 -32.085  23.130  1.00  0.00    -0.004 C 
HETATM   20  C21 UNL     1     -27.076 -31.131  23.022  1.00  0.00     0.085 C 
HETATM   21  C20 UNL     1     -26.720 -30.553  24.373  1.00  0.00     0.150 C 
HETATM   22  O1  UNL     1     -26.743 -29.352  24.516  1.00  0.00    -0.296 OA
BRANCH  19  23
HETATM   23  C5  UNL     1     -29.478 -31.532  22.510  1.00  0.00     0.032 C 
BRANCH  23  24
HETATM   24  C4  UNL     1     -30.776 -31.990  22.931  1.00  0.00    -0.024 C 
HETATM   25  C2  UNL     1     -31.478 -33.060  22.804  1.00  0.00    -0.091 C 
HETATM   26  C1  UNL     1     -32.869 -33.013  23.481  1.00  0.00     0.042 C 
HETATM   27  C3  UNL     1     -31.219 -34.354  22.157  1.00  0.00     0.042 C 
ENDBRANCH  23  24
ENDBRANCH  19  23
ENDBRANCH  14  16
ENDBRANCH   1  14
BRANCH  11  28
HETATM   28  C16 UNL     1     -25.048 -35.425  28.455  1.00  0.00    -0.021 A 
HETATM   29  C17 UNL     1     -24.468 -36.286  29.578  1.00  0.00     0.017 C 
HETATM   30  C18 UNL     1     -26.131 -34.517  28.853  1.00  0.00     0.012 A 
HETATM   31  C19 UNL     1     -26.520 -35.780  28.157  1.00  0.00     0.012 A 
ENDBRANCH  11  28
TORSDOF 5
ENDMDL
MODEL 5
REMARK VINA RESULT: -8.720550364      2.126      2.808
REMARK  5 active torsions:
REMARK  status: ('A' for Active; 'I' for Inactive)
REMARK    1  A    between atoms: C4_4  and  C5_5 
REMARK    2  A    between atoms: C5_5  and  C6_6 
REMARK    3  A    between atoms: C9_9  and  N1_10 
REMARK    4  A    between atoms: N1_10  and  C10_12 
REMARK    5  A    between atoms: C15_22  and  C16_23 
ROOT
HETATM    1  C10 UNL     1     -24.407 -34.000  27.633  1.00  0.00     0.677 C 
HETATM    2  N2  UNL     1     -24.639 -35.202  28.080  1.00  0.00    -0.164 N 
ATOM      3  H2  UNL     1     -25.617 -35.486  28.139  1.00  0.00     0.187 HD
HETATM    4  C11 UNL     1     -23.657 -36.171  28.500  1.00  0.00     0.203 C 
HETATM    5  N3  UNL     1     -23.989 -37.539  28.417  1.00  0.00    -0.063 NA
HETATM    6  N4  UNL     1     -22.487 -35.845  28.952  1.00  0.00    -0.353 N 
ATOM      7  H4  UNL     1     -21.887 -36.626  29.215  1.00  0.00     0.163 HD
HETATM    8  C12 UNL     1     -21.907 -34.516  29.137  1.00  0.00     0.047 C 
HETATM    9  C13 UNL     1     -20.600 -34.713  29.857  1.00  0.00     0.040 C 
HETATM   10  C14 UNL     1     -22.813 -33.700  30.068  1.00  0.00     0.040 C 
HETATM   11  C15 UNL     1     -21.799 -33.753  27.864  1.00  0.00     0.134 C 
HETATM   12  N5  UNL     1     -23.132 -33.362  27.455  1.00  0.00    -0.218 N 
ATOM     13  H5  UNL     1     -23.174 -32.476  26.951  1.00  0.00     0.178 HD
ENDROOT
BRANCH   1  14
HETATM   14  N1  UNL     1     -25.537 -33.220  27.277  1.00  0.00    -0.215 N 
ATOM     15  H1  UNL     1     -25.768 -32.403  27.843  1.00  0.00     0.178 HD
BRANCH  14  16
HETATM   16  C9  UNL     1     -26.360 -33.537  26.158  1.00  0.00     0.169 C 
HETATM   17  C8  UNL     1     -27.274 -32.369  25.822  1.00  0.00     0.034 C 
HETATM   18  C7  UNL     1     -28.636 -32.861  25.396  1.00  0.00     0.007 C 
HETATM   19  C6  UNL     1     -29.389 -33.493  26.603  1.00  0.00    -0.004 C 
HETATM   20  C21 UNL     1     -28.474 -34.540  27.221  1.00  0.00     0.085 C 
HETATM   21  C20 UNL     1     -27.227 -34.729  26.389  1.00  0.00     0.150 C 
HETATM   22  O1  UNL     1     -26.983 -35.830  25.949  1.00  0.00    -0.296 OA
BRANCH  19  23
HETATM   23  C5  UNL     1     -30.618 -34.089  26.040  1.00  0.00     0.032 C 
BRANCH  23  24
HETATM   24  C4  UNL     1     -30.801 -34.165  24.614  1.00  0.00    -0.024 C 
HETATM   25  C2  UNL     1     -31.746 -33.919  23.777  1.00  0.00    -0.091 C 
HETATM   26  C1  UNL     1     -31.393 -34.190  22.294  1.00  0.00     0.042 C 
HETATM   27  C3  UNL     1     -33.112 -33.401  23.936  1.00  0.00     0.042 C 
ENDBRANCH  23  24
ENDBRANCH  19  23
ENDBRANCH  14  16
ENDBRANCH   1  14
BRANCH  11  28
HETATM   28  C16 UNL     1     -21.114 -34.456  26.737  1.00  0.00    -0.021 A 
HETATM   29  C17 UNL     1     -19.701 -34.995  26.965  1.00  0.00     0.017 C 
HETATM   30  C18 UNL     1     -21.830 -35.034  25.593  1.00  0.00     0.012 A 
HETATM   31  C19 UNL     1     -21.227 -33.680  25.408  1.00  0.00     0.012 A 
ENDBRANCH  11  28
TORSDOF 5
ENDMDL
