MODEL 1
REMARK VINA RESULT: -8.069969520      0.000      0.000
REMARK  13 active torsions:
REMARK  status: ('A' for Active; 'I' for Inactive)
REMARK       I    between atoms: N1_2  and  C2_4 
REMARK       I    between atoms: C2_4  and  N2_5 
REMARK       I    between atoms: C2_4  and  N4_12 
REMARK    1  A    between atoms: N2_5  and  C3_7 
REMARK    2  A    between atoms: C3_7  and  C5_9 
REMARK       I    between atoms: N4_12  and  C6_14 
REMARK    3  A    between atoms: C6_14  and  C7_16 
REMARK    4  A    between atoms: C9_18  and  O3_19 
REMARK    5  A    between atoms: O3_19  and  C10_20 
REMARK    6  A    between atoms: C10_20  and  C11_22 
REMARK    7  A    between atoms: C11_22  and  N5_23 
REMARK    8  A    between atoms: N5_23  and  N6_24 
REMARK    9  A    between atoms: C12_27  and  N7_28 
REMARK       I    between atoms: N7_28  and  C13_30 
REMARK   10  A    between atoms: C13_30  and  C14_32 
REMARK   11  A    between atoms: C15_35  and  C16_36 
REMARK   12  A    between atoms: C16_36  and  O6_37 
REMARK   13  A    between atoms: C16_36  and  O7_39 
ROOT
HETATM    1  C7  UNL     1      31.126  36.772  41.664  1.00  0.00     0.078 A 
HETATM    2  C8  UNL     1      30.772  38.070  41.827  1.00  0.00     0.065 A 
HETATM    3  C9  UNL     1      31.577  38.856  42.571  1.00  0.00     0.114 A 
HETATM    4  C12 UNL     1      32.692  38.323  43.119  1.00  0.00     0.112 A 
HETATM    5  S2  UNL     1      32.566  36.657  42.540  1.00  0.00    -0.064 SA
ENDROOT
BRANCH   1   6
HETATM    6  C6  UNL     1      30.462  35.692  40.925  1.00  0.00     0.276 C 
HETATM    7  N4  UNL     1      29.695  36.012  39.796  1.00  0.00    -0.155 N 
HETATM    8  C2  UNL     1      28.996  35.099  38.982  1.00  0.00     0.680 C 
ATOM      9  H4  UNL     1      29.637  36.998  39.542  1.00  0.00     0.187 HD
HETATM   10  N1  UNL     1      28.299  35.455  37.952  1.00  0.00    -0.230 N 
HETATM   11  N2  UNL     1      29.033  33.725  39.278  1.00  0.00    -0.191 N 
HETATM   12  C1  UNL     1      28.210  36.838  37.582  1.00  0.00     0.165 C 
ATOM     13  H1  UNL     1      27.811  34.749  37.401  1.00  0.00     0.177 HD
ATOM     14  H2  UNL     1      28.330  33.386  39.934  1.00  0.00     0.184 HD
HETATM   15  O2  UNL     1      30.591  34.494  41.315  1.00  0.00    -0.266 OA
BRANCH  11  16
HETATM   16  C3  UNL     1      29.833  32.864  38.825  1.00  0.00     0.087 C 
HETATM   17  C4  UNL     1      30.866  33.277  37.820  1.00  0.00     0.074 C 
BRANCH  16  18
HETATM   18  C5  UNL     1      29.790  31.470  39.231  1.00  0.00     0.277 C 
HETATM   19  N3  UNL     1      29.398  31.085  40.524  1.00  0.00    -0.056 NA
HETATM   20  O1  UNL     1      30.109  30.579  38.413  1.00  0.00    -0.270 OA
ENDBRANCH  16  18
ENDBRANCH  11  16
ENDBRANCH   1   6
BRANCH   3  21
HETATM   21  O3  UNL     1      31.220  40.230  42.750  1.00  0.00    -0.275 OA
BRANCH  21  22
HETATM   22  C10 UNL     1      32.026  41.201  42.134  1.00  0.00     0.280 C 
HETATM   23  O4  UNL     1      32.947  41.708  42.773  1.00  0.00    -0.263 OA
BRANCH  22  24
HETATM   24  C11 UNL     1      31.709  41.557  40.731  1.00  0.00     0.245 C 
BRANCH  24  25
HETATM   25  N5  UNL     1      32.400  40.713  39.782  1.00  0.00    -0.139 NA
BRANCH  25  26
HETATM   26  N6  UNL     1      33.659  40.407  40.336  1.00  0.00    -0.348 N 
ATOM     27  H62 UNL     1      34.164  40.976  41.015  1.00  0.00     0.172 HD
ATOM     28  H61 UNL     1      33.960  39.521  39.930  1.00  0.00     0.172 HD
ENDBRANCH  25  26
ENDBRANCH  24  25
ENDBRANCH  22  24
ENDBRANCH  21  22
ENDBRANCH   3  21
BRANCH   4  29
HETATM   29  N7  UNL     1      33.727  38.765  43.970  1.00  0.00    -0.313 N 
HETATM   30  C13 UNL     1      34.996  39.162  43.644  1.00  0.00     0.280 C 
HETATM   31  O5  UNL     1      35.512  39.231  42.529  1.00  0.00    -0.265 OA
ATOM     32  H7  UNL     1      33.499  38.792  44.964  1.00  0.00     0.170 HD
BRANCH  30  33
HETATM   33  C14 UNL     1      35.918  39.579  44.755  1.00  0.00     0.143 A 
HETATM   34  N8  UNL     1      36.068  40.794  45.246  1.00  0.00    -0.345 N 
HETATM   35  C15 UNL     1      36.911  40.999  46.211  1.00  0.00     0.071 A 
ATOM     36  H8  UNL     1      35.523  41.569  44.868  1.00  0.00     0.166 HD
HETATM   37  C17 UNL     1      37.615  39.917  46.678  1.00  0.00     0.082 A 
HETATM   38  S1  UNL     1      37.005  38.659  45.681  1.00  0.00    -0.076 SA
BRANCH  35  39
HETATM   39  C16 UNL     1      37.121  42.380  46.808  1.00  0.00     0.305 C 
BRANCH  39  40
HETATM   40  O6  UNL     1      37.891  43.150  45.910  1.00  0.00    -0.366 OA
ATOM     41  H6  UNL     1      37.960  44.035  46.249  1.00  0.00     0.213 HD
ENDBRANCH  39  40
BRANCH  39  42
HETATM   42  O7  UNL     1      35.922  43.032  46.991  1.00  0.00    -0.366 OA
ATOM     43  H7  UNL     1      35.506  43.226  46.159  1.00  0.00     0.213 HD
ENDBRANCH  39  42
ENDBRANCH  35  39
ENDBRANCH  30  33
ENDBRANCH   4  29
TORSDOF 13
ENDMDL
MODEL 2
REMARK VINA RESULT: -7.909604651      1.701      2.366
REMARK  13 active torsions:
REMARK  status: ('A' for Active; 'I' for Inactive)
REMARK       I    between atoms: N1_2  and  C2_4 
REMARK       I    between atoms: C2_4  and  N2_5 
REMARK       I    between atoms: C2_4  and  N4_12 
REMARK    1  A    between atoms: N2_5  and  C3_7 
REMARK    2  A    between atoms: C3_7  and  C5_9 
REMARK       I    between atoms: N4_12  and  C6_14 
REMARK    3  A    between atoms: C6_14  and  C7_16 
REMARK    4  A    between atoms: C9_18  and  O3_19 
REMARK    5  A    between atoms: O3_19  and  C10_20 
REMARK    6  A    between atoms: C10_20  and  C11_22 
REMARK    7  A    between atoms: C11_22  and  N5_23 
REMARK    8  A    between atoms: N5_23  and  N6_24 
REMARK    9  A    between atoms: C12_27  and  N7_28 
REMARK       I    between atoms: N7_28  and  C13_30 
REMARK   10  A    between atoms: C13_30  and  C14_32 
REMARK   11  A    between atoms: C15_35  and  C16_36 
REMARK   12  A    between atoms: C16_36  and  O6_37 
REMARK   13  A    between atoms: C16_36  and  O7_39 
ROOT
HETATM    1  C7  UNL     1      31.750  37.493  40.988  1.00  0.00     0.078 A 
HETATM    2  C8  UNL     1      31.197  38.624  41.492  1.00  0.00     0.065 A 
HETATM    3  C9  UNL     1      31.934  39.359  42.349  1.00  0.00     0.114 A 
HETATM    4  C12 UNL     1      33.180  38.943  42.670  1.00  0.00     0.112 A 
HETATM    5  S2  UNL     1      33.278  37.463  41.707  1.00  0.00    -0.064 SA
ENDROOT
BRANCH   1   6
HETATM    6  C6  UNL     1      31.202  36.503  40.054  1.00  0.00     0.276 C 
HETATM    7  N4  UNL     1      30.361  35.496  40.546  1.00  0.00    -0.155 N 
HETATM    8  C2  UNL     1      29.757  34.475  39.787  1.00  0.00     0.680 C 
ATOM      9  H4  UNL     1      30.168  35.503  41.547  1.00  0.00     0.187 HD
HETATM   10  N1  UNL     1      28.990  33.568  40.299  1.00  0.00    -0.230 N 
HETATM   11  N2  UNL     1      29.982  34.405  38.401  1.00  0.00    -0.191 N 
HETATM   12  C1  UNL     1      28.709  33.567  41.706  1.00  0.00     0.165 C 
ATOM     13  H1  UNL     1      28.583  32.849  39.699  1.00  0.00     0.177 HD
ATOM     14  H2  UNL     1      30.804  33.879  38.103  1.00  0.00     0.184 HD
HETATM   15  O2  UNL     1      31.496  36.571  38.824  1.00  0.00    -0.266 OA
BRANCH  11  16
HETATM   16  C3  UNL     1      29.285  34.916  37.483  1.00  0.00     0.087 C 
HETATM   17  C4  UNL     1      29.770  34.845  36.066  1.00  0.00     0.074 C 
BRANCH  16  18
HETATM   18  C5  UNL     1      28.025  35.589  37.745  1.00  0.00     0.277 C 
HETATM   19  N3  UNL     1      27.900  36.985  37.671  1.00  0.00    -0.056 NA
HETATM   20  O1  UNL     1      27.016  34.913  38.046  1.00  0.00    -0.270 OA
ENDBRANCH  16  18
ENDBRANCH  11  16
ENDBRANCH   1   6
BRANCH   3  21
HETATM   21  O3  UNL     1      31.368  40.559  42.886  1.00  0.00    -0.275 OA
BRANCH  21  22
HETATM   22  C10 UNL     1      31.935  41.782  42.495  1.00  0.00     0.280 C 
HETATM   23  O4  UNL     1      32.856  42.255  43.160  1.00  0.00    -0.263 OA
BRANCH  22  24
HETATM   24  C11 UNL     1      31.377  42.434  41.287  1.00  0.00     0.245 C 
BRANCH  24  25
HETATM   25  N5  UNL     1      32.392  42.705  40.293  1.00  0.00    -0.139 NA
BRANCH  25  26
HETATM   26  N6  UNL     1      33.413  41.750  40.468  1.00  0.00    -0.348 N 
ATOM     27  H62 UNL     1      33.333  40.886  41.004  1.00  0.00     0.172 HD
ATOM     28  H61 UNL     1      34.232  42.087  39.962  1.00  0.00     0.172 HD
ENDBRANCH  25  26
ENDBRANCH  24  25
ENDBRANCH  22  24
ENDBRANCH  21  22
ENDBRANCH   3  21
BRANCH   4  29
HETATM   29  N7  UNL     1      34.214  39.371  43.530  1.00  0.00    -0.313 N 
HETATM   30  C13 UNL     1      34.862  38.668  44.509  1.00  0.00     0.280 C 
HETATM   31  O5  UNL     1      34.691  37.498  44.851  1.00  0.00    -0.265 OA
ATOM     32  H7  UNL     1      34.519  40.336  43.404  1.00  0.00     0.170 HD
BRANCH  30  33
HETATM   33  C14 UNL     1      35.929  39.370  45.300  1.00  0.00     0.143 A 
HETATM   34  N8  UNL     1      35.957  40.646  45.633  1.00  0.00    -0.345 N 
HETATM   35  C15 UNL     1      36.955  41.110  46.322  1.00  0.00     0.071 A 
ATOM     36  H8  UNL     1      35.198  41.266  45.351  1.00  0.00     0.166 HD
HETATM   37  C17 UNL     1      37.946  40.228  46.674  1.00  0.00     0.082 A 
HETATM   38  S1  UNL     1      37.365  38.769  45.979  1.00  0.00    -0.076 SA
BRANCH  35  39
HETATM   39  C16 UNL     1      37.034  42.572  46.729  1.00  0.00     0.305 C 
BRANCH  39  40
HETATM   40  O6  UNL     1      37.919  43.238  45.854  1.00  0.00    -0.366 OA
ATOM     41  H6  UNL     1      37.624  44.134  45.746  1.00  0.00     0.213 HD
ENDBRANCH  39  40
BRANCH  39  42
HETATM   42  O7  UNL     1      35.806  43.186  46.623  1.00  0.00    -0.366 OA
ATOM     43  H7  UNL     1      35.703  43.865  47.280  1.00  0.00     0.213 HD
ENDBRANCH  39  42
ENDBRANCH  35  39
ENDBRANCH  30  33
ENDBRANCH   4  29
TORSDOF 13
ENDMDL
MODEL 3
REMARK VINA RESULT: -7.774603234      4.066      9.558
REMARK  13 active torsions:
REMARK  status: ('A' for Active; 'I' for Inactive)
REMARK       I    between atoms: N1_2  and  C2_4 
REMARK       I    between atoms: C2_4  and  N2_5 
REMARK       I    between atoms: C2_4  and  N4_12 
REMARK    1  A    between atoms: N2_5  and  C3_7 
REMARK    2  A    between atoms: C3_7  and  C5_9 
REMARK       I    between atoms: N4_12  and  C6_14 
REMARK    3  A    between atoms: C6_14  and  C7_16 
REMARK    4  A    between atoms: C9_18  and  O3_19 
REMARK    5  A    between atoms: O3_19  and  C10_20 
REMARK    6  A    between atoms: C10_20  and  C11_22 
REMARK    7  A    between atoms: C11_22  and  N5_23 
REMARK    8  A    between atoms: N5_23  and  N6_24 
REMARK    9  A    between atoms: C12_27  and  N7_28 
REMARK       I    between atoms: N7_28  and  C13_30 
REMARK   10  A    between atoms: C13_30  and  C14_32 
REMARK   11  A    between atoms: C15_35  and  C16_36 
REMARK   12  A    between atoms: C16_36  and  O6_37 
REMARK   13  A    between atoms: C16_36  and  O7_39 
ROOT
HETATM    1  C7  UNL     1      32.650  38.633  42.253  1.00  0.00     0.078 A 
HETATM    2  C8  UNL     1      31.555  37.864  42.034  1.00  0.00     0.065 A 
HETATM    3  C9  UNL     1      30.873  38.049  40.885  1.00  0.00     0.114 A 
HETATM    4  C12 UNL     1      31.303  38.984  40.008  1.00  0.00     0.112 A 
HETATM    5  S2  UNL     1      32.720  39.599  40.868  1.00  0.00    -0.064 SA
ENDROOT
BRANCH   1   6
HETATM    6  C6  UNL     1      33.577  38.665  43.390  1.00  0.00     0.276 C 
HETATM    7  N4  UNL     1      34.079  37.457  43.892  1.00  0.00    -0.155 N 
HETATM    8  C2  UNL     1      34.972  37.314  44.972  1.00  0.00     0.680 C 
ATOM      9  H4  UNL     1      33.770  36.601  43.431  1.00  0.00     0.187 HD
HETATM   10  N1  UNL     1      35.399  36.168  45.393  1.00  0.00    -0.230 N 
HETATM   11  N2  UNL     1      35.436  38.452  45.653  1.00  0.00    -0.191 N 
HETATM   12  C1  UNL     1      34.973  34.956  44.754  1.00  0.00     0.165 C 
ATOM     13  H1  UNL     1      36.043  36.125  46.184  1.00  0.00     0.177 HD
ATOM     14  H2  UNL     1      34.856  38.786  46.422  1.00  0.00     0.184 HD
HETATM   15  O2  UNL     1      33.906  39.776  43.900  1.00  0.00    -0.266 OA
BRANCH  11  16
HETATM   16  C3  UNL     1      36.487  39.108  45.423  1.00  0.00     0.087 C 
HETATM   17  C4  UNL     1      36.675  40.447  46.072  1.00  0.00     0.074 C 
BRANCH  16  18
HETATM   18  C5  UNL     1      37.530  38.624  44.536  1.00  0.00     0.277 C 
HETATM   19  N3  UNL     1      38.696  38.013  45.024  1.00  0.00    -0.056 NA
HETATM   20  O1  UNL     1      37.394  38.749  43.298  1.00  0.00    -0.270 OA
ENDBRANCH  16  18
ENDBRANCH  11  16
ENDBRANCH   1   6
BRANCH   3  21
HETATM   21  O3  UNL     1      29.718  37.241  40.635  1.00  0.00    -0.275 OA
BRANCH  21  22
HETATM   22  C10 UNL     1      29.918  35.879  40.364  1.00  0.00     0.280 C 
HETATM   23  O4  UNL     1      31.012  35.507  39.941  1.00  0.00    -0.263 OA
BRANCH  22  24
HETATM   24  C11 UNL     1      28.779  34.963  40.608  1.00  0.00     0.245 C 
BRANCH  24  25
HETATM   25  N5  UNL     1      27.894  34.875  39.469  1.00  0.00    -0.139 NA
BRANCH  25  26
HETATM   26  N6  UNL     1      28.422  35.709  38.463  1.00  0.00    -0.348 N 
ATOM     27  H62 UNL     1      27.880  36.325  37.857  1.00  0.00     0.172 HD
ATOM     28  H61 UNL     1      29.433  35.577  38.462  1.00  0.00     0.172 HD
ENDBRANCH  25  26
ENDBRANCH  24  25
ENDBRANCH  22  24
ENDBRANCH  21  22
ENDBRANCH   3  21
BRANCH   4  29
HETATM   29  N7  UNL     1      30.867  39.507  38.772  1.00  0.00    -0.313 N 
HETATM   30  C13 UNL     1      30.530  38.836  37.628  1.00  0.00     0.280 C 
HETATM   31  O5  UNL     1      30.523  37.621  37.427  1.00  0.00    -0.265 OA
ATOM     32  H7  UNL     1      30.793  40.523  38.725  1.00  0.00     0.170 HD
BRANCH  30  33
HETATM   33  C14 UNL     1      30.105  39.640  36.432  1.00  0.00     0.143 A 
HETATM   34  N8  UNL     1      30.892  40.186  35.525  1.00  0.00    -0.345 N 
HETATM   35  C15 UNL     1      30.373  40.859  34.543  1.00  0.00     0.071 A 
ATOM     36  H8  UNL     1      31.904  40.080  35.595  1.00  0.00     0.166 HD
HETATM   37  C17 UNL     1      29.006  40.967  34.502  1.00  0.00     0.082 A 
HETATM   38  S1  UNL     1      28.552  40.079  35.900  1.00  0.00    -0.076 SA
BRANCH  35  39
HETATM   39  C16 UNL     1      31.237  41.508  33.475  1.00  0.00     0.305 C 
BRANCH  39  40
HETATM   40  O6  UNL     1      32.406  40.735  33.308  1.00  0.00    -0.366 OA
ATOM     41  H6  UNL     1      32.975  40.878  34.056  1.00  0.00     0.213 HD
ENDBRANCH  39  40
BRANCH  39  42
HETATM   42  O7  UNL     1      30.588  41.544  32.261  1.00  0.00    -0.366 OA
ATOM     43  H7  UNL     1      31.039  41.015  31.614  1.00  0.00     0.213 HD
ENDBRANCH  39  42
ENDBRANCH  35  39
ENDBRANCH  30  33
ENDBRANCH   4  29
TORSDOF 13
ENDMDL
MODEL 4
REMARK VINA RESULT: -7.760217255      2.492      3.533
REMARK  13 active torsions:
REMARK  status: ('A' for Active; 'I' for Inactive)
REMARK       I    between atoms: N1_2  and  C2_4 
REMARK       I    between atoms: C2_4  and  N2_5 
REMARK       I    between atoms: C2_4  and  N4_12 
REMARK    1  A    between atoms: N2_5  and  C3_7 
REMARK    2  A    between atoms: C3_7  and  C5_9 
REMARK       I    between atoms: N4_12  and  C6_14 
REMARK    3  A    between atoms: C6_14  and  C7_16 
REMARK    4  A    between atoms: C9_18  and  O3_19 
REMARK    5  A    between atoms: O3_19  and  C10_20 
REMARK    6  A    between atoms: C10_20  and  C11_22 
REMARK    7  A    between atoms: C11_22  and  N5_23 
REMARK    8  A    between atoms: N5_23  and  N6_24 
REMARK    9  A    between atoms: C12_27  and  N7_28 
REMARK       I    between atoms: N7_28  and  C13_30 
REMARK   10  A    between atoms: C13_30  and  C14_32 
REMARK   11  A    between atoms: C15_35  and  C16_36 
REMARK   12  A    between atoms: C16_36  and  O6_37 
REMARK   13  A    between atoms: C16_36  and  O7_39 
ROOT
HETATM    1  C7  UNL     1      31.384  37.153  39.924  1.00  0.00     0.078 A 
HETATM    2  C8  UNL     1      30.902  38.168  40.683  1.00  0.00     0.065 A 
HETATM    3  C9  UNL     1      31.623  38.551  41.756  1.00  0.00     0.114 A 
HETATM    4  C12 UNL     1      32.785  37.915  42.029  1.00  0.00     0.112 A 
HETATM    5  S2  UNL     1      32.826  36.745  40.704  1.00  0.00    -0.064 SA
ENDROOT
BRANCH   1   6
HETATM    6  C6  UNL     1      30.832  36.523  38.719  1.00  0.00     0.276 C 
HETATM    7  N4  UNL     1      30.621  35.137  38.712  1.00  0.00    -0.155 N 
HETATM    8  C2  UNL     1      30.102  34.382  37.642  1.00  0.00     0.680 C 
ATOM      9  H4  UNL     1      30.865  34.629  39.562  1.00  0.00     0.187 HD
HETATM   10  N1  UNL     1      29.932  33.101  37.693  1.00  0.00    -0.230 N 
HETATM   11  N2  UNL     1      29.745  35.021  36.441  1.00  0.00    -0.191 N 
HETATM   12  C1  UNL     1      30.271  32.373  38.882  1.00  0.00     0.165 C 
ATOM     13  H1  UNL     1      29.555  32.606  36.885  1.00  0.00     0.177 HD
ATOM     14  H2  UNL     1      30.489  35.134  35.753  1.00  0.00     0.184 HD
HETATM   15  O2  UNL     1      30.557  37.235  37.709  1.00  0.00    -0.266 OA
BRANCH  11  16
HETATM   16  C3  UNL     1      28.613  35.469  36.118  1.00  0.00     0.087 C 
HETATM   17  C4  UNL     1      28.321  35.755  34.675  1.00  0.00     0.074 C 
BRANCH  16  18
HETATM   18  C5  UNL     1      27.572  35.736  37.094  1.00  0.00     0.277 C 
HETATM   19  N3  UNL     1      26.924  34.702  37.790  1.00  0.00    -0.056 NA
HETATM   20  O1  UNL     1      27.236  36.918  37.330  1.00  0.00    -0.270 OA
ENDBRANCH  16  18
ENDBRANCH  11  16
ENDBRANCH   1   6
BRANCH   3  21
HETATM   21  O3  UNL     1      31.132  39.625  42.565  1.00  0.00    -0.275 OA
BRANCH  21  22
HETATM   22  C10 UNL     1      31.774  40.869  42.463  1.00  0.00     0.280 C 
HETATM   23  O4  UNL     1      32.597  41.190  43.319  1.00  0.00    -0.263 OA
BRANCH  22  24
HETATM   24  C11 UNL     1      31.412  41.727  41.311  1.00  0.00     0.245 C 
BRANCH  24  25
HETATM   25  N5  UNL     1      32.572  42.322  40.685  1.00  0.00    -0.139 NA
BRANCH  25  26
HETATM   26  N6  UNL     1      33.541  41.308  40.551  1.00  0.00    -0.348 N 
ATOM     27  H62 UNL     1      33.536  40.572  39.845  1.00  0.00     0.172 HD
ATOM     28  H61 UNL     1      34.233  41.451  41.286  1.00  0.00     0.172 HD
ENDBRANCH  25  26
ENDBRANCH  24  25
ENDBRANCH  22  24
ENDBRANCH  21  22
ENDBRANCH   3  21
BRANCH   4  29
HETATM   29  N7  UNL     1      33.769  37.968  43.039  1.00  0.00    -0.313 N 
HETATM   30  C13 UNL     1      34.886  38.755  43.108  1.00  0.00     0.280 C 
HETATM   31  O5  UNL     1      35.276  39.602  42.303  1.00  0.00    -0.265 OA
ATOM     32  H7  UNL     1      33.628  37.333  43.825  1.00  0.00     0.170 HD
BRANCH  30  33
HETATM   33  C14 UNL     1      35.789  38.606  44.299  1.00  0.00     0.143 A 
HETATM   34  N8  UNL     1      36.260  37.479  44.799  1.00  0.00    -0.345 N 
HETATM   35  C15 UNL     1      37.032  37.511  45.842  1.00  0.00     0.071 A 
ATOM     36  H8  UNL     1      36.017  36.587  44.368  1.00  0.00     0.166 HD
HETATM   37  C17 UNL     1      37.324  38.740  46.377  1.00  0.00     0.082 A 
HETATM   38  S1  UNL     1      36.453  39.783  45.328  1.00  0.00    -0.076 SA
BRANCH  35  39
HETATM   39  C16 UNL     1      37.598  36.241  46.456  1.00  0.00     0.305 C 
BRANCH  39  40
HETATM   40  O6  UNL     1      37.121  35.133  45.724  1.00  0.00    -0.366 OA
ATOM     41  H6  UNL     1      37.862  34.603  45.454  1.00  0.00     0.213 HD
ENDBRANCH  39  40
BRANCH  39  42
HETATM   42  O7  UNL     1      38.973  36.222  46.386  1.00  0.00    -0.366 OA
ATOM     43  H7  UNL     1      39.351  35.817  47.158  1.00  0.00     0.213 HD
ENDBRANCH  39  42
ENDBRANCH  35  39
ENDBRANCH  30  33
ENDBRANCH   4  29
TORSDOF 13
ENDMDL
MODEL 5
REMARK VINA RESULT: -7.756728399      1.372      1.715
REMARK  13 active torsions:
REMARK  status: ('A' for Active; 'I' for Inactive)
REMARK       I    between atoms: N1_2  and  C2_4 
REMARK       I    between atoms: C2_4  and  N2_5 
REMARK       I    between atoms: C2_4  and  N4_12 
REMARK    1  A    between atoms: N2_5  and  C3_7 
REMARK    2  A    between atoms: C3_7  and  C5_9 
REMARK       I    between atoms: N4_12  and  C6_14 
REMARK    3  A    between atoms: C6_14  and  C7_16 
REMARK    4  A    between atoms: C9_18  and  O3_19 
REMARK    5  A    between atoms: O3_19  and  C10_20 
REMARK    6  A    between atoms: C10_20  and  C11_22 
REMARK    7  A    between atoms: C11_22  and  N5_23 
REMARK    8  A    between atoms: N5_23  and  N6_24 
REMARK    9  A    between atoms: C12_27  and  N7_28 
REMARK       I    between atoms: N7_28  and  C13_30 
REMARK   10  A    between atoms: C13_30  and  C14_32 
REMARK   11  A    between atoms: C15_35  and  C16_36 
REMARK   12  A    between atoms: C16_36  and  O6_37 
REMARK   13  A    between atoms: C16_36  and  O7_39 
ROOT
HETATM    1  C7  UNL     1      30.835  36.168  41.733  1.00  0.00     0.078 A 
HETATM    2  C8  UNL     1      30.552  37.489  41.853  1.00  0.00     0.065 A 
HETATM    3  C9  UNL     1      31.433  38.265  42.516  1.00  0.00     0.114 A 
HETATM    4  C12 UNL     1      32.551  37.703  43.030  1.00  0.00     0.112 A 
HETATM    5  S2  UNL     1      32.313  36.021  42.537  1.00  0.00    -0.064 SA
ENDROOT
BRANCH   1   6
HETATM    6  C6  UNL     1      30.081  35.090  41.082  1.00  0.00     0.276 C 
HETATM    7  N4  UNL     1      30.220  34.902  39.700  1.00  0.00    -0.155 N 
HETATM    8  C2  UNL     1      29.570  33.921  38.927  1.00  0.00     0.680 C 
ATOM      9  H4  UNL     1      30.850  35.536  39.209  1.00  0.00     0.187 HD
HETATM   10  N1  UNL     1      29.735  33.798  37.650  1.00  0.00    -0.230 N 
HETATM   11  N2  UNL     1      28.686  33.016  39.542  1.00  0.00    -0.191 N 
HETATM   12  C1  UNL     1      30.619  34.681  36.946  1.00  0.00     0.165 C 
ATOM     13  H1  UNL     1      29.234  33.069  37.141  1.00  0.00     0.177 HD
ATOM     14  H2  UNL     1      27.717  33.320  39.627  1.00  0.00     0.184 HD
HETATM   15  O2  UNL     1      29.321  34.351  41.774  1.00  0.00    -0.266 OA
BRANCH  11  16
HETATM   16  C3  UNL     1      28.954  31.873  39.999  1.00  0.00     0.087 C 
HETATM   17  C4  UNL     1      28.304  31.420  41.272  1.00  0.00     0.074 C 
BRANCH  16  18
HETATM   18  C5  UNL     1      29.885  30.970  39.345  1.00  0.00     0.277 C 
HETATM   19  N3  UNL     1      29.854  30.747  37.959  1.00  0.00    -0.056 NA
HETATM   20  O1  UNL     1      30.744  30.369  40.028  1.00  0.00    -0.270 OA
ENDBRANCH  16  18
ENDBRANCH  11  16
ENDBRANCH   1   6
BRANCH   3  21
HETATM   21  O3  UNL     1      31.153  39.663  42.647  1.00  0.00    -0.275 OA
BRANCH  21  22
HETATM   22  C10 UNL     1      31.536  40.509  41.594  1.00  0.00     0.280 C 
HETATM   23  O4  UNL     1      30.935  40.440  40.522  1.00  0.00    -0.263 OA
BRANCH  22  24
HETATM   24  C11 UNL     1      32.656  41.444  41.847  1.00  0.00     0.245 C 
BRANCH  24  25
HETATM   25  N5  UNL     1      33.946  40.817  41.662  1.00  0.00    -0.139 NA
BRANCH  25  26
HETATM   26  N6  UNL     1      33.843  39.976  40.536  1.00  0.00    -0.348 N 
ATOM     27  H62 UNL     1      33.244  39.154  40.461  1.00  0.00     0.172 HD
ATOM     28  H61 UNL     1      34.475  40.344  39.825  1.00  0.00     0.172 HD
ENDBRANCH  25  26
ENDBRANCH  24  25
ENDBRANCH  22  24
ENDBRANCH  21  22
ENDBRANCH   3  21
BRANCH   4  29
HETATM   29  N7  UNL     1      33.650  38.130  43.803  1.00  0.00    -0.313 N 
HETATM   30  C13 UNL     1      34.975  38.170  43.463  1.00  0.00     0.280 C 
HETATM   31  O5  UNL     1      35.501  37.850  42.396  1.00  0.00    -0.265 OA
ATOM     32  H7  UNL     1      33.427  38.452  44.745  1.00  0.00     0.170 HD
BRANCH  30  33
HETATM   33  C14 UNL     1      35.958  38.662  44.488  1.00  0.00     0.143 A 
HETATM   34  N8  UNL     1      36.148  39.911  44.867  1.00  0.00    -0.345 N 
HETATM   35  C15 UNL     1      37.043  40.180  45.768  1.00  0.00     0.071 A 
ATOM     36  H8  UNL     1      35.595  40.661  44.453  1.00  0.00     0.166 HD
HETATM   37  C17 UNL     1      37.755  39.129  46.289  1.00  0.00     0.082 A 
HETATM   38  S1  UNL     1      37.079  37.803  45.433  1.00  0.00    -0.076 SA
BRANCH  35  39
HETATM   39  C16 UNL     1      37.300  41.603  46.237  1.00  0.00     0.305 C 
BRANCH  39  40
HETATM   40  O6  UNL     1      36.066  42.199  46.573  1.00  0.00    -0.366 OA
ATOM     41  H6  UNL     1      36.194  43.136  46.661  1.00  0.00     0.213 HD
ENDBRANCH  39  40
BRANCH  39  42
HETATM   42  O7  UNL     1      38.091  41.622  47.364  1.00  0.00    -0.366 OA
ATOM     43  H7  UNL     1      37.855  42.342  47.937  1.00  0.00     0.213 HD
ENDBRANCH  39  42
ENDBRANCH  35  39
ENDBRANCH  30  33
ENDBRANCH   4  29
TORSDOF 13
ENDMDL
