MODEL 1
REMARK VINA RESULT: -8.856114154      0.000      0.000
REMARK  14 active torsions:
REMARK  status: ('A' for Active; 'I' for Inactive)
REMARK    1  A    between atoms: O1_1  and  C1_3 
REMARK    2  A    between atoms: C1_3  and  N1_4 
REMARK    3  A    between atoms: C1_3  and  C5_17 
REMARK    4  A    between atoms: N1_4  and  C2_6 
REMARK    5  A    between atoms: C3_13  and  C4_14 
REMARK    6  A    between atoms: C4_14  and  O2_15 
REMARK    7  A    between atoms: C8_20  and  N5_21 
REMARK    8  A    between atoms: C9_25  and  C10_26 
REMARK    9  A    between atoms: C14_35  and  N10_36 
REMARK   10  A    between atoms: N10_36  and  C15_38 
REMARK   11  A    between atoms: C15_38  and  C16_39 
REMARK   12  A    between atoms: C16_39  and  O3_40 
REMARK   13  A    between atoms: C16_39  and  C17_42 
REMARK   14  A    between atoms: C17_42  and  O4_43 
ROOT
HETATM    1  C5  UNL     1      35.150  35.628  43.608  1.00  0.00     0.084 A 
HETATM    2  C6  UNL     1      35.107  36.992  43.616  1.00  0.00     0.051 A 
HETATM    3  C7  UNL     1      35.952  37.720  44.461  1.00  0.00     0.043 A 
HETATM    4  C8  UNL     1      35.923  39.105  44.486  1.00  0.00     0.171 A 
HETATM    5  N9  UNL     1      36.753  39.758  45.313  1.00  0.00    -0.173 N 
ATOM      6  H9  UNL     1      36.729  40.777  45.329  1.00  0.00     0.186 HD
HETATM    7  C14 UNL     1      37.628  39.108  46.134  1.00  0.00     0.680 A 
HETATM    8  N11 UNL     1      37.674  37.766  46.126  1.00  0.00    -0.190 N 
ATOM      9  H11 UNL     1      38.323  37.265  46.735  1.00  0.00     0.184 HD
HETATM   10  C18 UNL     1      36.844  37.090  45.299  1.00  0.00     0.078 A 
HETATM   11  C19 UNL     1      36.865  35.712  45.265  1.00  0.00     0.119 A 
HETATM   12  N12 UNL     1      36.051  35.026  44.455  1.00  0.00    -0.360 N 
ATOM     13  H12 UNL     1      36.102  34.007  44.466  1.00  0.00     0.165 HD
ENDROOT
BRANCH   1  14
HETATM   14  C1  UNL     1      34.295  34.765  42.818  1.00  0.00     0.169 C 
BRANCH  14  15
HETATM   15  O1  UNL     1      34.480  33.472  42.967  1.00  0.00    -0.344 OA
ATOM     16  H1  UNL     1      34.833  33.224  43.814  1.00  0.00     0.219 HD
ENDBRANCH  14  15
BRANCH  14  17
HETATM   17  N1  UNL     1      33.296  35.095  41.919  1.00  0.00    -0.319 N 
ATOM     18  H1  UNL     1      33.446  34.755  40.969  1.00  0.00     0.169 HD
BRANCH  17  19
HETATM   19  C2  UNL     1      32.103  35.827  42.103  1.00  0.00     0.149 A 
HETATM   20  N2  UNL     1      31.081  35.662  42.946  1.00  0.00    -0.269 N 
HETATM   21  N3  UNL     1      30.130  36.554  42.733  1.00  0.00    -0.241 N 
ATOM     22  H2  UNL     1      31.040  34.938  43.664  1.00  0.00     0.190 HD
HETATM   23  N4  UNL     1      30.511  37.328  41.739  1.00  0.00    -0.285 N 
ATOM     24  H3  UNL     1      29.253  36.629  43.249  1.00  0.00     0.208 HD
HETATM   25  C3  UNL     1      31.716  36.923  41.316  1.00  0.00     0.096 A 
ATOM     26  H4  UNL     1      29.977  38.108  41.354  1.00  0.00     0.188 HD
BRANCH  25  27
HETATM   27  C4  UNL     1      32.531  37.504  40.219  1.00  0.00     0.226 C 
BRANCH  27  28
HETATM   28  O2  UNL     1      33.857  37.675  40.606  1.00  0.00    -0.395 OA
ATOM     29  H2  UNL     1      34.254  38.418  40.167  1.00  0.00     0.209 HD
ENDBRANCH  27  28
ENDBRANCH  25  27
ENDBRANCH  17  19
ENDBRANCH  14  17
ENDBRANCH   1  14
BRANCH   4  30
HETATM   30  N5  UNL     1      35.026  39.817  43.645  1.00  0.00    -0.160 N 
HETATM   31  N6  UNL     1      35.046  39.721  42.326  1.00  0.00     0.004 NA
HETATM   32  N7  UNL     1      34.093  40.502  41.845  1.00  0.00    -0.266 N 
HETATM   33  C9  UNL     1      33.454  41.105  42.851  1.00  0.00     0.145 A 
ATOM     34  H7  UNL     1      33.879  40.626  40.855  1.00  0.00     0.186 HD
HETATM   35  N8  UNL     1      34.056  40.660  43.962  1.00  0.00    -0.262 N 
ATOM     36  H8  UNL     1      33.803  40.931  44.913  1.00  0.00     0.190 HD
BRANCH  33  37
HETATM   37  C10 UNL     1      32.317  42.066  42.764  1.00  0.00     0.017 A 
HETATM   38  C11 UNL     1      32.348  43.303  43.305  1.00  0.00     0.023 A 
HETATM   39  C12 UNL     1      31.236  44.084  43.152  1.00  0.00     0.050 A 
HETATM   40  S1  UNL     1      30.182  43.089  42.267  1.00  0.00    -0.113 SA
HETATM   41  C13 UNL     1      31.165  41.709  42.108  1.00  0.00     0.065 A 
ENDBRANCH  33  37
ENDBRANCH   4  30
BRANCH   7  42
HETATM   42  N10 UNL     1      38.378  39.836  46.887  1.00  0.00    -0.223 N 
ATOM     43  H10 UNL     1      39.377  39.639  46.945  1.00  0.00     0.177 HD
BRANCH  42  44
HETATM   44  C15 UNL     1      37.822  40.924  47.649  1.00  0.00     0.172 C 
BRANCH  44  45
HETATM   45  C16 UNL     1      38.695  42.174  47.546  1.00  0.00     0.160 C 
BRANCH  45  46
HETATM   46  O3  UNL     1      39.960  41.896  47.076  1.00  0.00    -0.392 OA
ATOM     47  H3  UNL     1      40.598  42.546  47.345  1.00  0.00     0.210 HD
ENDBRANCH  45  46
BRANCH  45  48
HETATM   48  C17 UNL     1      38.017  43.059  46.495  1.00  0.00     0.197 C 
BRANCH  48  49
HETATM   49  O4  UNL     1      36.818  42.509  46.064  1.00  0.00    -0.398 OA
ATOM     50  H4  UNL     1      36.134  43.167  46.006  1.00  0.00     0.209 HD
ENDBRANCH  48  49
ENDBRANCH  45  48
ENDBRANCH  44  45
ENDBRANCH  42  44
ENDBRANCH   7  42
TORSDOF 14
ENDMDL
MODEL 2
REMARK VINA RESULT: -8.625212455      1.755      2.406
REMARK  14 active torsions:
REMARK  status: ('A' for Active; 'I' for Inactive)
REMARK    1  A    between atoms: O1_1  and  C1_3 
REMARK    2  A    between atoms: C1_3  and  N1_4 
REMARK    3  A    between atoms: C1_3  and  C5_17 
REMARK    4  A    between atoms: N1_4  and  C2_6 
REMARK    5  A    between atoms: C3_13  and  C4_14 
REMARK    6  A    between atoms: C4_14  and  O2_15 
REMARK    7  A    between atoms: C8_20  and  N5_21 
REMARK    8  A    between atoms: C9_25  and  C10_26 
REMARK    9  A    between atoms: C14_35  and  N10_36 
REMARK   10  A    between atoms: N10_36  and  C15_38 
REMARK   11  A    between atoms: C15_38  and  C16_39 
REMARK   12  A    between atoms: C16_39  and  O3_40 
REMARK   13  A    between atoms: C16_39  and  C17_42 
REMARK   14  A    between atoms: C17_42  and  O4_43 
ROOT
HETATM    1  C5  UNL     1      32.682  36.204  42.414  1.00  0.00     0.084 A 
HETATM    2  C6  UNL     1      33.108  37.481  42.638  1.00  0.00     0.051 A 
HETATM    3  C7  UNL     1      34.129  37.734  43.562  1.00  0.00     0.043 A 
HETATM    4  C8  UNL     1      34.575  39.022  43.806  1.00  0.00     0.171 A 
HETATM    5  N9  UNL     1      35.556  39.213  44.699  1.00  0.00    -0.173 N 
ATOM      6  H9  UNL     1      35.881  40.164  44.876  1.00  0.00     0.186 HD
HETATM    7  C14 UNL     1      36.135  38.182  45.380  1.00  0.00     0.680 A 
HETATM    8  N11 UNL     1      35.719  36.924  45.160  1.00  0.00    -0.190 N 
ATOM      9  H11 UNL     1      36.142  36.143  45.662  1.00  0.00     0.184 HD
HETATM   10  C18 UNL     1      34.730  36.712  44.262  1.00  0.00     0.078 A 
HETATM   11  C19 UNL     1      34.279  35.434  44.011  1.00  0.00     0.119 A 
HETATM   12  N12 UNL     1      33.301  35.205  43.128  1.00  0.00    -0.360 N 
ATOM     13  H12 UNL     1      33.000  34.242  42.977  1.00  0.00     0.165 HD
ENDROOT
BRANCH   1  14
HETATM   14  C1  UNL     1      31.604  35.821  41.525  1.00  0.00     0.169 C 
BRANCH  14  15
HETATM   15  O1  UNL     1      31.652  34.597  41.048  1.00  0.00    -0.344 OA
ATOM     16  H1  UNL     1      32.458  34.134  41.246  1.00  0.00     0.219 HD
ENDBRANCH  14  15
BRANCH  14  17
HETATM   17  N1  UNL     1      30.512  36.555  41.095  1.00  0.00    -0.319 N 
ATOM     18  H1  UNL     1      29.606  36.139  41.309  1.00  0.00     0.169 HD
BRANCH  17  19
HETATM   19  C2  UNL     1      30.449  37.786  40.407  1.00  0.00     0.149 A 
HETATM   20  N2  UNL     1      30.402  39.047  40.844  1.00  0.00    -0.269 N 
HETATM   21  N3  UNL     1      30.288  39.902  39.843  1.00  0.00    -0.241 N 
ATOM     22  H2  UNL     1      30.448  39.316  41.827  1.00  0.00     0.190 HD
HETATM   23  N4  UNL     1      30.259  39.215  38.720  1.00  0.00    -0.285 N 
ATOM     24  H3  UNL     1      30.233  40.917  39.926  1.00  0.00     0.208 HD
HETATM   25  C3  UNL     1      30.354  37.910  39.012  1.00  0.00     0.096 A 
ATOM     26  H4  UNL     1      30.177  39.610  37.784  1.00  0.00     0.188 HD
BRANCH  25  27
HETATM   27  C4  UNL     1      30.364  36.770  38.060  1.00  0.00     0.226 C 
BRANCH  27  28
HETATM   28  O2  UNL     1      31.521  36.008  38.193  1.00  0.00    -0.395 OA
ATOM     29  H2  UNL     1      32.189  36.473  38.681  1.00  0.00     0.209 HD
ENDBRANCH  27  28
ENDBRANCH  25  27
ENDBRANCH  17  19
ENDBRANCH  14  17
ENDBRANCH   1  14
BRANCH   4  30
HETATM   30  N5  UNL     1      33.996  40.121  43.115  1.00  0.00    -0.160 N 
HETATM   31  N6  UNL     1      34.311  40.435  41.868  1.00  0.00     0.004 NA
HETATM   32  N7  UNL     1      33.604  41.498  41.524  1.00  0.00    -0.266 N 
HETATM   33  C9  UNL     1      32.831  41.876  42.545  1.00  0.00     0.145 A 
ATOM     34  H7  UNL     1      33.644  41.960  40.615  1.00  0.00     0.186 HD
HETATM   35  N8  UNL     1      33.096  41.001  43.524  1.00  0.00    -0.262 N 
ATOM     36  H8  UNL     1      32.666  41.011  44.450  1.00  0.00     0.190 HD
BRANCH  33  37
HETATM   37  C10 UNL     1      31.878  43.023  42.593  1.00  0.00     0.017 A 
HETATM   38  C11 UNL     1      32.266  44.301  42.791  1.00  0.00     0.023 A 
HETATM   39  C12 UNL     1      31.289  45.258  42.813  1.00  0.00     0.050 A 
HETATM   40  S1  UNL     1      29.866  44.365  42.560  1.00  0.00    -0.113 SA
HETATM   41  C13 UNL     1      30.533  42.804  42.432  1.00  0.00     0.065 A 
ENDBRANCH  33  37
ENDBRANCH   4  30
BRANCH   7  42
HETATM   42  N10 UNL     1      37.069  38.481  46.215  1.00  0.00    -0.223 N 
ATOM     43  H10 UNL     1      37.195  37.915  47.054  1.00  0.00     0.177 HD
BRANCH  42  44
HETATM   44  C15 UNL     1      37.937  39.606  45.980  1.00  0.00     0.172 C 
BRANCH  44  45
HETATM   45  C16 UNL     1      37.931  40.568  47.167  1.00  0.00     0.160 C 
BRANCH  45  46
HETATM   46  O3  UNL     1      39.201  40.856  47.617  1.00  0.00    -0.392 OA
ATOM     47  H3  UNL     1      39.200  41.246  48.483  1.00  0.00     0.210 HD
ENDBRANCH  45  46
BRANCH  45  48
HETATM   48  C17 UNL     1      37.346  41.877  46.628  1.00  0.00     0.197 C 
BRANCH  48  49
HETATM   49  O4  UNL     1      36.168  41.658  45.928  1.00  0.00    -0.398 OA
ATOM     50  H4  UNL     1      35.854  42.455  45.516  1.00  0.00     0.209 HD
ENDBRANCH  48  49
ENDBRANCH  45  48
ENDBRANCH  44  45
ENDBRANCH  42  44
ENDBRANCH   7  42
TORSDOF 14
ENDMDL
MODEL 3
REMARK VINA RESULT: -8.552003606      3.169      4.422
REMARK  14 active torsions:
REMARK  status: ('A' for Active; 'I' for Inactive)
REMARK    1  A    between atoms: O1_1  and  C1_3 
REMARK    2  A    between atoms: C1_3  and  N1_4 
REMARK    3  A    between atoms: C1_3  and  C5_17 
REMARK    4  A    between atoms: N1_4  and  C2_6 
REMARK    5  A    between atoms: C3_13  and  C4_14 
REMARK    6  A    between atoms: C4_14  and  O2_15 
REMARK    7  A    between atoms: C8_20  and  N5_21 
REMARK    8  A    between atoms: C9_25  and  C10_26 
REMARK    9  A    between atoms: C14_35  and  N10_36 
REMARK   10  A    between atoms: N10_36  and  C15_38 
REMARK   11  A    between atoms: C15_38  and  C16_39 
REMARK   12  A    between atoms: C16_39  and  O3_40 
REMARK   13  A    between atoms: C16_39  and  C17_42 
REMARK   14  A    between atoms: C17_42  and  O4_43 
ROOT
HETATM    1  C5  UNL     1      31.421  36.289  41.848  1.00  0.00     0.084 A 
HETATM    2  C6  UNL     1      32.038  37.480  41.598  1.00  0.00     0.051 A 
HETATM    3  C7  UNL     1      33.322  37.730  42.096  1.00  0.00     0.043 A 
HETATM    4  C8  UNL     1      33.965  38.933  41.855  1.00  0.00     0.171 A 
HETATM    5  N9  UNL     1      35.195  39.125  42.353  1.00  0.00    -0.173 N 
ATOM      6  H9  UNL     1      35.665  40.012  42.174  1.00  0.00     0.186 HD
HETATM    7  C14 UNL     1      35.840  38.176  43.093  1.00  0.00     0.680 A 
HETATM    8  N11 UNL     1      35.236  37.002  43.339  1.00  0.00    -0.190 N 
ATOM      9  H11 UNL     1      35.705  36.283  43.891  1.00  0.00     0.184 HD
HETATM   10  C18 UNL     1      33.995  36.791  42.845  1.00  0.00     0.078 A 
HETATM   11  C19 UNL     1      33.346  35.598  43.078  1.00  0.00     0.119 A 
HETATM   12  N12 UNL     1      32.118  35.371  42.598  1.00  0.00    -0.360 N 
ATOM     13  H12 UNL     1      31.678  34.472  42.798  1.00  0.00     0.165 HD
ENDROOT
BRANCH   1  14
HETATM   14  C1  UNL     1      30.080  35.933  41.432  1.00  0.00     0.169 C 
BRANCH  14  15
HETATM   15  O1  UNL     1      29.175  35.872  42.382  1.00  0.00    -0.344 OA
ATOM     16  H1  UNL     1      29.531  35.721  43.251  1.00  0.00     0.219 HD
ENDBRANCH  14  15
BRANCH  14  17
HETATM   17  N1  UNL     1      29.596  35.645  40.167  1.00  0.00    -0.319 N 
ATOM     18  H1  UNL     1      28.681  36.045  39.959  1.00  0.00     0.169 HD
BRANCH  17  19
HETATM   19  C2  UNL     1      30.162  34.888  39.119  1.00  0.00     0.149 A 
HETATM   20  N2  UNL     1      30.566  33.617  39.060  1.00  0.00    -0.269 N 
HETATM   21  N3  UNL     1      31.098  33.334  37.884  1.00  0.00    -0.241 N 
ATOM     22  H2  UNL     1      30.475  32.949  39.825  1.00  0.00     0.190 HD
HETATM   23  N4  UNL     1      31.054  34.421  37.142  1.00  0.00    -0.285 N 
ATOM     24  H3  UNL     1      31.477  32.430  37.600  1.00  0.00     0.208 HD
HETATM   25  C3  UNL     1      30.488  35.404  37.855  1.00  0.00     0.096 A 
ATOM     26  H4  UNL     1      31.394  34.501  36.184  1.00  0.00     0.188 HD
BRANCH  25  27
HETATM   27  C4  UNL     1      30.232  36.802  37.422  1.00  0.00     0.226 C 
BRANCH  27  28
HETATM   28  O2  UNL     1      30.881  37.717  38.246  1.00  0.00    -0.395 OA
ATOM     29  H2  UNL     1      30.342  38.482  38.407  1.00  0.00     0.209 HD
ENDBRANCH  27  28
ENDBRANCH  25  27
ENDBRANCH  17  19
ENDBRANCH  14  17
ENDBRANCH   1  14
BRANCH   4  30
HETATM   30  N5  UNL     1      33.326  39.945  41.089  1.00  0.00    -0.160 N 
HETATM   31  N6  UNL     1      33.612  41.230  41.212  1.00  0.00     0.004 NA
HETATM   32  N7  UNL     1      32.849  41.902  40.365  1.00  0.00    -0.266 N 
HETATM   33  C9  UNL     1      32.067  41.053  39.693  1.00  0.00     0.145 A 
ATOM     34  H7  UNL     1      32.855  42.915  40.245  1.00  0.00     0.186 HD
HETATM   35  N8  UNL     1      32.384  39.840  40.163  1.00  0.00    -0.262 N 
ATOM     36  H8  UNL     1      31.963  38.963  39.854  1.00  0.00     0.190 HD
BRANCH  33  37
HETATM   37  C10 UNL     1      31.057  41.378  38.644  1.00  0.00     0.017 A 
HETATM   38  C11 UNL     1      31.247  41.132  37.330  1.00  0.00     0.023 A 
HETATM   39  C12 UNL     1      30.239  41.480  36.473  1.00  0.00     0.050 A 
HETATM   40  S1  UNL     1      29.061  42.135  37.507  1.00  0.00    -0.113 SA
HETATM   41  C13 UNL     1      29.864  41.958  38.997  1.00  0.00     0.065 A 
ENDBRANCH  33  37
ENDBRANCH   4  30
BRANCH   7  42
HETATM   42  N10 UNL     1      37.019  38.468  43.522  1.00  0.00    -0.223 N 
ATOM     43  H10 UNL     1      37.789  38.557  42.860  1.00  0.00     0.177 HD
BRANCH  42  44
HETATM   44  C15 UNL     1      37.263  38.670  44.927  1.00  0.00     0.172 C 
BRANCH  44  45
HETATM   45  C16 UNL     1      38.345  37.722  45.443  1.00  0.00     0.160 C 
BRANCH  45  46
HETATM   46  O3  UNL     1      38.950  38.189  46.590  1.00  0.00    -0.392 OA
ATOM     47  H3  UNL     1      39.845  37.883  46.678  1.00  0.00     0.210 HD
ENDBRANCH  45  46
BRANCH  45  48
HETATM   48  C17 UNL     1      37.610  36.433  45.825  1.00  0.00     0.197 C 
BRANCH  48  49
HETATM   49  O4  UNL     1      36.291  36.685  46.176  1.00  0.00    -0.398 OA
ATOM     50  H4  UNL     1      36.233  37.130  47.014  1.00  0.00     0.209 HD
ENDBRANCH  48  49
ENDBRANCH  45  48
ENDBRANCH  44  45
ENDBRANCH  42  44
ENDBRANCH   7  42
TORSDOF 14
ENDMDL
MODEL 4
REMARK VINA RESULT: -8.476600258      1.960      2.553
REMARK  14 active torsions:
REMARK  status: ('A' for Active; 'I' for Inactive)
REMARK    1  A    between atoms: O1_1  and  C1_3 
REMARK    2  A    between atoms: C1_3  and  N1_4 
REMARK    3  A    between atoms: C1_3  and  C5_17 
REMARK    4  A    between atoms: N1_4  and  C2_6 
REMARK    5  A    between atoms: C3_13  and  C4_14 
REMARK    6  A    between atoms: C4_14  and  O2_15 
REMARK    7  A    between atoms: C8_20  and  N5_21 
REMARK    8  A    between atoms: C9_25  and  C10_26 
REMARK    9  A    between atoms: C14_35  and  N10_36 
REMARK   10  A    between atoms: N10_36  and  C15_38 
REMARK   11  A    between atoms: C15_38  and  C16_39 
REMARK   12  A    between atoms: C16_39  and  O3_40 
REMARK   13  A    between atoms: C16_39  and  C17_42 
REMARK   14  A    between atoms: C17_42  and  O4_43 
ROOT
HETATM    1  C5  UNL     1      32.731  36.274  42.302  1.00  0.00     0.084 A 
HETATM    2  C6  UNL     1      33.140  37.552  42.548  1.00  0.00     0.051 A 
HETATM    3  C7  UNL     1      34.124  37.807  43.510  1.00  0.00     0.043 A 
HETATM    4  C8  UNL     1      34.552  39.097  43.777  1.00  0.00     0.171 A 
HETATM    5  N9  UNL     1      35.498  39.290  44.707  1.00  0.00    -0.173 N 
ATOM      6  H9  UNL     1      35.810  40.241  44.900  1.00  0.00     0.186 HD
HETATM    7  C14 UNL     1      36.059  38.259  45.404  1.00  0.00     0.680 A 
HETATM    8  N11 UNL     1      35.660  37.000  45.162  1.00  0.00    -0.190 N 
ATOM      9  H11 UNL     1      36.069  36.218  45.675  1.00  0.00     0.184 HD
HETATM   10  C18 UNL     1      34.706  36.786  44.227  1.00  0.00     0.078 A 
HETATM   11  C19 UNL     1      34.274  35.506  43.953  1.00  0.00     0.119 A 
HETATM   12  N12 UNL     1      33.330  35.275  43.033  1.00  0.00    -0.360 N 
ATOM     13  H12 UNL     1      33.042  34.311  42.866  1.00  0.00     0.165 HD
ENDROOT
BRANCH   1  14
HETATM   14  C1  UNL     1      31.689  35.889  41.371  1.00  0.00     0.169 C 
BRANCH  14  15
HETATM   15  O1  UNL     1      31.564  34.601  41.141  1.00  0.00    -0.344 OA
ATOM     16  H1  UNL     1      32.347  34.094  41.326  1.00  0.00     0.219 HD
ENDBRANCH  14  15
BRANCH  14  17
HETATM   17  N1  UNL     1      30.789  36.679  40.678  1.00  0.00    -0.319 N 
ATOM     18  H1  UNL     1      30.127  37.188  41.264  1.00  0.00     0.169 HD
BRANCH  17  19
HETATM   19  C2  UNL     1      30.637  36.895  39.291  1.00  0.00     0.149 A 
HETATM   20  N2  UNL     1      30.613  36.049  38.258  1.00  0.00    -0.269 N 
HETATM   21  N3  UNL     1      30.509  36.693  37.109  1.00  0.00    -0.241 N 
ATOM     22  H2  UNL     1      30.668  35.034  38.345  1.00  0.00     0.190 HD
HETATM   23  N4  UNL     1      30.462  37.984  37.366  1.00  0.00    -0.285 N 
ATOM     24  H3  UNL     1      30.471  36.265  36.184  1.00  0.00     0.208 HD
HETATM   25  C3  UNL     1      30.538  38.161  38.693  1.00  0.00     0.096 A 
ATOM     26  H4  UNL     1      30.382  38.726  36.671  1.00  0.00     0.188 HD
BRANCH  25  27
HETATM   27  C4  UNL     1      30.520  39.447  39.435  1.00  0.00     0.226 C 
BRANCH  27  28
HETATM   28  O2  UNL     1      31.680  39.617  40.185  1.00  0.00    -0.395 OA
ATOM     29  H2  UNL     1      31.606  40.357  40.776  1.00  0.00     0.209 HD
ENDBRANCH  27  28
ENDBRANCH  25  27
ENDBRANCH  17  19
ENDBRANCH  14  17
ENDBRANCH   1  14
BRANCH   4  30
HETATM   30  N5  UNL     1      33.992  40.196  43.070  1.00  0.00    -0.160 N 
HETATM   31  N6  UNL     1      34.273  40.457  41.805  1.00  0.00     0.004 NA
HETATM   32  N7  UNL     1      33.597  41.537  41.450  1.00  0.00    -0.266 N 
HETATM   33  C9  UNL     1      32.876  41.977  42.484  1.00  0.00     0.145 A 
ATOM     34  H7  UNL     1      33.621  41.968  40.526  1.00  0.00     0.186 HD
HETATM   35  N8  UNL     1      33.141  41.123  43.482  1.00  0.00    -0.262 N 
ATOM     36  H8  UNL     1      32.745  41.179  44.421  1.00  0.00     0.190 HD
BRANCH  33  37
HETATM   37  C10 UNL     1      31.970  43.161  42.527  1.00  0.00     0.017 A 
HETATM   38  C11 UNL     1      32.388  44.423  42.286  1.00  0.00     0.023 A 
HETATM   39  C12 UNL     1      31.453  45.419  42.358  1.00  0.00     0.050 A 
HETATM   40  S1  UNL     1      30.028  44.585  42.757  1.00  0.00    -0.113 SA
HETATM   41  C13 UNL     1      30.640  42.998  42.824  1.00  0.00     0.065 A 
ENDBRANCH  33  37
ENDBRANCH   4  30
BRANCH   7  42
HETATM   42  N10 UNL     1      36.959  38.560  46.275  1.00  0.00    -0.223 N 
ATOM     43  H10 UNL     1      37.008  38.038  47.149  1.00  0.00     0.177 HD
BRANCH  42  44
HETATM   44  C15 UNL     1      37.896  39.625  46.029  1.00  0.00     0.172 C 
BRANCH  44  45
HETATM   45  C16 UNL     1      37.931  40.612  47.195  1.00  0.00     0.160 C 
BRANCH  45  46
HETATM   46  O3  UNL     1      39.214  40.880  47.618  1.00  0.00    -0.392 OA
ATOM     47  H3  UNL     1      39.281  41.715  48.066  1.00  0.00     0.210 HD
ENDBRANCH  45  46
BRANCH  45  48
HETATM   48  C17 UNL     1      37.367  41.922  46.636  1.00  0.00     0.197 C 
BRANCH  48  49
HETATM   49  O4  UNL     1      36.178  41.714  45.952  1.00  0.00    -0.398 OA
ATOM     50  H4  UNL     1      35.685  42.521  45.855  1.00  0.00     0.209 HD
ENDBRANCH  48  49
ENDBRANCH  45  48
ENDBRANCH  44  45
ENDBRANCH  42  44
ENDBRANCH   7  42
TORSDOF 14
ENDMDL
MODEL 5
REMARK VINA RESULT: -8.457110776      1.090      1.344
REMARK  14 active torsions:
REMARK  status: ('A' for Active; 'I' for Inactive)
REMARK    1  A    between atoms: O1_1  and  C1_3 
REMARK    2  A    between atoms: C1_3  and  N1_4 
REMARK    3  A    between atoms: C1_3  and  C5_17 
REMARK    4  A    between atoms: N1_4  and  C2_6 
REMARK    5  A    between atoms: C3_13  and  C4_14 
REMARK    6  A    between atoms: C4_14  and  O2_15 
REMARK    7  A    between atoms: C8_20  and  N5_21 
REMARK    8  A    between atoms: C9_25  and  C10_26 
REMARK    9  A    between atoms: C14_35  and  N10_36 
REMARK   10  A    between atoms: N10_36  and  C15_38 
REMARK   11  A    between atoms: C15_38  and  C16_39 
REMARK   12  A    between atoms: C16_39  and  O3_40 
REMARK   13  A    between atoms: C16_39  and  C17_42 
REMARK   14  A    between atoms: C17_42  and  O4_43 
ROOT
HETATM    1  C5  UNL     1      35.135  35.647  43.699  1.00  0.00     0.084 A 
HETATM    2  C6  UNL     1      35.096  37.011  43.684  1.00  0.00     0.051 A 
HETATM    3  C7  UNL     1      35.947  37.751  44.514  1.00  0.00     0.043 A 
HETATM    4  C8  UNL     1      35.923  39.136  44.516  1.00  0.00     0.171 A 
HETATM    5  N9  UNL     1      36.758  39.800  45.328  1.00  0.00    -0.173 N 
ATOM      6  H9  UNL     1      36.737  40.820  45.327  1.00  0.00     0.186 HD
HETATM    7  C14 UNL     1      37.636  39.160  46.156  1.00  0.00     0.680 A 
HETATM    8  N11 UNL     1      37.677  37.819  46.170  1.00  0.00    -0.190 N 
ATOM      9  H11 UNL     1      38.327  37.326  46.784  1.00  0.00     0.184 HD
HETATM   10  C18 UNL     1      36.841  37.131  45.358  1.00  0.00     0.078 A 
HETATM   11  C19 UNL     1      36.857  35.754  45.347  1.00  0.00     0.119 A 
HETATM   12  N12 UNL     1      36.038  35.057  44.552  1.00  0.00    -0.360 N 
ATOM     13  H12 UNL     1      36.086  34.038  44.579  1.00  0.00     0.165 HD
ENDROOT
BRANCH   1  14
HETATM   14  C1  UNL     1      34.273  34.774  42.927  1.00  0.00     0.169 C 
BRANCH  14  15
HETATM   15  O1  UNL     1      34.593  33.499  42.925  1.00  0.00    -0.344 OA
ATOM     16  H1  UNL     1      35.516  33.329  42.775  1.00  0.00     0.219 HD
ENDBRANCH  14  15
BRANCH  14  17
HETATM   17  N1  UNL     1      33.146  35.078  42.183  1.00  0.00    -0.319 N 
ATOM     18  H1  UNL     1      32.455  34.330  42.130  1.00  0.00     0.169 HD
BRANCH  17  19
HETATM   19  C2  UNL     1      32.799  36.255  41.485  1.00  0.00     0.149 A 
HETATM   20  N2  UNL     1      33.532  37.112  40.770  1.00  0.00    -0.269 N 
HETATM   21  N3  UNL     1      32.804  38.124  40.335  1.00  0.00    -0.241 N 
ATOM     22  H2  UNL     1      34.529  36.999  40.582  1.00  0.00     0.190 HD
HETATM   23  N4  UNL     1      31.569  37.952  40.758  1.00  0.00    -0.285 N 
ATOM     24  H3  UNL     1      33.139  38.904  39.769  1.00  0.00     0.208 HD
HETATM   25  C3  UNL     1      31.514  36.817  41.470  1.00  0.00     0.096 A 
ATOM     26  H4  UNL     1      30.785  38.577  40.575  1.00  0.00     0.188 HD
BRANCH  25  27
HETATM   27  C4  UNL     1      30.325  36.226  42.137  1.00  0.00     0.226 C 
BRANCH  27  28
HETATM   28  O2  UNL     1      30.182  34.878  41.819  1.00  0.00    -0.395 OA
ATOM     29  H2  UNL     1      29.269  34.642  41.714  1.00  0.00     0.209 HD
ENDBRANCH  27  28
ENDBRANCH  25  27
ENDBRANCH  17  19
ENDBRANCH  14  17
ENDBRANCH   1  14
BRANCH   4  30
HETATM   30  N5  UNL     1      35.024  39.837  43.667  1.00  0.00    -0.160 N 
HETATM   31  N6  UNL     1      35.036  39.717  42.350  1.00  0.00     0.004 NA
HETATM   32  N7  UNL     1      34.084  40.494  41.860  1.00  0.00    -0.266 N 
HETATM   33  C9  UNL     1      33.454  41.118  42.859  1.00  0.00     0.145 A 
ATOM     34  H7  UNL     1      33.865  40.601  40.870  1.00  0.00     0.186 HD
HETATM   35  N8  UNL     1      34.059  40.690  43.974  1.00  0.00    -0.262 N 
ATOM     36  H8  UNL     1      33.813  40.980  44.921  1.00  0.00     0.190 HD
BRANCH  33  37
HETATM   37  C10 UNL     1      32.320  42.082  42.761  1.00  0.00     0.017 A 
HETATM   38  C11 UNL     1      32.343  43.312  43.317  1.00  0.00     0.023 A 
HETATM   39  C12 UNL     1      31.236  44.098  43.152  1.00  0.00     0.050 A 
HETATM   40  S1  UNL     1      30.197  43.116  42.235  1.00  0.00    -0.113 SA
HETATM   41  C13 UNL     1      31.181  41.736  42.079  1.00  0.00     0.065 A 
ENDBRANCH  33  37
ENDBRANCH   4  30
BRANCH   7  42
HETATM   42  N10 UNL     1      38.391  39.899  46.893  1.00  0.00    -0.223 N 
ATOM     43  H10 UNL     1      39.394  39.719  46.925  1.00  0.00     0.177 HD
BRANCH  42  44
HETATM   44  C15 UNL     1      37.836  40.974  47.674  1.00  0.00     0.172 C 
BRANCH  44  45
HETATM   45  C16 UNL     1      38.690  42.236  47.565  1.00  0.00     0.160 C 
BRANCH  45  46
HETATM   46  O3  UNL     1      39.956  41.974  47.088  1.00  0.00    -0.392 OA
ATOM     47  H3  UNL     1      40.366  42.741  46.707  1.00  0.00     0.210 HD
ENDBRANCH  45  46
BRANCH  45  48
HETATM   48  C17 UNL     1      37.995  43.110  46.517  1.00  0.00     0.197 C 
BRANCH  48  49
HETATM   49  O4  UNL     1      36.788  42.559  46.114  1.00  0.00    -0.398 OA
ATOM     50  H4  UNL     1      36.400  43.052  45.400  1.00  0.00     0.209 HD
ENDBRANCH  48  49
ENDBRANCH  45  48
ENDBRANCH  44  45
ENDBRANCH  42  44
ENDBRANCH   7  42
TORSDOF 14
ENDMDL
