MODEL 1
REMARK VINA RESULT: -9.371003238      0.000      0.000
REMARK  10 active torsions:
REMARK  status: ('A' for Active; 'I' for Inactive)
REMARK    1  A    between atoms: C4_7  and  N3_8 
REMARK    2  A    between atoms: N3_8  and  C5_10 
REMARK    3  A    between atoms: C5_10  and  C7_12 
REMARK    4  A    between atoms: C7_12  and  N4_13 
REMARK    5  A    between atoms: C7_12  and  C8_17 
REMARK    6  A    between atoms: C8_17  and  O1_19 
REMARK    7  A    between atoms: O1_19  and  N5_20 
REMARK    8  A    between atoms: N5_20  and  C10_21 
REMARK    9  A    between atoms: C10_21  and  C11_22 
REMARK   10  A    between atoms: N6_24  and  C13_25 
ROOT
HETATM    1  C7  UNL     1      31.184  40.881  38.347  1.00  0.00     0.235 C 
ENDROOT
BRANCH   1   2
HETATM    2  C5  UNL     1      30.572  39.550  37.944  1.00  0.00     0.112 C 
HETATM    3  C6  UNL     1      29.082  39.672  38.422  1.00  0.00     0.034 C 
BRANCH   2   4
HETATM    4  N3  UNL     1      31.162  38.549  38.721  1.00  0.00    -0.366 N 
ATOM      5  H3  UNL     1      32.174  38.673  38.723  1.00  0.00     0.161 HD
BRANCH   4   6
HETATM    6  C4  UNL     1      30.866  37.565  39.406  1.00  0.00     0.157 A 
HETATM    7  N2  UNL     1      30.707  36.327  38.826  1.00  0.00    -0.221 N 
HETATM    8  N1  UNL     1      30.834  36.030  37.543  1.00  0.00    -0.301 N 
HETATM    9  C23 UNL     1      30.394  35.227  39.510  1.00  0.00     0.141 A 
HETATM   10  C3  UNL     1      30.594  34.699  37.397  1.00  0.00     0.122 A 
ATOM     11  H1  UNL     1      31.070  36.683  36.796  1.00  0.00     0.186 HD
HETATM   12  C2  UNL     1      30.312  34.159  38.633  1.00  0.00     0.018 A 
HETATM   13  C1  UNL     1      30.023  32.905  38.928  1.00  0.00     0.029 C 
HETATM   14  N10 UNL     1      30.207  35.256  40.845  1.00  0.00    -0.324 N 
HETATM   15  C22 UNL     1      30.347  36.431  41.469  1.00  0.00     0.152 A 
ATOM     16  H10 UNL     1      29.967  34.411  41.362  1.00  0.00     0.169 HD
HETATM   17  C21 UNL     1      30.676  37.597  40.762  1.00  0.00     0.137 A 
HETATM   18  N11 UNL     1      30.215  36.738  42.855  1.00  0.00    -0.267 N 
HETATM   19  N13 UNL     1      30.710  38.593  41.755  1.00  0.00    -0.277 N 
HETATM   20  N12 UNL     1      30.812  37.999  43.041  1.00  0.00    -0.020 NA
ATOM     21  H13 UNL     1      30.668  39.597  41.578  1.00  0.00     0.184 HD
ATOM     22  H11 UNL     1      29.775  36.158  43.570  1.00  0.00     0.186 HD
ENDBRANCH   4   6
ENDBRANCH   2   4
ENDBRANCH   1   2
BRANCH   1  23
HETATM   23  N4  UNL     1      30.986  41.902  37.294  1.00  0.00    -0.071 N 
ATOM     24  H43 UNL     1      30.772  41.475  36.392  1.00  0.00     0.274 HD
ATOM     25  H42 UNL     1      30.117  42.419  37.432  1.00  0.00     0.274 HD
ATOM     26  H41 UNL     1      31.789  42.527  37.231  1.00  0.00     0.274 HD
ENDBRANCH   1  23
BRANCH   1  27
HETATM   27  C8  UNL     1      30.609  41.496  39.576  1.00  0.00     0.175 C 
HETATM   28  C9  UNL     1      30.795  43.035  39.347  1.00  0.00     0.044 C 
BRANCH  27  29
HETATM   29  O1  UNL     1      31.259  41.152  40.726  1.00  0.00    -0.279 OA
BRANCH  29  30
HETATM   30  N5  UNL     1      32.552  40.903  40.453  1.00  0.00    -0.095 NA
BRANCH  30  31
HETATM   31  C10 UNL     1      33.404  41.449  41.467  1.00  0.00     0.202 C 
BRANCH  31  32
HETATM   32  C11 UNL     1      33.676  40.492  42.562  1.00  0.00     0.061 A 
HETATM   33  C12 UNL     1      34.726  39.611  42.737  1.00  0.00     0.146 A 
HETATM   34  N6  UNL     1      34.548  38.939  43.888  1.00  0.00    -0.251 N 
HETATM   35  N8  UNL     1      33.424  39.390  44.408  1.00  0.00    -0.236 N 
HETATM   36  N9  UNL     1      32.886  40.318  43.634  1.00  0.00    -0.287 N 
ATOM     37  H8  UNL     1      33.022  39.067  45.289  1.00  0.00     0.209 HD
ATOM     38  H9  UNL     1      32.017  40.818  43.820  1.00  0.00     0.188 HD
BRANCH  34  39
HETATM   39  C13 UNL     1      35.372  37.941  44.465  1.00  0.00     0.065 A 
HETATM   40  C14 UNL     1      35.215  36.592  44.221  1.00  0.00     0.033 A 
HETATM   41  C15 UNL     1      36.032  35.641  44.796  1.00  0.00     0.011 A 
HETATM   42  C16 UNL     1      37.049  36.009  45.650  1.00  0.00    -0.037 A 
HETATM   43  C17 UNL     1      37.927  34.969  46.267  1.00  0.00     0.050 C 
HETATM   44  C18 UNL     1      37.217  37.354  45.903  1.00  0.00     0.060 A 
HETATM   45  N7  UNL     1      38.255  37.749  46.778  1.00  0.00    -0.101 NA
HETATM   46  C19 UNL     1      36.398  38.303  45.327  1.00  0.00    -0.009 A 
HETATM   47  C20 UNL     1      36.572  39.767  45.597  1.00  0.00     0.052 C 
ENDBRANCH  34  39
ENDBRANCH  31  32
ENDBRANCH  30  31
ENDBRANCH  29  30
ENDBRANCH  27  29
ENDBRANCH   1  27
TORSDOF 10
ENDMDL
MODEL 2
REMARK VINA RESULT: -9.253432378      0.889      1.399
REMARK  10 active torsions:
REMARK  status: ('A' for Active; 'I' for Inactive)
REMARK    1  A    between atoms: C4_7  and  N3_8 
REMARK    2  A    between atoms: N3_8  and  C5_10 
REMARK    3  A    between atoms: C5_10  and  C7_12 
REMARK    4  A    between atoms: C7_12  and  N4_13 
REMARK    5  A    between atoms: C7_12  and  C8_17 
REMARK    6  A    between atoms: C8_17  and  O1_19 
REMARK    7  A    between atoms: O1_19  and  N5_20 
REMARK    8  A    between atoms: N5_20  and  C10_21 
REMARK    9  A    between atoms: C10_21  and  C11_22 
REMARK   10  A    between atoms: N6_24  and  C13_25 
ROOT
HETATM    1  C7  UNL     1      31.168  40.882  38.174  1.00  0.00     0.235 C 
ENDROOT
BRANCH   1   2
HETATM    2  C5  UNL     1      30.577  39.528  37.819  1.00  0.00     0.112 C 
HETATM    3  C6  UNL     1      29.082  39.648  38.280  1.00  0.00     0.034 C 
BRANCH   2   4
HETATM    4  N3  UNL     1      31.174  38.567  38.639  1.00  0.00    -0.366 N 
ATOM      5  H3  UNL     1      32.184  38.706  38.646  1.00  0.00     0.161 HD
BRANCH   4   6
HETATM    6  C4  UNL     1      30.886  37.605  39.358  1.00  0.00     0.157 A 
HETATM    7  N2  UNL     1      30.719  36.350  38.819  1.00  0.00    -0.221 N 
HETATM    8  N1  UNL     1      30.828  36.012  37.545  1.00  0.00    -0.301 N 
HETATM    9  C23 UNL     1      30.413  35.271  39.541  1.00  0.00     0.141 A 
HETATM   10  C3  UNL     1      30.585  34.678  37.443  1.00  0.00     0.122 A 
ATOM     11  H1  UNL     1      31.055  36.642  36.775  1.00  0.00     0.186 HD
HETATM   12  C2  UNL     1      30.318  34.177  38.698  1.00  0.00     0.018 A 
HETATM   13  C1  UNL     1      30.032  32.933  39.036  1.00  0.00     0.029 C 
HETATM   14  N10 UNL     1      30.243  35.343  40.876  1.00  0.00    -0.324 N 
HETATM   15  C22 UNL     1      30.392  36.536  41.462  1.00  0.00     0.152 A 
ATOM     16  H10 UNL     1      30.009  34.514  41.423  1.00  0.00     0.169 HD
HETATM   17  C21 UNL     1      30.713  37.680  40.715  1.00  0.00     0.137 A 
HETATM   18  N11 UNL     1      30.279  36.886  42.840  1.00  0.00    -0.267 N 
HETATM   19  N13 UNL     1      30.762  38.705  41.676  1.00  0.00    -0.277 N 
HETATM   20  N12 UNL     1      30.880  38.151  42.978  1.00  0.00    -0.020 NA
ATOM     21  H13 UNL     1      30.718  39.703  41.468  1.00  0.00     0.184 HD
ATOM     22  H11 UNL     1      29.848  36.330  43.578  1.00  0.00     0.186 HD
ENDBRANCH   4   6
ENDBRANCH   2   4
ENDBRANCH   1   2
BRANCH   1  23
HETATM   23  N4  UNL     1      30.986  41.852  37.071  1.00  0.00    -0.071 N 
ATOM     24  H43 UNL     1      31.334  41.483  36.185  1.00  0.00     0.274 HD
ATOM     25  H42 UNL     1      30.003  41.955  36.820  1.00  0.00     0.274 HD
ATOM     26  H41 UNL     1      31.413  42.750  37.295  1.00  0.00     0.274 HD
ENDBRANCH   1  23
BRANCH   1  27
HETATM   27  C8  UNL     1      30.558  41.547  39.360  1.00  0.00     0.175 C 
HETATM   28  C9  UNL     1      30.728  43.076  39.060  1.00  0.00     0.044 C 
BRANCH  27  29
HETATM   29  O1  UNL     1      31.188  41.269  40.538  1.00  0.00    -0.279 OA
BRANCH  29  30
HETATM   30  N5  UNL     1      32.490  41.026  40.305  1.00  0.00    -0.095 NA
BRANCH  30  31
HETATM   31  C10 UNL     1      33.310  41.609  41.323  1.00  0.00     0.202 C 
BRANCH  31  32
HETATM   32  C11 UNL     1      33.585  40.678  42.440  1.00  0.00     0.061 A 
HETATM   33  C12 UNL     1      34.590  39.745  42.597  1.00  0.00     0.146 A 
HETATM   34  N6  UNL     1      34.436  39.126  43.781  1.00  0.00    -0.251 N 
HETATM   35  N8  UNL     1      33.368  39.662  44.339  1.00  0.00    -0.236 N 
HETATM   36  N9  UNL     1      32.844  40.591  43.557  1.00  0.00    -0.287 N 
ATOM     37  H8  UNL     1      32.996  39.396  45.251  1.00  0.00     0.209 HD
ATOM     38  H9  UNL     1      32.016  41.147  43.767  1.00  0.00     0.188 HD
BRANCH  34  39
HETATM   39  C13 UNL     1      35.231  38.103  44.355  1.00  0.00     0.065 A 
HETATM   40  C14 UNL     1      36.082  38.311  45.420  1.00  0.00     0.033 A 
HETATM   41  C15 UNL     1      36.846  37.295  45.959  1.00  0.00     0.011 A 
HETATM   42  C16 UNL     1      36.785  36.018  45.445  1.00  0.00    -0.037 A 
HETATM   43  C17 UNL     1      37.617  34.928  46.038  1.00  0.00     0.050 C 
HETATM   44  C18 UNL     1      35.937  35.798  44.380  1.00  0.00     0.060 A 
HETATM   45  N7  UNL     1      35.863  34.493  43.839  1.00  0.00    -0.101 NA
HETATM   46  C19 UNL     1      35.175  36.814  43.842  1.00  0.00    -0.009 A 
HETATM   47  C20 UNL     1      34.253  36.583  42.684  1.00  0.00     0.052 C 
ENDBRANCH  34  39
ENDBRANCH  31  32
ENDBRANCH  30  31
ENDBRANCH  29  30
ENDBRANCH  27  29
ENDBRANCH   1  27
TORSDOF 10
ENDMDL
MODEL 3
REMARK VINA RESULT: -8.948072139      1.387      2.987
REMARK  10 active torsions:
REMARK  status: ('A' for Active; 'I' for Inactive)
REMARK    1  A    between atoms: C4_7  and  N3_8 
REMARK    2  A    between atoms: N3_8  and  C5_10 
REMARK    3  A    between atoms: C5_10  and  C7_12 
REMARK    4  A    between atoms: C7_12  and  N4_13 
REMARK    5  A    between atoms: C7_12  and  C8_17 
REMARK    6  A    between atoms: C8_17  and  O1_19 
REMARK    7  A    between atoms: O1_19  and  N5_20 
REMARK    8  A    between atoms: N5_20  and  C10_21 
REMARK    9  A    between atoms: C10_21  and  C11_22 
REMARK   10  A    between atoms: N6_24  and  C13_25 
ROOT
HETATM    1  C7  UNL     1      31.387  40.961  38.348  1.00  0.00     0.235 C 
ENDROOT
BRANCH   1   2
HETATM    2  C5  UNL     1      30.650  39.677  38.004  1.00  0.00     0.112 C 
HETATM    3  C6  UNL     1      29.194  39.940  38.524  1.00  0.00     0.034 C 
BRANCH   2   4
HETATM    4  N3  UNL     1      31.179  38.651  38.791  1.00  0.00    -0.366 N 
ATOM      5  H3  UNL     1      32.124  38.899  39.084  1.00  0.00     0.161 HD
BRANCH   4   6
HETATM    6  C4  UNL     1      30.883  37.543  39.250  1.00  0.00     0.157 A 
HETATM    7  N2  UNL     1      30.733  37.362  40.606  1.00  0.00    -0.221 N 
HETATM    8  N1  UNL     1      30.877  38.277  41.550  1.00  0.00    -0.301 N 
HETATM    9  C23 UNL     1      30.409  36.194  41.162  1.00  0.00     0.141 A 
HETATM   10  C3  UNL     1      30.640  37.681  42.749  1.00  0.00     0.122 A 
ATOM     11  H1  UNL     1      31.122  39.257  41.403  1.00  0.00     0.186 HD
HETATM   12  C2  UNL     1      30.339  36.354  42.536  1.00  0.00     0.018 A 
HETATM   13  C1  UNL     1      30.048  35.430  43.433  1.00  0.00     0.029 C 
HETATM   14  N10 UNL     1      30.205  35.090  40.417  1.00  0.00    -0.324 N 
HETATM   15  C22 UNL     1      30.336  35.201  39.090  1.00  0.00     0.152 A 
ATOM     16  H10 UNL     1      29.959  34.200  40.849  1.00  0.00     0.169 HD
HETATM   17  C21 UNL     1      30.677  36.422  38.490  1.00  0.00     0.137 A 
HETATM   18  N11 UNL     1      30.171  34.207  38.081  1.00  0.00    -0.267 N 
HETATM   19  N13 UNL     1      30.730  36.119  37.118  1.00  0.00    -0.277 N 
HETATM   20  N12 UNL     1      30.054  34.897  36.859  1.00  0.00    -0.020 NA
ATOM     21  H13 UNL     1      31.188  36.693  36.410  1.00  0.00     0.184 HD
ATOM     22  H11 UNL     1      30.142  33.196  38.217  1.00  0.00     0.186 HD
ENDBRANCH   4   6
ENDBRANCH   2   4
ENDBRANCH   1   2
BRANCH   1  23
HETATM   23  N4  UNL     1      31.093  42.027  37.363  1.00  0.00    -0.071 N 
ATOM     24  H43 UNL     1      31.869  42.684  37.278  1.00  0.00     0.274 HD
ATOM     25  H42 UNL     1      31.089  41.666  36.410  1.00  0.00     0.274 HD
ATOM     26  H41 UNL     1      30.221  42.505  37.588  1.00  0.00     0.274 HD
ENDBRANCH   1  23
BRANCH   1  27
HETATM   27  C8  UNL     1      31.033  41.561  39.665  1.00  0.00     0.175 C 
HETATM   28  C9  UNL     1      31.448  43.064  39.515  1.00  0.00     0.044 C 
BRANCH  27  29
HETATM   29  O1  UNL     1      31.718  41.030  40.719  1.00  0.00    -0.279 OA
BRANCH  29  30
HETATM   30  N5  UNL     1      31.077  41.325  41.865  1.00  0.00    -0.095 NA
BRANCH  30  31
HETATM   31  C10 UNL     1      32.005  41.718  42.883  1.00  0.00     0.202 C 
BRANCH  31  32
HETATM   32  C11 UNL     1      33.178  40.822  42.966  1.00  0.00     0.061 A 
HETATM   33  C12 UNL     1      33.453  39.791  43.843  1.00  0.00     0.146 A 
HETATM   34  N6  UNL     1      34.648  39.257  43.533  1.00  0.00    -0.251 N 
HETATM   35  N8  UNL     1      35.097  39.937  42.497  1.00  0.00    -0.236 N 
HETATM   36  N9  UNL     1      34.236  40.875  42.141  1.00  0.00    -0.287 N 
ATOM     37  H8  UNL     1      35.989  39.763  42.032  1.00  0.00     0.209 HD
ATOM     38  H9  UNL     1      34.356  41.530  41.369  1.00  0.00     0.188 HD
BRANCH  34  39
HETATM   39  C13 UNL     1      35.327  38.184  44.162  1.00  0.00     0.065 A 
HETATM   40  C14 UNL     1      36.104  38.336  45.292  1.00  0.00     0.033 A 
HETATM   41  C15 UNL     1      36.755  37.273  45.885  1.00  0.00     0.011 A 
HETATM   42  C16 UNL     1      36.651  36.002  45.361  1.00  0.00    -0.037 A 
HETATM   43  C17 UNL     1      37.361  34.860  46.013  1.00  0.00     0.050 C 
HETATM   44  C18 UNL     1      35.877  35.837  44.232  1.00  0.00     0.060 A 
HETATM   45  N7  UNL     1      35.761  34.540  43.680  1.00  0.00    -0.101 NA
HETATM   46  C19 UNL     1      35.228  36.901  43.641  1.00  0.00    -0.009 A 
HETATM   47  C20 UNL     1      34.386  36.731  42.413  1.00  0.00     0.052 C 
ENDBRANCH  34  39
ENDBRANCH  31  32
ENDBRANCH  30  31
ENDBRANCH  29  30
ENDBRANCH  27  29
ENDBRANCH   1  27
TORSDOF 10
ENDMDL
MODEL 4
REMARK VINA RESULT: -8.901731620      1.465      2.431
REMARK  10 active torsions:
REMARK  status: ('A' for Active; 'I' for Inactive)
REMARK    1  A    between atoms: C4_7  and  N3_8 
REMARK    2  A    between atoms: N3_8  and  C5_10 
REMARK    3  A    between atoms: C5_10  and  C7_12 
REMARK    4  A    between atoms: C7_12  and  N4_13 
REMARK    5  A    between atoms: C7_12  and  C8_17 
REMARK    6  A    between atoms: C8_17  and  O1_19 
REMARK    7  A    between atoms: O1_19  and  N5_20 
REMARK    8  A    between atoms: N5_20  and  C10_21 
REMARK    9  A    between atoms: C10_21  and  C11_22 
REMARK   10  A    between atoms: N6_24  and  C13_25 
ROOT
HETATM    1  C7  UNL     1      31.227  40.529  38.143  1.00  0.00     0.235 C 
ENDROOT
BRANCH   1   2
HETATM    2  C5  UNL     1      30.197  39.508  37.690  1.00  0.00     0.112 C 
HETATM    3  C6  UNL     1      28.993  39.744  38.668  1.00  0.00     0.034 C 
BRANCH   2   4
HETATM    4  N3  UNL     1      30.699  38.234  37.971  1.00  0.00    -0.366 N 
ATOM      5  H3  UNL     1      31.401  37.984  37.275  1.00  0.00     0.161 HD
BRANCH   4   6
HETATM    6  C4  UNL     1      30.575  37.310  38.782  1.00  0.00     0.157 A 
HETATM    7  N2  UNL     1      31.477  37.152  39.809  1.00  0.00    -0.221 N 
HETATM    8  N1  UNL     1      32.534  37.906  40.060  1.00  0.00    -0.301 N 
HETATM    9  C23 UNL     1      31.395  36.180  40.719  1.00  0.00     0.141 A 
HETATM   10  C3  UNL     1      33.152  37.405  41.164  1.00  0.00     0.122 A 
ATOM     11  H1  UNL     1      32.832  38.719  39.522  1.00  0.00     0.186 HD
HETATM   12  C2  UNL     1      32.450  36.305  41.606  1.00  0.00     0.018 A 
HETATM   13  C1  UNL     1      32.715  35.533  42.644  1.00  0.00     0.029 C 
HETATM   14  N10 UNL     1      30.403  35.269  40.689  1.00  0.00    -0.324 N 
HETATM   15  C22 UNL     1      29.493  35.368  39.714  1.00  0.00     0.152 A 
ATOM     16  H10 UNL     1      30.347  34.528  41.387  1.00  0.00     0.169 HD
HETATM   17  C21 UNL     1      29.566  36.384  38.749  1.00  0.00     0.137 A 
HETATM   18  N11 UNL     1      28.351  34.552  39.458  1.00  0.00    -0.267 N 
HETATM   19  N13 UNL     1      28.462  36.134  37.914  1.00  0.00    -0.277 N 
HETATM   20  N12 UNL     1      27.537  35.278  38.568  1.00  0.00    -0.020 NA
ATOM     21  H13 UNL     1      28.344  36.513  36.974  1.00  0.00     0.184 HD
ATOM     22  H11 UNL     1      28.163  33.627  39.843  1.00  0.00     0.186 HD
ENDBRANCH   4   6
ENDBRANCH   2   4
ENDBRANCH   1   2
BRANCH   1  23
HETATM   23  N4  UNL     1      31.286  41.678  37.211  1.00  0.00    -0.071 N 
ATOM     24  H43 UNL     1      32.106  41.630  36.607  1.00  0.00     0.274 HD
ATOM     25  H42 UNL     1      30.561  41.619  36.496  1.00  0.00     0.274 HD
ATOM     26  H41 UNL     1      31.243  42.564  37.715  1.00  0.00     0.274 HD
ENDBRANCH   1  23
BRANCH   1  27
HETATM   27  C8  UNL     1      30.967  41.142  39.476  1.00  0.00     0.175 C 
HETATM   28  C9  UNL     1      31.195  42.673  39.234  1.00  0.00     0.044 C 
BRANCH  27  29
HETATM   29  O1  UNL     1      31.826  40.730  40.453  1.00  0.00    -0.279 OA
BRANCH  29  30
HETATM   30  N5  UNL     1      31.140  40.501  41.587  1.00  0.00    -0.095 NA
BRANCH  30  31
HETATM   31  C10 UNL     1      31.823  41.052  42.719  1.00  0.00     0.202 C 
BRANCH  31  32
HETATM   32  C11 UNL     1      33.158  40.452  42.930  1.00  0.00     0.061 A 
HETATM   33  C12 UNL     1      33.584  39.530  43.866  1.00  0.00     0.146 A 
HETATM   34  N6  UNL     1      34.892  39.281  43.673  1.00  0.00    -0.251 N 
HETATM   35  N8  UNL     1      35.262  40.026  42.650  1.00  0.00    -0.236 N 
HETATM   36  N9  UNL     1      34.243  40.732  42.190  1.00  0.00    -0.287 N 
ATOM     37  H8  UNL     1      36.206  40.053  42.265  1.00  0.00     0.209 HD
ATOM     38  H9  UNL     1      34.277  41.382  41.405  1.00  0.00     0.188 HD
BRANCH  34  39
HETATM   39  C13 UNL     1      35.741  38.406  44.396  1.00  0.00     0.065 A 
HETATM   40  C14 UNL     1      35.814  37.049  44.157  1.00  0.00     0.033 A 
HETATM   41  C15 UNL     1      36.650  36.220  44.877  1.00  0.00     0.011 A 
HETATM   42  C16 UNL     1      37.454  36.725  45.876  1.00  0.00    -0.037 A 
HETATM   43  C17 UNL     1      38.355  35.817  46.648  1.00  0.00     0.050 C 
HETATM   44  C18 UNL     1      37.391  38.080  46.124  1.00  0.00     0.060 A 
HETATM   45  N7  UNL     1      38.209  38.615  47.147  1.00  0.00    -0.101 NA
HETATM   46  C19 UNL     1      36.554  38.907  45.404  1.00  0.00    -0.009 A 
HETATM   47  C20 UNL     1      36.479  40.380  45.668  1.00  0.00     0.052 C 
ENDBRANCH  34  39
ENDBRANCH  31  32
ENDBRANCH  30  31
ENDBRANCH  29  30
ENDBRANCH  27  29
ENDBRANCH   1  27
TORSDOF 10
ENDMDL
MODEL 5
REMARK VINA RESULT: -8.860020690      2.474      8.878
REMARK  10 active torsions:
REMARK  status: ('A' for Active; 'I' for Inactive)
REMARK    1  A    between atoms: C4_7  and  N3_8 
REMARK    2  A    between atoms: N3_8  and  C5_10 
REMARK    3  A    between atoms: C5_10  and  C7_12 
REMARK    4  A    between atoms: C7_12  and  N4_13 
REMARK    5  A    between atoms: C7_12  and  C8_17 
REMARK    6  A    between atoms: C8_17  and  O1_19 
REMARK    7  A    between atoms: O1_19  and  N5_20 
REMARK    8  A    between atoms: N5_20  and  C10_21 
REMARK    9  A    between atoms: C10_21  and  C11_22 
REMARK   10  A    between atoms: N6_24  and  C13_25 
ROOT
HETATM    1  C7  UNL     1      32.346  40.562  41.180  1.00  0.00     0.235 C 
ENDROOT
BRANCH   1   2
HETATM    2  C5  UNL     1      32.811  40.530  42.626  1.00  0.00     0.112 C 
HETATM    3  C6  UNL     1      32.820  42.043  43.041  1.00  0.00     0.034 C 
BRANCH   2   4
HETATM    4  N3  UNL     1      34.140  40.101  42.643  1.00  0.00    -0.366 N 
ATOM      5  H3  UNL     1      34.720  40.767  42.133  1.00  0.00     0.161 HD
BRANCH   4   6
HETATM    6  C4  UNL     1      34.848  39.182  43.071  1.00  0.00     0.157 A 
HETATM    7  N2  UNL     1      35.640  39.365  44.182  1.00  0.00    -0.221 N 
HETATM    8  N1  UNL     1      35.756  40.469  44.900  1.00  0.00    -0.301 N 
HETATM    9  C23 UNL     1      36.420  38.413  44.695  1.00  0.00     0.141 A 
HETATM   10  C3  UNL     1      36.639  40.222  45.906  1.00  0.00     0.122 A 
ATOM     11  H1  UNL     1      35.271  41.350  44.730  1.00  0.00     0.186 HD
HETATM   12  C2  UNL     1      37.079  38.920  45.802  1.00  0.00     0.018 A 
HETATM   13  C1  UNL     1      37.938  38.286  46.578  1.00  0.00     0.029 C 
HETATM   14  N10 UNL     1      36.486  37.184  44.146  1.00  0.00    -0.324 N 
HETATM   15  C22 UNL     1      35.740  36.943  43.063  1.00  0.00     0.152 A 
ATOM     16  H10 UNL     1      37.086  36.461  44.544  1.00  0.00     0.169 HD
HETATM   17  C21 UNL     1      34.914  37.934  42.511  1.00  0.00     0.137 A 
HETATM   18  N11 UNL     1      35.616  35.744  42.301  1.00  0.00    -0.267 N 
HETATM   19  N13 UNL     1      34.326  37.301  41.401  1.00  0.00    -0.277 N 
HETATM   20  N12 UNL     1      34.457  35.892  41.514  1.00  0.00    -0.020 NA
ATOM     21  H13 UNL     1      33.870  37.785  40.627  1.00  0.00     0.184 HD
ATOM     22  H11 UNL     1      36.243  34.940  42.321  1.00  0.00     0.186 HD
ENDBRANCH   4   6
ENDBRANCH   2   4
ENDBRANCH   1   2
BRANCH   1  23
HETATM   23  N4  UNL     1      33.495  40.519  40.247  1.00  0.00    -0.071 N 
ATOM     24  H43 UNL     1      33.201  40.277  39.300  1.00  0.00     0.274 HD
ATOM     25  H42 UNL     1      33.863  41.451  40.063  1.00  0.00     0.274 HD
ATOM     26  H41 UNL     1      34.221  39.888  40.586  1.00  0.00     0.274 HD
ENDBRANCH   1  23
BRANCH   1  27
HETATM   27  C8  UNL     1      31.486  39.418  40.766  1.00  0.00     0.175 C 
HETATM   28  C9  UNL     1      31.065  38.756  42.123  1.00  0.00     0.044 C 
BRANCH  27  29
HETATM   29  O1  UNL     1      32.133  38.480  40.014  1.00  0.00    -0.279 OA
BRANCH  29  30
HETATM   30  N5  UNL     1      31.449  37.322  40.055  1.00  0.00    -0.095 NA
BRANCH  30  31
HETATM   31  C10 UNL     1      30.596  37.191  38.913  1.00  0.00     0.202 C 
BRANCH  31  32
HETATM   32  C11 UNL     1      30.563  35.812  38.378  1.00  0.00     0.061 A 
HETATM   33  C12 UNL     1      29.888  34.695  38.830  1.00  0.00     0.146 A 
HETATM   34  N6  UNL     1      30.163  33.657  38.020  1.00  0.00    -0.251 N 
HETATM   35  N8  UNL     1      30.983  34.119  37.097  1.00  0.00    -0.236 N 
HETATM   36  N9  UNL     1      31.235  35.402  37.290  1.00  0.00    -0.287 N 
ATOM     37  H8  UNL     1      31.371  33.561  36.335  1.00  0.00     0.209 HD
ATOM     38  H9  UNL     1      31.839  35.984  36.710  1.00  0.00     0.188 HD
BRANCH  34  39
HETATM   39  C13 UNL     1      29.693  32.323  38.102  1.00  0.00     0.065 A 
HETATM   40  C14 UNL     1      30.257  31.369  38.924  1.00  0.00     0.033 A 
HETATM   41  C15 UNL     1      29.779  30.076  38.984  1.00  0.00     0.011 A 
HETATM   42  C16 UNL     1      28.706  29.684  38.213  1.00  0.00    -0.037 A 
HETATM   43  C17 UNL     1      28.198  28.281  38.288  1.00  0.00     0.050 C 
HETATM   44  C18 UNL     1      28.133  30.629  37.388  1.00  0.00     0.060 A 
HETATM   45  N7  UNL     1      27.031  30.244  36.589  1.00  0.00    -0.101 NA
HETATM   46  C19 UNL     1      28.613  31.920  37.329  1.00  0.00    -0.009 A 
HETATM   47  C20 UNL     1      27.997  32.953  36.434  1.00  0.00     0.052 C 
ENDBRANCH  34  39
ENDBRANCH  31  32
ENDBRANCH  30  31
ENDBRANCH  29  30
ENDBRANCH  27  29
ENDBRANCH   1  27
TORSDOF 10
ENDMDL
