MODEL 1
REMARK VINA RESULT: -6.514176710      0.000      0.000
REMARK  6 active torsions:
REMARK  status: ('A' for Active; 'I' for Inactive)
REMARK    1  A    between atoms: C9_9  and  C10_10 
REMARK    2  A    between atoms: C10_10  and  C12_12 
REMARK    3  A    between atoms: C12_12  and  O2_14 
REMARK    4  A    between atoms: O2_14  and  C13_15 
REMARK    5  A    between atoms: C13_15  and  C14_16 
REMARK    6  A    between atoms: C21_24  and  O4_25 
ROOT
HETATM    1  C1  UNL     1      43.732  32.555  29.197  1.00  0.00     0.046 C 
HETATM    2  C2  UNL     1      43.322  32.040  30.537  1.00  0.00    -0.051 C 
HETATM    3  C3  UNL     1      42.304  31.218  30.615  1.00  0.00    -0.051 C 
HETATM    4  C4  UNL     1      41.340  30.576  29.732  1.00  0.00    -0.019 C 
HETATM    5  C5  UNL     1      41.830  29.235  29.216  1.00  0.00     0.020 C 
HETATM    6  C6  UNL     1      40.920  31.381  28.529  1.00  0.00     0.020 C 
HETATM    7  C7  UNL     1      40.106  30.323  30.643  1.00  0.00    -0.000 C 
HETATM    8  C8  UNL     1      39.156  31.460  30.601  1.00  0.00     0.011 C 
HETATM    9  C9  UNL     1      40.713  30.023  31.989  1.00  0.00     0.023 C 
HETATM   10  C17 UNL     1      41.989  30.763  32.048  1.00  0.00     0.046 C 
HETATM   11  C18 UNL     1      43.161  29.854  32.395  1.00  0.00     0.029 C 
HETATM   12  C19 UNL     1      42.026  32.048  32.758  1.00  0.00     0.142 C 
HETATM   13  O3  UNL     1      41.056  32.610  33.137  1.00  0.00    -0.297 OA
HETATM   14  C20 UNL     1      43.363  32.639  32.987  1.00  0.00     0.115 C 
HETATM   15  C21 UNL     1      44.127  32.547  31.683  1.00  0.00     0.154 C 
ENDROOT
BRANCH   9  16
HETATM   16  C10 UNL     1      39.791  30.078  33.139  1.00  0.00     0.087 C 
HETATM   17  C11 UNL     1      38.391  29.701  32.579  1.00  0.00     0.021 C 
BRANCH  16  18
HETATM   18  C12 UNL     1      40.086  28.943  34.080  1.00  0.00     0.263 C 
HETATM   19  O1  UNL     1      40.797  29.155  35.077  1.00  0.00    -0.265 OA
BRANCH  18  20
HETATM   20  O2  UNL     1      39.597  27.680  33.881  1.00  0.00    -0.321 OA
BRANCH  20  21
HETATM   21  C13 UNL     1      39.248  26.733  34.856  1.00  0.00     0.182 C 
BRANCH  21  22
HETATM   22  C14 UNL     1      38.053  27.169  35.627  1.00  0.00     0.002 C 
HETATM   23  C15 UNL     1      38.437  27.646  37.021  1.00  0.00     0.011 C 
HETATM   24  C16 UNL     1      37.025  26.070  35.797  1.00  0.00     0.011 C 
ENDBRANCH  21  22
ENDBRANCH  20  21
ENDBRANCH  18  20
ENDBRANCH  16  18
ENDBRANCH   9  16
BRANCH  15  25
HETATM   25  O4  UNL     1      44.515  33.876  31.393  1.00  0.00    -0.391 OA
ATOM     26  H4  UNL     1      44.829  34.273  32.197  1.00  0.00     0.210 HD
ENDBRANCH  15  25
TORSDOF 6
ENDMDL
MODEL 2
REMARK VINA RESULT: -6.440725392      1.982      6.737
REMARK  6 active torsions:
REMARK  status: ('A' for Active; 'I' for Inactive)
REMARK    1  A    between atoms: C9_9  and  C10_10 
REMARK    2  A    between atoms: C10_10  and  C12_12 
REMARK    3  A    between atoms: C12_12  and  O2_14 
REMARK    4  A    between atoms: O2_14  and  C13_15 
REMARK    5  A    between atoms: C13_15  and  C14_16 
REMARK    6  A    between atoms: C21_24  and  O4_25 
ROOT
HETATM    1  C1  UNL     1      38.197  29.364  31.451  1.00  0.00     0.046 C 
HETATM    2  C2  UNL     1      39.345  29.909  32.233  1.00  0.00    -0.051 C 
HETATM    3  C3  UNL     1      40.221  30.671  31.624  1.00  0.00    -0.051 C 
HETATM    4  C4  UNL     1      40.469  31.216  30.297  1.00  0.00    -0.019 C 
HETATM    5  C5  UNL     1      39.797  32.561  30.088  1.00  0.00     0.020 C 
HETATM    6  C6  UNL     1      40.058  30.336  29.144  1.00  0.00     0.020 C 
HETATM    7  C7  UNL     1      42.008  31.433  30.261  1.00  0.00    -0.000 C 
HETATM    8  C8  UNL     1      42.714  30.239  29.734  1.00  0.00     0.011 C 
HETATM    9  C9  UNL     1      42.345  31.825  31.676  1.00  0.00     0.023 C 
HETATM   10  C17 UNL     1      41.349  31.166  32.543  1.00  0.00     0.046 C 
HETATM   11  C18 UNL     1      40.646  32.158  33.460  1.00  0.00     0.029 C 
HETATM   12  C19 UNL     1      41.720  29.918  33.220  1.00  0.00     0.142 C 
HETATM   13  O3  UNL     1      42.709  29.315  32.976  1.00  0.00    -0.297 OA
HETATM   14  C20 UNL     1      40.781  29.419  34.248  1.00  0.00     0.115 C 
HETATM   15  C21 UNL     1      39.386  29.501  33.666  1.00  0.00     0.154 C 
ENDROOT
BRANCH   9  16
HETATM   16  C10 UNL     1      43.774  31.763  32.039  1.00  0.00     0.087 C 
HETATM   17  C11 UNL     1      44.550  31.677  30.695  1.00  0.00     0.021 C 
BRANCH  16  18
HETATM   18  C12 UNL     1      44.215  33.091  32.588  1.00  0.00     0.263 C 
HETATM   19  O1  UNL     1      43.411  33.766  33.255  1.00  0.00    -0.265 OA
BRANCH  18  20
HETATM   20  O2  UNL     1      45.475  33.588  32.384  1.00  0.00    -0.321 OA
BRANCH  20  21
HETATM   21  C13 UNL     1      45.831  34.891  32.008  1.00  0.00     0.182 C 
BRANCH  21  22
HETATM   22  C14 UNL     1      47.162  34.916  31.344  1.00  0.00     0.002 C 
HETATM   23  C15 UNL     1      47.119  34.213  29.993  1.00  0.00     0.011 C 
HETATM   24  C16 UNL     1      48.245  34.246  32.162  1.00  0.00     0.011 C 
ENDBRANCH  21  22
ENDBRANCH  20  21
ENDBRANCH  18  20
ENDBRANCH  16  18
ENDBRANCH   9  16
BRANCH  15  25
HETATM   25  O4  UNL     1      38.872  28.187  33.761  1.00  0.00    -0.391 OA
ATOM     26  H4  UNL     1      39.327  27.745  34.469  1.00  0.00     0.210 HD
ENDBRANCH  15  25
TORSDOF 6
ENDMDL
MODEL 3
REMARK VINA RESULT: -5.879306779      1.961      6.242
REMARK  6 active torsions:
REMARK  status: ('A' for Active; 'I' for Inactive)
REMARK    1  A    between atoms: C9_9  and  C10_10 
REMARK    2  A    between atoms: C10_10  and  C12_12 
REMARK    3  A    between atoms: C12_12  and  O2_14 
REMARK    4  A    between atoms: O2_14  and  C13_15 
REMARK    5  A    between atoms: C13_15  and  C14_16 
REMARK    6  A    between atoms: C21_24  and  O4_25 
ROOT
HETATM    1  C1  UNL     1      37.863  29.858  32.611  1.00  0.00     0.046 C 
HETATM    2  C2  UNL     1      39.300  30.188  32.847  1.00  0.00    -0.051 C 
HETATM    3  C3  UNL     1      39.999  30.710  31.869  1.00  0.00    -0.051 C 
HETATM    4  C4  UNL     1      39.816  31.116  30.483  1.00  0.00    -0.019 C 
HETATM    5  C5  UNL     1      39.365  32.560  30.356  1.00  0.00     0.020 C 
HETATM    6  C6  UNL     1      38.848  30.283  29.682  1.00  0.00     0.020 C 
HETATM    7  C7  UNL     1      41.238  30.996  29.865  1.00  0.00    -0.000 C 
HETATM    8  C8  UNL     1      41.466  29.653  29.280  1.00  0.00     0.011 C 
HETATM    9  C9  UNL     1      42.151  31.385  30.998  1.00  0.00     0.023 C 
HETATM   10  C17 UNL     1      41.460  31.002  32.244  1.00  0.00     0.046 C 
HETATM   11  C18 UNL     1      41.347  32.170  33.215  1.00  0.00     0.029 C 
HETATM   12  C19 UNL     1      41.833  29.742  32.898  1.00  0.00     0.142 C 
HETATM   13  O3  UNL     1      42.531  28.929  32.395  1.00  0.00    -0.297 OA
HETATM   14  C20 UNL     1      41.283  29.512  34.253  1.00  0.00     0.115 C 
HETATM   15  C21 UNL     1      39.810  29.859  34.208  1.00  0.00     0.154 C 
ENDROOT
BRANCH   9  16
HETATM   16  C10 UNL     1      43.575  31.039  30.825  1.00  0.00     0.087 C 
HETATM   17  C11 UNL     1      43.864  31.180  29.304  1.00  0.00     0.021 C 
BRANCH  16  18
HETATM   18  C12 UNL     1      44.435  32.116  31.424  1.00  0.00     0.263 C 
HETATM   19  O1  UNL     1      45.603  31.844  31.751  1.00  0.00    -0.265 OA
BRANCH  18  20
HETATM   20  O2  UNL     1      43.980  33.393  31.623  1.00  0.00    -0.321 OA
BRANCH  20  21
HETATM   21  C13 UNL     1      44.649  34.593  31.344  1.00  0.00     0.182 C 
BRANCH  21  22
HETATM   22  C14 UNL     1      45.112  35.256  32.593  1.00  0.00     0.002 C 
HETATM   23  C15 UNL     1      46.587  34.978  32.853  1.00  0.00     0.011 C 
HETATM   24  C16 UNL     1      44.348  34.806  33.820  1.00  0.00     0.011 C 
ENDBRANCH  21  22
ENDBRANCH  20  21
ENDBRANCH  18  20
ENDBRANCH  16  18
ENDBRANCH   9  16
BRANCH  15  25
HETATM   25  O4  UNL     1      39.147  28.692  34.654  1.00  0.00    -0.391 OA
ATOM     26  H4  UNL     1      39.449  28.500  35.534  1.00  0.00     0.210 HD
ENDBRANCH  15  25
TORSDOF 6
ENDMDL
MODEL 4
REMARK VINA RESULT: -5.868443910      2.553      7.074
REMARK  6 active torsions:
REMARK  status: ('A' for Active; 'I' for Inactive)
REMARK    1  A    between atoms: C9_9  and  C10_10 
REMARK    2  A    between atoms: C10_10  and  C12_12 
REMARK    3  A    between atoms: C12_12  and  O2_14 
REMARK    4  A    between atoms: O2_14  and  C13_15 
REMARK    5  A    between atoms: C13_15  and  C14_16 
REMARK    6  A    between atoms: C21_24  and  O4_25 
ROOT
HETATM    1  C1  UNL     1      38.416  29.343  32.561  1.00  0.00     0.046 C 
HETATM    2  C2  UNL     1      39.259  30.039  31.544  1.00  0.00    -0.051 C 
HETATM    3  C3  UNL     1      40.503  30.326  31.842  1.00  0.00    -0.051 C 
HETATM    4  C4  UNL     1      41.428  30.175  32.956  1.00  0.00    -0.019 C 
HETATM    5  C5  UNL     1      42.198  28.868  32.896  1.00  0.00     0.020 C 
HETATM    6  C6  UNL     1      40.816  30.261  34.330  1.00  0.00     0.020 C 
HETATM    7  C7  UNL     1      42.440  31.341  32.765  1.00  0.00    -0.000 C 
HETATM    8  C8  UNL     1      42.008  32.560  33.490  1.00  0.00     0.011 C 
HETATM    9  C9  UNL     1      42.553  31.472  31.268  1.00  0.00     0.023 C 
HETATM   10  C17 UNL     1      41.257  31.039  30.709  1.00  0.00     0.046 C 
HETATM   11  C18 UNL     1      41.424  29.950  29.658  1.00  0.00     0.029 C 
HETATM   12  C19 UNL     1      40.277  32.064  30.328  1.00  0.00     0.142 C 
HETATM   13  O3  UNL     1      40.393  33.209  30.603  1.00  0.00    -0.297 OA
HETATM   14  C20 UNL     1      39.096  31.598  29.568  1.00  0.00     0.115 C 
HETATM   15  C21 UNL     1      38.569  30.362  30.263  1.00  0.00     0.154 C 
ENDROOT
BRANCH   9  16
HETATM   16  C10 UNL     1      43.174  32.715  30.774  1.00  0.00     0.087 C 
HETATM   17  C11 UNL     1      43.658  33.478  32.040  1.00  0.00     0.021 C 
BRANCH  16  18
HETATM   18  C12 UNL     1      44.463  32.394  30.072  1.00  0.00     0.263 C 
HETATM   19  O1  UNL     1      44.433  31.688  29.049  1.00  0.00    -0.265 OA
BRANCH  18  20
HETATM   20  O2  UNL     1      45.675  32.852  30.515  1.00  0.00    -0.321 OA
BRANCH  20  21
HETATM   21  C13 UNL     1      46.546  33.738  29.864  1.00  0.00     0.182 C 
BRANCH  21  22
HETATM   22  C14 UNL     1      47.311  34.559  30.841  1.00  0.00     0.002 C 
HETATM   23  C15 UNL     1      48.746  34.774  30.379  1.00  0.00     0.011 C 
HETATM   24  C16 UNL     1      47.373  33.933  32.218  1.00  0.00     0.011 C 
ENDBRANCH  21  22
ENDBRANCH  20  21
ENDBRANCH  18  20
ENDBRANCH  16  18
ENDBRANCH   9  16
BRANCH  15  25
HETATM   25  O4  UNL     1      37.217  30.657  30.557  1.00  0.00    -0.391 OA
ATOM     26  H4  UNL     1      36.777  29.841  30.766  1.00  0.00     0.210 HD
ENDBRANCH  15  25
TORSDOF 6
ENDMDL
MODEL 5
REMARK VINA RESULT: -5.117277433     10.157     12.501
REMARK  6 active torsions:
REMARK  status: ('A' for Active; 'I' for Inactive)
REMARK    1  A    between atoms: C9_9  and  C10_10 
REMARK    2  A    between atoms: C10_10  and  C12_12 
REMARK    3  A    between atoms: C12_12  and  O2_14 
REMARK    4  A    between atoms: O2_14  and  C13_15 
REMARK    5  A    between atoms: C13_15  and  C14_16 
REMARK    6  A    between atoms: C21_24  and  O4_25 
ROOT
HETATM    1  C1  UNL     1      44.919  23.536  31.649  1.00  0.00     0.046 C 
HETATM    2  C2  UNL     1      46.209  22.792  31.553  1.00  0.00    -0.051 C 
HETATM    3  C3  UNL     1      47.288  23.326  32.072  1.00  0.00    -0.051 C 
HETATM    4  C4  UNL     1      47.683  24.534  32.783  1.00  0.00    -0.019 C 
HETATM    5  C5  UNL     1      47.555  24.387  34.289  1.00  0.00     0.020 C 
HETATM    6  C6  UNL     1      46.941  25.789  32.400  1.00  0.00     0.020 C 
HETATM    7  C7  UNL     1      49.191  24.697  32.440  1.00  0.00    -0.000 C 
HETATM    8  C8  UNL     1      49.386  25.531  31.230  1.00  0.00     0.011 C 
HETATM    9  C9  UNL     1      49.690  23.278  32.348  1.00  0.00     0.023 C 
HETATM   10  C17 UNL     1      48.545  22.458  31.905  1.00  0.00     0.046 C 
HETATM   11  C18 UNL     1      48.288  21.285  32.842  1.00  0.00     0.029 C 
HETATM   12  C19 UNL     1      48.444  22.097  30.486  1.00  0.00     0.142 C 
HETATM   13  O3  UNL     1      49.130  22.567  29.645  1.00  0.00    -0.297 OA
HETATM   14  C20 UNL     1      47.416  21.093  30.131  1.00  0.00     0.115 C 
HETATM   15  C21 UNL     1      46.136  21.487  30.837  1.00  0.00     0.154 C 
ENDROOT
BRANCH   9  16
HETATM   16  C10 UNL     1      51.002  23.097  31.699  1.00  0.00     0.087 C 
HETATM   17  C11 UNL     1      51.798  24.402  31.981  1.00  0.00     0.021 C 
BRANCH  16  18
HETATM   18  C12 UNL     1      51.797  22.061  32.443  1.00  0.00     0.263 C 
HETATM   19  O1  UNL     1      52.436  21.212  31.797  1.00  0.00    -0.265 OA
BRANCH  18  20
HETATM   20  O2  UNL     1      51.848  22.017  33.810  1.00  0.00    -0.321 OA
BRANCH  20  21
HETATM   21  C13 UNL     1      52.989  22.013  34.626  1.00  0.00     0.182 C 
BRANCH  21  22
HETATM   22  C14 UNL     1      53.629  23.356  34.663  1.00  0.00     0.002 C 
HETATM   23  C15 UNL     1      54.895  23.388  33.817  1.00  0.00     0.011 C 
HETATM   24  C16 UNL     1      54.013  23.790  36.061  1.00  0.00     0.011 C 
ENDBRANCH  21  22
ENDBRANCH  20  21
ENDBRANCH  18  20
ENDBRANCH  16  18
ENDBRANCH   9  16
BRANCH  15  25
HETATM   25  O4  UNL     1      45.173  21.605  29.808  1.00  0.00    -0.391 OA
ATOM     26  H4  UNL     1      45.087  20.758  29.387  1.00  0.00     0.210 HD
ENDBRANCH  15  25
TORSDOF 6
ENDMDL
