MODEL 1
REMARK VINA RESULT: -6.127411391      0.000      0.000
REMARK  7 active torsions:
REMARK  status: ('A' for Active; 'I' for Inactive)
REMARK    1  A    between atoms: C2_2  and  C3_3 
REMARK    2  A    between atoms: C3_3  and  O1_4 
REMARK    3  A    between atoms: O1_4  and  C4_5 
REMARK    4  A    between atoms: C11_12  and  O2_13 
REMARK    5  A    between atoms: C16_19  and  O3_20 
REMARK    6  A    between atoms: O3_20  and  C17_21 
REMARK    7  A    between atoms: C17_21  and  C18_23 
ROOT
HETATM    1  C4  UNL     1      38.087  22.382  28.971  1.00  0.00     0.156 C 
HETATM    2  C5  UNL     1      37.412  21.236  28.362  1.00  0.00     0.024 C 
HETATM    3  C6  UNL     1      35.928  21.293  28.610  1.00  0.00     0.008 C 
HETATM    4  C7  UNL     1      35.180  20.281  27.752  1.00  0.00     0.000 C 
HETATM    5  C8  UNL     1      35.240  20.644  26.309  1.00  0.00     0.001 C 
HETATM    6  C9  UNL     1      36.416  21.582  26.123  1.00  0.00     0.008 C 
HETATM    7  C10 UNL     1      37.626  21.030  26.896  1.00  0.00     0.027 C 
HETATM    8  C11 UNL     1      38.820  21.635  26.306  1.00  0.00     0.072 C 
HETATM    9  C12 UNL     1      38.691  23.070  25.809  1.00  0.00     0.040 C 
HETATM   10  C13 UNL     1      40.145  23.221  26.209  1.00  0.00     0.018 C 
HETATM   11  C14 UNL     1      39.892  22.080  27.202  1.00  0.00     0.017 C 
HETATM   12  C15 UNL     1      41.100  21.148  27.139  1.00  0.00     0.021 C 
HETATM   13  C16 UNL     1      39.547  22.539  28.547  1.00  0.00     0.172 C 
ENDROOT
BRANCH  13  14
HETATM   14  O3  UNL     1      40.407  21.874  29.481  1.00  0.00    -0.312 OA
BRANCH  14  15
HETATM   15  C17 UNL     1      41.361  22.554  30.233  1.00  0.00     0.267 C 
HETATM   16  O4  UNL     1      41.440  23.791  30.030  1.00  0.00    -0.264 OA
BRANCH  15  17
HETATM   17  C18 UNL     1      42.244  21.927  31.210  1.00  0.00     0.037 C 
HETATM   18  C19 UNL     1      41.534  21.601  32.507  1.00  0.00     0.025 C 
HETATM   19  C20 UNL     1      43.434  22.822  31.471  1.00  0.00     0.025 C 
HETATM   20  C21 UNL     1      42.780  20.639  30.573  1.00  0.00     0.025 C 
ENDBRANCH  15  17
ENDBRANCH  14  15
ENDBRANCH  13  14
BRANCH   1  21
HETATM   21  O1  UNL     1      38.161  22.220  30.349  1.00  0.00    -0.379 OA
BRANCH  21  22
HETATM   22  C3  UNL     1      38.074  20.958  30.833  1.00  0.00     0.195 C 
BRANCH  22  23
HETATM   23  C2  UNL     1      37.322  20.755  32.085  1.00  0.00    -0.011 C 
HETATM   24  C1  UNL     1      36.105  21.242  32.278  1.00  0.00     0.009 C 
ENDBRANCH  22  23
ENDBRANCH  21  22
ENDBRANCH   1  21
BRANCH   8  25
HETATM   25  O2  UNL     1      39.343  20.866  25.240  1.00  0.00    -0.389 OA
ATOM     26  H2  UNL     1      39.206  21.278  24.395  1.00  0.00     0.210 HD
ENDBRANCH   8  25
TORSDOF 7
ENDMDL
MODEL 2
REMARK VINA RESULT: -5.992543546      8.053     12.060
REMARK  7 active torsions:
REMARK  status: ('A' for Active; 'I' for Inactive)
REMARK    1  A    between atoms: C2_2  and  C3_3 
REMARK    2  A    between atoms: C3_3  and  O1_4 
REMARK    3  A    between atoms: O1_4  and  C4_5 
REMARK    4  A    between atoms: C11_12  and  O2_13 
REMARK    5  A    between atoms: C16_19  and  O3_20 
REMARK    6  A    between atoms: O3_20  and  C17_21 
REMARK    7  A    between atoms: C17_21  and  C18_23 
ROOT
HETATM    1  C4  UNL     1      49.433  24.903  32.511  1.00  0.00     0.156 C 
HETATM    2  C5  UNL     1      50.088  25.544  31.372  1.00  0.00     0.024 C 
HETATM    3  C6  UNL     1      50.280  27.017  31.622  1.00  0.00     0.008 C 
HETATM    4  C7  UNL     1      51.207  27.643  30.589  1.00  0.00     0.000 C 
HETATM    5  C8  UNL     1      52.603  27.145  30.741  1.00  0.00     0.001 C 
HETATM    6  C9  UNL     1      52.542  25.842  31.513  1.00  0.00     0.008 C 
HETATM    7  C10 UNL     1      51.404  24.976  30.944  1.00  0.00     0.027 C 
HETATM    8  C11 UNL     1      51.689  23.594  31.330  1.00  0.00     0.072 C 
HETATM    9  C12 UNL     1      52.346  23.379  32.689  1.00  0.00     0.040 C 
HETATM   10  C13 UNL     1      51.566  22.080  32.735  1.00  0.00     0.018 C 
HETATM   11  C14 UNL     1      50.576  22.750  31.775  1.00  0.00     0.017 C 
HETATM   12  C15 UNL     1      50.197  21.715  30.719  1.00  0.00     0.021 C 
HETATM   13  C16 UNL     1      49.438  23.376  32.450  1.00  0.00     0.172 C 
ENDROOT
BRANCH  13  14
HETATM   14  O3  UNL     1      48.235  22.902  31.830  1.00  0.00    -0.312 OA
BRANCH  14  15
HETATM   15  C17 UNL     1      47.277  22.169  32.524  1.00  0.00     0.267 C 
HETATM   16  O4  UNL     1      47.605  21.786  33.675  1.00  0.00    -0.264 OA
BRANCH  15  17
HETATM   17  C18 UNL     1      45.956  21.832  32.003  1.00  0.00     0.037 C 
HETATM   18  C19 UNL     1      45.067  21.192  33.048  1.00  0.00     0.025 C 
HETATM   19  C20 UNL     1      46.098  20.924  30.803  1.00  0.00     0.025 C 
HETATM   20  C21 UNL     1      45.320  23.137  31.508  1.00  0.00     0.025 C 
ENDBRANCH  15  17
ENDBRANCH  14  15
ENDBRANCH  13  14
BRANCH   1  21
HETATM   21  O1  UNL     1      48.082  25.226  32.533  1.00  0.00    -0.379 OA
BRANCH  21  22
HETATM   22  C3  UNL     1      47.572  25.695  33.697  1.00  0.00     0.195 C 
BRANCH  22  23
HETATM   23  C2  UNL     1      46.148  26.078  33.717  1.00  0.00    -0.011 C 
HETATM   24  C1  UNL     1      45.746  27.340  33.744  1.00  0.00     0.009 C 
ENDBRANCH  22  23
ENDBRANCH  21  22
ENDBRANCH   1  21
BRANCH   8  25
HETATM   25  O2  UNL     1      52.478  22.918  30.370  1.00  0.00    -0.389 OA
ATOM     26  H2  UNL     1      51.985  22.692  29.590  1.00  0.00     0.210 HD
ENDBRANCH   8  25
TORSDOF 7
ENDMDL
MODEL 3
REMARK VINA RESULT: -5.713159566      7.250     11.292
REMARK  7 active torsions:
REMARK  status: ('A' for Active; 'I' for Inactive)
REMARK    1  A    between atoms: C2_2  and  C3_3 
REMARK    2  A    between atoms: C3_3  and  O1_4 
REMARK    3  A    between atoms: O1_4  and  C4_5 
REMARK    4  A    between atoms: C11_12  and  O2_13 
REMARK    5  A    between atoms: C16_19  and  O3_20 
REMARK    6  A    between atoms: O3_20  and  C17_21 
REMARK    7  A    between atoms: C17_21  and  C18_23 
ROOT
HETATM    1  C4  UNL     1      48.601  22.130  32.107  1.00  0.00     0.156 C 
HETATM    2  C5  UNL     1      47.367  22.258  31.334  1.00  0.00     0.024 C 
HETATM    3  C6  UNL     1      46.785  20.905  31.023  1.00  0.00     0.008 C 
HETATM    4  C7  UNL     1      45.368  21.019  30.477  1.00  0.00     0.000 C 
HETATM    5  C8  UNL     1      44.421  21.501  31.522  1.00  0.00     0.001 C 
HETATM    6  C9  UNL     1      45.240  22.186  32.598  1.00  0.00     0.008 C 
HETATM    7  C10 UNL     1      46.283  23.099  31.930  1.00  0.00     0.027 C 
HETATM    8  C11 UNL     1      46.683  24.090  32.930  1.00  0.00     0.072 C 
HETATM    9  C12 UNL     1      46.743  23.621  34.379  1.00  0.00     0.040 C 
HETATM   10  C13 UNL     1      47.880  24.611  34.535  1.00  0.00     0.018 C 
HETATM   11  C14 UNL     1      48.101  24.451  33.026  1.00  0.00     0.017 C 
HETATM   12  C15 UNL     1      48.367  25.842  32.457  1.00  0.00     0.021 C 
HETATM   13  C16 UNL     1      49.112  23.450  32.684  1.00  0.00     0.172 C 
ENDROOT
BRANCH  13  14
HETATM   14  O3  UNL     1      50.051  24.052  31.785  1.00  0.00    -0.312 OA
BRANCH  14  15
HETATM   15  C17 UNL     1      51.405  24.168  32.087  1.00  0.00     0.267 C 
HETATM   16  O4  UNL     1      51.802  23.522  33.088  1.00  0.00    -0.264 OA
BRANCH  15  17
HETATM   17  C18 UNL     1      52.355  24.974  31.328  1.00  0.00     0.037 C 
HETATM   18  C19 UNL     1      51.863  26.388  31.102  1.00  0.00     0.025 C 
HETATM   19  C20 UNL     1      52.654  24.303  30.007  1.00  0.00     0.025 C 
HETATM   20  C21 UNL     1      53.664  25.001  32.126  1.00  0.00     0.025 C 
ENDBRANCH  15  17
ENDBRANCH  14  15
ENDBRANCH  13  14
BRANCH   1  21
HETATM   21  O1  UNL     1      49.641  21.707  31.288  1.00  0.00    -0.379 OA
BRANCH  21  22
HETATM   22  C3  UNL     1      50.325  20.602  31.670  1.00  0.00     0.195 C 
BRANCH  22  23
HETATM   23  C2  UNL     1      51.531  20.243  30.901  1.00  0.00    -0.011 C 
HETATM   24  C1  UNL     1      52.730  20.733  31.178  1.00  0.00     0.009 C 
ENDBRANCH  22  23
ENDBRANCH  21  22
ENDBRANCH   1  21
BRANCH   8  25
HETATM   25  O2  UNL     1      45.871  25.248  32.896  1.00  0.00    -0.389 OA
ATOM     26  H2  UNL     1      45.379  25.369  33.699  1.00  0.00     0.210 HD
ENDBRANCH   8  25
TORSDOF 7
ENDMDL
MODEL 4
REMARK VINA RESULT: -5.688529607      6.269     10.803
REMARK  7 active torsions:
REMARK  status: ('A' for Active; 'I' for Inactive)
REMARK    1  A    between atoms: C2_2  and  C3_3 
REMARK    2  A    between atoms: C3_3  and  O1_4 
REMARK    3  A    between atoms: O1_4  and  C4_5 
REMARK    4  A    between atoms: C11_12  and  O2_13 
REMARK    5  A    between atoms: C16_19  and  O3_20 
REMARK    6  A    between atoms: O3_20  and  C17_21 
REMARK    7  A    between atoms: C17_21  and  C18_23 
ROOT
HETATM    1  C4  UNL     1      48.034  24.212  32.509  1.00  0.00     0.156 C 
HETATM    2  C5  UNL     1      48.849  24.920  31.523  1.00  0.00     0.024 C 
HETATM    3  C6  UNL     1      49.336  26.235  32.072  1.00  0.00     0.008 C 
HETATM    4  C7  UNL     1      50.409  26.849  31.184  1.00  0.00     0.000 C 
HETATM    5  C8  UNL     1      51.664  26.046  31.217  1.00  0.00     0.001 C 
HETATM    6  C9  UNL     1      51.304  24.656  31.700  1.00  0.00     0.008 C 
HETATM    7  C10 UNL     1      50.032  24.186  30.974  1.00  0.00     0.027 C 
HETATM    8  C11 UNL     1      50.007  22.726  31.061  1.00  0.00     0.072 C 
HETATM    9  C12 UNL     1      50.555  22.103  32.338  1.00  0.00     0.040 C 
HETATM   10  C13 UNL     1      49.520  21.017  32.120  1.00  0.00     0.018 C 
HETATM   11  C14 UNL     1      48.726  22.065  31.330  1.00  0.00     0.017 C 
HETATM   12  C15 UNL     1      48.177  21.373  30.085  1.00  0.00     0.021 C 
HETATM   13  C16 UNL     1      47.721  22.765  32.131  1.00  0.00     0.172 C 
ENDROOT
BRANCH  13  14
HETATM   14  O3  UNL     1      46.469  22.695  31.437  1.00  0.00    -0.312 OA
BRANCH  14  15
HETATM   15  C17 UNL     1      45.348  22.075  31.982  1.00  0.00     0.267 C 
HETATM   16  O4  UNL     1      45.515  21.516  33.094  1.00  0.00    -0.264 OA
BRANCH  15  17
HETATM   17  C18 UNL     1      44.033  22.041  31.350  1.00  0.00     0.037 C 
HETATM   18  C19 UNL     1      43.020  21.262  32.162  1.00  0.00     0.025 C 
HETATM   19  C20 UNL     1      44.151  21.462  29.959  1.00  0.00     0.025 C 
HETATM   20  C21 UNL     1      43.569  23.495  31.195  1.00  0.00     0.025 C 
ENDBRANCH  15  17
ENDBRANCH  14  15
ENDBRANCH  13  14
BRANCH   1  21
HETATM   21  O1  UNL     1      46.781  24.803  32.610  1.00  0.00    -0.379 OA
BRANCH  21  22
HETATM   22  C3  UNL     1      46.401  25.253  33.830  1.00  0.00     0.195 C 
BRANCH  22  23
HETATM   23  C2  UNL     1      46.142  26.697  33.977  1.00  0.00    -0.011 C 
HETATM   24  C1  UNL     1      45.265  27.348  33.227  1.00  0.00     0.009 C 
ENDBRANCH  22  23
ENDBRANCH  21  22
ENDBRANCH   1  21
BRANCH   8  25
HETATM   25  O2  UNL     1      50.670  22.110  29.974  1.00  0.00    -0.389 OA
ATOM     26  H2  UNL     1      51.390  21.557  30.255  1.00  0.00     0.210 HD
ENDBRANCH   8  25
TORSDOF 7
ENDMDL
MODEL 5
REMARK VINA RESULT: -5.473956616      8.344     10.600
REMARK  7 active torsions:
REMARK  status: ('A' for Active; 'I' for Inactive)
REMARK    1  A    between atoms: C2_2  and  C3_3 
REMARK    2  A    between atoms: C3_3  and  O1_4 
REMARK    3  A    between atoms: O1_4  and  C4_5 
REMARK    4  A    between atoms: C11_12  and  O2_13 
REMARK    5  A    between atoms: C16_19  and  O3_20 
REMARK    6  A    between atoms: O3_20  and  C17_21 
REMARK    7  A    between atoms: C17_21  and  C18_23 
ROOT
HETATM    1  C4  UNL     1      40.851  30.641  31.404  1.00  0.00     0.156 C 
HETATM    2  C5  UNL     1      40.603  30.324  32.809  1.00  0.00     0.024 C 
HETATM    3  C6  UNL     1      39.127  30.215  33.083  1.00  0.00     0.008 C 
HETATM    4  C7  UNL     1      38.856  29.609  34.454  1.00  0.00     0.000 C 
HETATM    5  C8  UNL     1      39.260  28.176  34.502  1.00  0.00     0.001 C 
HETATM    6  C9  UNL     1      40.245  27.941  33.375  1.00  0.00     0.008 C 
HETATM    7  C10 UNL     1      41.262  29.094  33.349  1.00  0.00     0.027 C 
HETATM    8  C11 UNL     1      42.443  28.605  32.636  1.00  0.00     0.072 C 
HETATM    9  C12 UNL     1      42.199  27.638  31.483  1.00  0.00     0.040 C 
HETATM   10  C13 UNL     1      43.423  28.265  30.847  1.00  0.00     0.018 C 
HETATM   11  C14 UNL     1      43.111  29.506  31.693  1.00  0.00     0.017 C 
HETATM   12  C15 UNL     1      44.437  30.020  32.249  1.00  0.00     0.021 C 
HETATM   13  C16 UNL     1      42.316  30.511  30.988  1.00  0.00     0.172 C 
ENDROOT
BRANCH  13  14
HETATM   14  O3  UNL     1      42.980  31.775  31.115  1.00  0.00    -0.312 OA
BRANCH  14  15
HETATM   15  C17 UNL     1      44.016  32.163  30.270  1.00  0.00     0.267 C 
HETATM   16  O4  UNL     1      44.099  31.541  29.182  1.00  0.00    -0.264 OA
BRANCH  15  17
HETATM   17  C18 UNL     1      44.978  33.217  30.571  1.00  0.00     0.037 C 
HETATM   18  C19 UNL     1      45.719  33.694  29.340  1.00  0.00     0.025 C 
HETATM   19  C20 UNL     1      45.954  32.733  31.619  1.00  0.00     0.025 C 
HETATM   20  C21 UNL     1      44.194  34.381  31.189  1.00  0.00     0.025 C 
ENDBRANCH  15  17
ENDBRANCH  14  15
ENDBRANCH  13  14
BRANCH   1  21
HETATM   21  O1  UNL     1      40.556  31.975  31.152  1.00  0.00    -0.379 OA
BRANCH  21  22
HETATM   22  C3  UNL     1      39.960  32.269  29.971  1.00  0.00     0.195 C 
BRANCH  22  23
HETATM   23  C2  UNL     1      38.491  32.158  29.899  1.00  0.00    -0.011 C 
HETATM   24  C1  UNL     1      37.848  31.017  30.095  1.00  0.00     0.009 C 
ENDBRANCH  22  23
ENDBRANCH  21  22
ENDBRANCH   1  21
BRANCH   8  25
HETATM   25  O2  UNL     1      43.382  27.998  33.502  1.00  0.00    -0.389 OA
ATOM     26  H2  UNL     1      43.590  27.107  33.244  1.00  0.00     0.210 HD
ENDBRANCH   8  25
TORSDOF 7
ENDMDL
