MODEL 1
REMARK VINA RESULT: -5.136871468      0.000      0.000
REMARK  6 active torsions:
REMARK  status: ('A' for Active; 'I' for Inactive)
REMARK    1  A    between atoms: C2_2  and  C3_3 
REMARK    2  A    between atoms: C3_3  and  C4_4 
REMARK    3  A    between atoms: C8_8  and  O1_9 
REMARK    4  A    between atoms: C9_11  and  C10_12 
REMARK    5  A    between atoms: C10_12  and  C11_13 
REMARK    6  A    between atoms: C19_23  and  C20_24 
ROOT
HETATM    1  C4  UNL     1      51.981  22.834  32.543  1.00  0.00     0.061 C 
HETATM    2  C5  UNL     1      52.851  22.279  33.688  1.00  0.00     0.046 C 
HETATM    3  C6  UNL     1      50.573  22.405  32.905  1.00  0.00     0.040 C 
HETATM    4  C7  UNL     1      49.570  22.562  31.810  1.00  0.00     0.035 C 
HETATM    5  C8  UNL     1      48.494  23.570  32.150  1.00  0.00     0.122 C 
HETATM    6  C9  UNL     1      48.923  24.971  32.191  1.00  0.00     0.017 C 
HETATM    7  C13 UNL     1      49.817  25.449  31.103  1.00  0.00     0.040 C 
HETATM    8  C14 UNL     1      50.725  26.539  31.552  1.00  0.00     0.139 C 
HETATM    9  O2  UNL     1      50.577  27.714  30.760  1.00  0.00    -0.315 OA
HETATM   10  C15 UNL     1      51.760  28.135  30.216  1.00  0.00     0.263 C 
HETATM   11  O3  UNL     1      51.996  29.247  29.720  1.00  0.00    -0.265 OA
HETATM   12  C16 UNL     1      52.718  27.021  30.325  1.00  0.00     0.090 C 
HETATM   13  C17 UNL     1      52.771  26.282  29.057  1.00  0.00     0.021 C 
HETATM   14  C18 UNL     1      52.178  26.286  31.518  1.00  0.00     0.057 C 
HETATM   15  C19 UNL     1      52.668  24.891  31.653  1.00  0.00     0.129 C 
HETATM   16  O4  UNL     1      52.027  24.184  32.599  1.00  0.00    -0.374 OA
ENDROOT
BRANCH   1  17
HETATM   17  C3  UNL     1      52.401  22.149  31.318  1.00  0.00     0.064 C 
BRANCH  17  18
HETATM   18  C2  UNL     1      53.266  20.973  31.719  1.00  0.00    -0.034 C 
HETATM   19  C1  UNL     1      53.928  20.253  30.830  1.00  0.00     0.007 C 
ENDBRANCH  17  18
ENDBRANCH   1  17
BRANCH  15  20
HETATM   20  C20 UNL     1      54.143  25.010  32.068  1.00  0.00     0.028 C 
HETATM   21  C21 UNL     1      55.016  24.301  31.057  1.00  0.00     0.007 C 
ENDBRANCH  15  20
BRANCH   5  22
HETATM   22  O1  UNL     1      47.388  23.408  31.318  1.00  0.00    -0.395 OA
ATOM     23  H1  UNL     1      47.662  23.269  30.419  1.00  0.00     0.210 HD
ENDBRANCH   5  22
BRANCH   6  24
HETATM   24  C10 UNL     1      47.652  25.837  32.193  1.00  0.00     0.007 C 
BRANCH  24  25
HETATM   25  C11 UNL     1      47.156  26.001  33.612  1.00  0.00    -0.004 C 
HETATM   26  C12 UNL     1      46.005  26.969  33.616  1.00  0.00     0.005 C 
ENDBRANCH  24  25
ENDBRANCH   6  24
TORSDOF 6
ENDMDL
MODEL 2
REMARK VINA RESULT: -5.099853126      1.651      4.847
REMARK  6 active torsions:
REMARK  status: ('A' for Active; 'I' for Inactive)
REMARK    1  A    between atoms: C2_2  and  C3_3 
REMARK    2  A    between atoms: C3_3  and  C4_4 
REMARK    3  A    between atoms: C8_8  and  O1_9 
REMARK    4  A    between atoms: C9_11  and  C10_12 
REMARK    5  A    between atoms: C10_12  and  C11_13 
REMARK    6  A    between atoms: C19_23  and  C20_24 
ROOT
HETATM    1  C4  UNL     1      51.910  22.845  30.940  1.00  0.00     0.061 C 
HETATM    2  C5  UNL     1      52.246  21.761  29.896  1.00  0.00     0.046 C 
HETATM    3  C6  UNL     1      52.908  23.951  30.660  1.00  0.00     0.040 C 
HETATM    4  C7  UNL     1      52.994  25.000  31.720  1.00  0.00     0.035 C 
HETATM    5  C8  UNL     1      52.554  26.360  31.226  1.00  0.00     0.122 C 
HETATM    6  C9  UNL     1      51.121  26.508  30.954  1.00  0.00     0.017 C 
HETATM    7  C13 UNL     1      50.171  25.936  31.945  1.00  0.00     0.040 C 
HETATM    8  C14 UNL     1      48.894  25.499  31.320  1.00  0.00     0.139 C 
HETATM    9  O2  UNL     1      47.766  26.138  31.910  1.00  0.00    -0.315 OA
HETATM   10  C15 UNL     1      46.836  25.246  32.372  1.00  0.00     0.263 C 
HETATM   11  O3  UNL     1      45.660  25.491  32.679  1.00  0.00    -0.265 OA
HETATM   12  C16 UNL     1      47.487  23.926  32.442  1.00  0.00     0.090 C 
HETATM   13  C17 UNL     1      47.943  23.666  33.812  1.00  0.00     0.021 C 
HETATM   14  C18 UNL     1      48.547  24.066  31.387  1.00  0.00     0.057 C 
HETATM   15  C19 UNL     1      49.640  23.066  31.478  1.00  0.00     0.129 C 
HETATM   16  O4  UNL     1      50.677  23.323  30.664  1.00  0.00    -0.374 OA
ENDROOT
BRANCH   1  17
HETATM   17  C3  UNL     1      52.181  22.265  32.257  1.00  0.00     0.064 C 
BRANCH  17  18
HETATM   18  C2  UNL     1      53.288  21.245  32.097  1.00  0.00    -0.034 C 
HETATM   19  C1  UNL     1      54.314  21.186  32.928  1.00  0.00     0.007 C 
ENDBRANCH  17  18
ENDBRANCH   1  17
BRANCH  15  20
HETATM   20  C20 UNL     1      49.015  21.730  31.042  1.00  0.00     0.028 C 
HETATM   21  C21 UNL     1      49.178  20.707  32.143  1.00  0.00     0.007 C 
ENDBRANCH  15  20
BRANCH   5  22
HETATM   22  O1  UNL     1      53.009  27.364  32.079  1.00  0.00    -0.395 OA
ATOM     23  H1  UNL     1      53.291  28.124  31.583  1.00  0.00     0.210 HD
ENDBRANCH   5  22
BRANCH   6  24
HETATM   24  C10 UNL     1      50.835  28.013  30.818  1.00  0.00     0.007 C 
BRANCH  24  25
HETATM   25  C11 UNL     1      51.079  28.445  29.390  1.00  0.00    -0.004 C 
HETATM   26  C12 UNL     1      51.904  29.701  29.395  1.00  0.00     0.005 C 
ENDBRANCH  24  25
ENDBRANCH   6  24
TORSDOF 6
ENDMDL
MODEL 3
REMARK VINA RESULT: -5.095323097      1.908      5.022
REMARK  6 active torsions:
REMARK  status: ('A' for Active; 'I' for Inactive)
REMARK    1  A    between atoms: C2_2  and  C3_3 
REMARK    2  A    between atoms: C3_3  and  C4_4 
REMARK    3  A    between atoms: C8_8  and  O1_9 
REMARK    4  A    between atoms: C9_11  and  C10_12 
REMARK    5  A    between atoms: C10_12  and  C11_13 
REMARK    6  A    between atoms: C19_23  and  C20_24 
ROOT
HETATM    1  C4  UNL     1      50.736  22.635  30.321  1.00  0.00     0.061 C 
HETATM    2  C5  UNL     1      50.547  21.688  29.120  1.00  0.00     0.046 C 
HETATM    3  C6  UNL     1      51.898  23.520  29.917  1.00  0.00     0.040 C 
HETATM    4  C7  UNL     1      52.478  24.337  31.024  1.00  0.00     0.035 C 
HETATM    5  C8  UNL     1      52.305  25.823  30.801  1.00  0.00     0.122 C 
HETATM    6  C9  UNL     1      50.934  26.329  30.914  1.00  0.00     0.017 C 
HETATM    7  C13 UNL     1      50.109  25.832  32.046  1.00  0.00     0.040 C 
HETATM    8  C14 UNL     1      48.658  25.799  31.720  1.00  0.00     0.139 C 
HETATM    9  O2  UNL     1      47.889  26.570  32.638  1.00  0.00    -0.315 OA
HETATM   10  C15 UNL     1      46.885  25.846  33.223  1.00  0.00     0.263 C 
HETATM   11  O3  UNL     1      45.907  26.295  33.839  1.00  0.00    -0.265 OA
HETATM   12  C16 UNL     1      47.174  24.421  32.989  1.00  0.00     0.090 C 
HETATM   13  C17 UNL     1      47.836  23.846  34.167  1.00  0.00     0.021 C 
HETATM   14  C18 UNL     1      47.979  24.489  31.723  1.00  0.00     0.057 C 
HETATM   15  C19 UNL     1      48.771  23.268  31.432  1.00  0.00     0.129 C 
HETATM   16  O4  UNL     1      49.637  23.416  30.415  1.00  0.00    -0.374 OA
ENDROOT
BRANCH   1  17
HETATM   17  C3  UNL     1      51.129  21.804  31.461  1.00  0.00     0.064 C 
BRANCH  17  18
HETATM   18  C2  UNL     1      51.953  20.650  30.931  1.00  0.00    -0.034 C 
HETATM   19  C1  UNL     1      53.200  20.440  31.317  1.00  0.00     0.007 C 
ENDBRANCH  17  18
ENDBRANCH   1  17
BRANCH  15  20
HETATM   20  C20 UNL     1      47.746  22.196  31.030  1.00  0.00     0.028 C 
HETATM   21  C21 UNL     1      47.870  21.001  31.949  1.00  0.00     0.007 C 
ENDBRANCH  15  20
BRANCH   5  22
HETATM   22  O1  UNL     1      53.177  26.547  31.612  1.00  0.00    -0.395 OA
ATOM     23  H1  UNL     1      53.149  27.471  31.392  1.00  0.00     0.210 HD
ENDBRANCH   5  22
BRANCH   6  24
HETATM   24  C10 UNL     1      51.021  27.862  31.012  1.00  0.00     0.007 C 
BRANCH  24  25
HETATM   25  C11 UNL     1      50.981  28.458  29.622  1.00  0.00    -0.004 C 
HETATM   26  C12 UNL     1      52.068  29.490  29.504  1.00  0.00     0.005 C 
ENDBRANCH  24  25
ENDBRANCH   6  24
TORSDOF 6
ENDMDL
MODEL 4
REMARK VINA RESULT: -4.674699168      1.322      1.608
REMARK  6 active torsions:
REMARK  status: ('A' for Active; 'I' for Inactive)
REMARK    1  A    between atoms: C2_2  and  C3_3 
REMARK    2  A    between atoms: C3_3  and  C4_4 
REMARK    3  A    between atoms: C8_8  and  O1_9 
REMARK    4  A    between atoms: C9_11  and  C10_12 
REMARK    5  A    between atoms: C10_12  and  C11_13 
REMARK    6  A    between atoms: C19_23  and  C20_24 
ROOT
HETATM    1  C4  UNL     1      53.488  23.973  32.131  1.00  0.00     0.061 C 
HETATM    2  C5  UNL     1      54.571  23.745  33.204  1.00  0.00     0.046 C 
HETATM    3  C6  UNL     1      52.288  23.204  32.645  1.00  0.00     0.040 C 
HETATM    4  C7  UNL     1      51.191  23.016  31.649  1.00  0.00     0.035 C 
HETATM    5  C8  UNL     1      49.913  23.716  32.056  1.00  0.00     0.122 C 
HETATM    6  C9  UNL     1      49.944  25.181  32.003  1.00  0.00     0.017 C 
HETATM    7  C13 UNL     1      50.577  25.813  30.816  1.00  0.00     0.040 C 
HETATM    8  C14 UNL     1      51.185  27.133  31.132  1.00  0.00     0.139 C 
HETATM    9  O2  UNL     1      50.655  28.173  30.317  1.00  0.00    -0.315 OA
HETATM   10  C15 UNL     1      51.627  28.863  29.643  1.00  0.00     0.263 C 
HETATM   11  O3  UNL     1      51.506  29.964  29.087  1.00  0.00    -0.265 OA
HETATM   12  C16 UNL     1      52.859  28.057  29.698  1.00  0.00     0.090 C 
HETATM   13  C17 UNL     1      53.005  27.283  28.460  1.00  0.00     0.021 C 
HETATM   14  C18 UNL     1      52.644  27.280  30.965  1.00  0.00     0.057 C 
HETATM   15  C19 UNL     1      53.507  26.080  31.103  1.00  0.00     0.129 C 
HETATM   16  O4  UNL     1      53.168  25.286  32.132  1.00  0.00    -0.374 OA
ENDROOT
BRANCH   1  17
HETATM   17  C3  UNL     1      53.975  23.351  30.897  1.00  0.00     0.064 C 
BRANCH  17  18
HETATM   18  C2  UNL     1      54.821  22.157  31.282  1.00  0.00    -0.034 C 
HETATM   19  C1  UNL     1      54.655  20.969  30.726  1.00  0.00     0.007 C 
ENDBRANCH  17  18
ENDBRANCH   1  17
BRANCH  15  20
HETATM   20  C20 UNL     1      54.923  26.618  31.366  1.00  0.00     0.028 C 
HETATM   21  C21 UNL     1      54.840  28.006  31.959  1.00  0.00     0.007 C 
ENDBRANCH  15  20
BRANCH   5  22
HETATM   22  O1  UNL     1      48.827  23.211  31.343  1.00  0.00    -0.395 OA
ATOM     23  H1  UNL     1      48.015  23.594  31.653  1.00  0.00     0.210 HD
ENDBRANCH   5  22
BRANCH   6  24
HETATM   24  C10 UNL     1      48.489  25.671  32.098  1.00  0.00     0.007 C 
BRANCH  24  25
HETATM   25  C11 UNL     1      48.047  25.662  33.544  1.00  0.00    -0.004 C 
HETATM   26  C12 UNL     1      46.601  26.067  33.615  1.00  0.00     0.005 C 
ENDBRANCH  24  25
ENDBRANCH   6  24
TORSDOF 6
ENDMDL
MODEL 5
REMARK VINA RESULT: -4.671889588      3.275      6.550
REMARK  6 active torsions:
REMARK  status: ('A' for Active; 'I' for Inactive)
REMARK    1  A    between atoms: C2_2  and  C3_3 
REMARK    2  A    between atoms: C3_3  and  C4_4 
REMARK    3  A    between atoms: C8_8  and  O1_9 
REMARK    4  A    between atoms: C9_11  and  C10_12 
REMARK    5  A    between atoms: C10_12  and  C11_13 
REMARK    6  A    between atoms: C19_23  and  C20_24 
ROOT
HETATM    1  C4  UNL     1      48.913  22.713  31.063  1.00  0.00     0.061 C 
HETATM    2  C5  UNL     1      49.831  22.470  29.850  1.00  0.00     0.046 C 
HETATM    3  C6  UNL     1      49.194  24.148  31.460  1.00  0.00     0.040 C 
HETATM    4  C7  UNL     1      48.650  24.547  32.793  1.00  0.00     0.035 C 
HETATM    5  C8  UNL     1      47.591  25.623  32.688  1.00  0.00     0.122 C 
HETATM    6  C9  UNL     1      46.315  25.206  32.099  1.00  0.00     0.017 C 
HETATM    7  C13 UNL     1      45.750  23.902  32.536  1.00  0.00     0.040 C 
HETATM    8  C14 UNL     1      44.935  23.252  31.475  1.00  0.00     0.139 C 
HETATM    9  O2  UNL     1      43.606  22.986  31.912  1.00  0.00    -0.315 OA
HETATM   10  C15 UNL     1      43.258  21.669  31.771  1.00  0.00     0.263 C 
HETATM   11  O3  UNL     1      42.113  21.195  31.806  1.00  0.00    -0.265 OA
HETATM   12  C16 UNL     1      44.500  20.904  31.565  1.00  0.00     0.090 C 
HETATM   13  C17 UNL     1      44.941  20.316  32.836  1.00  0.00     0.021 C 
HETATM   14  C18 UNL     1      45.390  21.949  30.955  1.00  0.00     0.057 C 
HETATM   15  C19 UNL     1      46.838  21.624  30.999  1.00  0.00     0.129 C 
HETATM   16  O4  UNL     1      47.632  22.646  30.638  1.00  0.00    -0.374 OA
ENDROOT
BRANCH   1  17
HETATM   17  C3  UNL     1      49.367  21.814  32.127  1.00  0.00     0.064 C 
BRANCH  17  18
HETATM   18  C2  UNL     1      50.855  21.601  31.950  1.00  0.00    -0.034 C 
HETATM   19  C1  UNL     1      51.724  21.890  32.903  1.00  0.00     0.007 C 
ENDBRANCH  17  18
ENDBRANCH   1  17
BRANCH  15  20
HETATM   20  C20 UNL     1      47.037  20.488  29.982  1.00  0.00     0.028 C 
HETATM   21  C21 UNL     1      46.607  20.951  28.608  1.00  0.00     0.007 C 
ENDBRANCH  15  20
BRANCH   5  22
HETATM   22  O1  UNL     1      47.397  26.243  33.920  1.00  0.00    -0.395 OA
ATOM     23  H1  UNL     1      46.471  26.292  34.129  1.00  0.00     0.210 HD
ENDBRANCH   5  22
BRANCH   6  24
HETATM   24  C10 UNL     1      45.289  26.310  32.408  1.00  0.00     0.007 C 
BRANCH  24  25
HETATM   25  C11 UNL     1      44.206  26.299  31.353  1.00  0.00    -0.004 C 
HETATM   26  C12 UNL     1      43.425  27.581  31.444  1.00  0.00     0.005 C 
ENDBRANCH  24  25
ENDBRANCH   6  24
TORSDOF 6
ENDMDL
