MODEL 1
REMARK VINA RESULT: -7.264220414      0.000      0.000
REMARK  5 active torsions:
REMARK  status: ('A' for Active; 'I' for Inactive)
REMARK    1  A    between atoms: C2_2  and  C4_4 
REMARK    2  A    between atoms: C4_4  and  C6_6 
REMARK    3  A    between atoms: C6_6  and  C7_7 
REMARK    4  A    between atoms: C14_14  and  O1_15 
REMARK    5  A    between atoms: C21_24  and  O3_25 
ROOT
HETATM    1  C7  UNL     1      42.617  28.522  31.481  1.00  0.00    -0.006 C 
HETATM    2  C8  UNL     1      42.286  29.226  30.185  1.00  0.00     0.009 C 
HETATM    3  C9  UNL     1      42.357  30.700  30.140  1.00  0.00     0.034 C 
HETATM    4  C10 UNL     1      42.856  31.413  31.319  1.00  0.00    -0.087 C 
HETATM    5  C11 UNL     1      44.342  31.671  31.420  1.00  0.00     0.043 C 
HETATM    6  C12 UNL     1      42.122  31.845  32.300  1.00  0.00    -0.021 C 
HETATM    7  C13 UNL     1      40.638  31.697  32.410  1.00  0.00     0.068 C 
HETATM    8  C14 UNL     1      40.380  30.521  33.250  1.00  0.00     0.096 C 
HETATM    9  C15 UNL     1      39.153  30.386  34.050  1.00  0.00     0.082 C 
HETATM   10  C16 UNL     1      39.360  28.909  34.506  1.00  0.00     0.091 A 
HETATM   11  C17 UNL     1      38.606  28.442  35.602  1.00  0.00     0.207 A 
HETATM   12  O2  UNL     1      40.073  28.695  35.656  1.00  0.00    -0.374 OA
HETATM   13  C18 UNL     1      39.659  28.256  33.224  1.00  0.00     0.061 C 
HETATM   14  C19 UNL     1      40.830  27.388  32.994  1.00  0.00     0.019 C 
HETATM   15  C20 UNL     1      41.660  28.569  32.562  1.00  0.00     0.028 C 
HETATM   16  C21 UNL     1      40.378  29.297  32.367  1.00  0.00     0.102 C 
ENDROOT
BRANCH   1  17
HETATM   17  C6  UNL     1      43.152  27.169  31.063  1.00  0.00     0.013 C 
BRANCH  17  18
HETATM   18  C4  UNL     1      44.514  26.814  31.485  1.00  0.00     0.009 C 
HETATM   19  C5  UNL     1      44.688  27.508  32.871  1.00  0.00     0.015 C 
BRANCH  18  20
HETATM   20  C2  UNL     1      44.736  25.389  31.783  1.00  0.00    -0.089 C 
HETATM   21  C1  UNL     1      43.866  24.510  31.306  1.00  0.00     0.014 C 
HETATM   22  C3  UNL     1      45.862  24.853  32.580  1.00  0.00     0.043 C 
ENDBRANCH  18  20
ENDBRANCH  17  18
ENDBRANCH   1  17
BRANCH  16  23
HETATM   23  O3  UNL     1      39.768  29.364  31.186  1.00  0.00    -0.381 OA
HETATM   24  C22 UNL     1      38.571  29.898  30.968  1.00  0.00     0.202 C 
ENDBRANCH  16  23
BRANCH   8  25
HETATM   25  O1  UNL     1      41.411  30.511  34.226  1.00  0.00    -0.386 OA
ATOM     26  H1  UNL     1      41.396  29.641  34.608  1.00  0.00     0.210 HD
ENDBRANCH   8  25
TORSDOF 5
ENDMDL
MODEL 2
REMARK VINA RESULT: -7.062742604      0.619      1.066
REMARK  5 active torsions:
REMARK  status: ('A' for Active; 'I' for Inactive)
REMARK    1  A    between atoms: C2_2  and  C4_4 
REMARK    2  A    between atoms: C4_4  and  C6_6 
REMARK    3  A    between atoms: C6_6  and  C7_7 
REMARK    4  A    between atoms: C14_14  and  O1_15 
REMARK    5  A    between atoms: C21_24  and  O3_25 
ROOT
HETATM    1  C7  UNL     1      42.939  28.886  31.414  1.00  0.00    -0.006 C 
HETATM    2  C8  UNL     1      42.664  29.664  30.148  1.00  0.00     0.009 C 
HETATM    3  C9  UNL     1      42.696  31.140  30.200  1.00  0.00     0.034 C 
HETATM    4  C10 UNL     1      43.106  31.786  31.450  1.00  0.00    -0.087 C 
HETATM    5  C11 UNL     1      44.576  32.073  31.655  1.00  0.00     0.043 C 
HETATM    6  C12 UNL     1      42.304  32.136  32.411  1.00  0.00    -0.021 C 
HETATM    7  C13 UNL     1      40.821  31.945  32.422  1.00  0.00     0.068 C 
HETATM    8  C14 UNL     1      40.548  30.711  33.169  1.00  0.00     0.096 C 
HETATM    9  C15 UNL     1      39.281  30.494  33.884  1.00  0.00     0.082 C 
HETATM   10  C16 UNL     1      39.503  28.997  34.258  1.00  0.00     0.091 A 
HETATM   11  C17 UNL     1      38.699  28.442  35.275  1.00  0.00     0.207 A 
HETATM   12  O2  UNL     1      40.153  28.727  35.433  1.00  0.00    -0.374 OA
HETATM   13  C18 UNL     1      39.893  28.436  32.957  1.00  0.00     0.061 C 
HETATM   14  C19 UNL     1      41.099  27.613  32.743  1.00  0.00     0.019 C 
HETATM   15  C20 UNL     1      41.920  28.840  32.437  1.00  0.00     0.028 C 
HETATM   16  C21 UNL     1      40.631  29.548  32.212  1.00  0.00     0.102 C 
ENDROOT
BRANCH   1  17
HETATM   17  C6  UNL     1      43.535  27.576  30.944  1.00  0.00     0.013 C 
BRANCH  17  18
HETATM   18  C4  UNL     1      43.805  26.547  31.958  1.00  0.00     0.009 C 
HETATM   19  C5  UNL     1      43.588  25.195  31.212  1.00  0.00     0.015 C 
BRANCH  18  20
HETATM   20  C2  UNL     1      45.200  26.464  32.423  1.00  0.00    -0.089 C 
HETATM   21  C1  UNL     1      46.018  25.632  31.793  1.00  0.00     0.014 C 
HETATM   22  C3  UNL     1      45.769  27.241  33.548  1.00  0.00     0.043 C 
ENDBRANCH  18  20
ENDBRANCH  17  18
ENDBRANCH   1  17
BRANCH  16  23
HETATM   23  O3  UNL     1      40.090  29.676  31.003  1.00  0.00    -0.381 OA
HETATM   24  C22 UNL     1      39.003  30.386  30.720  1.00  0.00     0.202 C 
ENDBRANCH  16  23
BRANCH   8  25
HETATM   25  O1  UNL     1      41.520  30.663  34.203  1.00  0.00    -0.386 OA
ATOM     26  H1  UNL     1      41.166  30.080  34.863  1.00  0.00     0.210 HD
ENDBRANCH   8  25
TORSDOF 5
ENDMDL
MODEL 3
REMARK VINA RESULT: -6.720282663      2.044      4.350
REMARK  5 active torsions:
REMARK  status: ('A' for Active; 'I' for Inactive)
REMARK    1  A    between atoms: C2_2  and  C4_4 
REMARK    2  A    between atoms: C4_4  and  C6_6 
REMARK    3  A    between atoms: C6_6  and  C7_7 
REMARK    4  A    between atoms: C14_14  and  O1_15 
REMARK    5  A    between atoms: C21_24  and  O3_25 
ROOT
HETATM    1  C7  UNL     1      41.444  31.547  32.033  1.00  0.00    -0.006 C 
HETATM    2  C8  UNL     1      41.721  30.980  30.661  1.00  0.00     0.009 C 
HETATM    3  C9  UNL     1      40.601  30.850  29.707  1.00  0.00     0.034 C 
HETATM    4  C10 UNL     1      39.291  31.382  30.091  1.00  0.00    -0.087 C 
HETATM    5  C11 UNL     1      38.979  32.822  29.754  1.00  0.00     0.043 C 
HETATM    6  C12 UNL     1      38.361  30.713  30.707  1.00  0.00    -0.021 C 
HETATM    7  C13 UNL     1      38.455  29.284  31.137  1.00  0.00     0.068 C 
HETATM    8  C14 UNL     1      38.850  29.282  32.551  1.00  0.00     0.096 C 
HETATM    9  C15 UNL     1      38.492  28.183  33.461  1.00  0.00     0.082 C 
HETATM   10  C16 UNL     1      39.347  28.635  34.684  1.00  0.00     0.091 A 
HETATM   11  C17 UNL     1      39.046  28.079  35.944  1.00  0.00     0.207 A 
HETATM   12  O2  UNL     1      38.768  29.496  35.578  1.00  0.00    -0.374 OA
HETATM   13  C18 UNL     1      40.651  28.869  34.047  1.00  0.00     0.061 C 
HETATM   14  C19 UNL     1      41.432  30.111  34.203  1.00  0.00     0.019 C 
HETATM   15  C20 UNL     1      40.759  30.722  33.002  1.00  0.00     0.028 C 
HETATM   16  C21 UNL     1      40.356  29.341  32.624  1.00  0.00     0.102 C 
ENDROOT
BRANCH   1  17
HETATM   17  C6  UNL     1      42.741  32.206  32.452  1.00  0.00     0.013 C 
BRANCH  17  18
HETATM   18  C4  UNL     1      43.312  33.219  31.554  1.00  0.00     0.009 C 
HETATM   19  C5  UNL     1      43.731  34.388  32.499  1.00  0.00     0.015 C 
BRANCH  18  20
HETATM   20  C2  UNL     1      44.573  32.844  30.892  1.00  0.00    -0.089 C 
HETATM   21  C1  UNL     1      45.627  32.592  31.656  1.00  0.00     0.014 C 
HETATM   22  C3  UNL     1      44.762  32.725  29.428  1.00  0.00     0.043 C 
ENDBRANCH  18  20
ENDBRANCH  17  18
ENDBRANCH   1  17
BRANCH  16  23
HETATM   23  O3  UNL     1      41.065  28.597  31.779  1.00  0.00    -0.381 OA
HETATM   24  C22 UNL     1      41.953  27.672  32.128  1.00  0.00     0.202 C 
ENDBRANCH  16  23
BRANCH   8  25
HETATM   25  O1  UNL     1      38.212  30.409  33.131  1.00  0.00    -0.386 OA
ATOM     26  H1  UNL     1      38.150  30.221  34.060  1.00  0.00     0.210 HD
ENDBRANCH   8  25
TORSDOF 5
ENDMDL
MODEL 4
REMARK VINA RESULT: -5.615135423      8.090     11.395
REMARK  5 active torsions:
REMARK  status: ('A' for Active; 'I' for Inactive)
REMARK    1  A    between atoms: C2_2  and  C4_4 
REMARK    2  A    between atoms: C4_4  and  C6_6 
REMARK    3  A    between atoms: C6_6  and  C7_7 
REMARK    4  A    between atoms: C14_14  and  O1_15 
REMARK    5  A    between atoms: C21_24  and  O3_25 
ROOT
HETATM    1  C7  UNL     1      50.599  25.951  31.775  1.00  0.00    -0.006 C 
HETATM    2  C8  UNL     1      49.385  25.928  30.875  1.00  0.00     0.009 C 
HETATM    3  C9  UNL     1      48.144  25.302  31.372  1.00  0.00     0.034 C 
HETATM    4  C10 UNL     1      48.105  24.831  32.759  1.00  0.00    -0.087 C 
HETATM    5  C11 UNL     1      47.657  25.800  33.829  1.00  0.00     0.043 C 
HETATM    6  C12 UNL     1      48.431  23.636  33.155  1.00  0.00    -0.021 C 
HETATM    7  C13 UNL     1      48.903  22.524  32.273  1.00  0.00     0.068 C 
HETATM    8  C14 UNL     1      50.370  22.520  32.330  1.00  0.00     0.096 C 
HETATM    9  C15 UNL     1      51.158  21.297  32.105  1.00  0.00     0.082 C 
HETATM   10  C16 UNL     1      52.570  21.959  32.073  1.00  0.00     0.091 A 
HETATM   11  C17 UNL     1      53.695  21.126  32.241  1.00  0.00     0.207 A 
HETATM   12  O2  UNL     1      53.229  22.103  33.265  1.00  0.00    -0.374 OA
HETATM   13  C18 UNL     1      52.346  23.056  31.121  1.00  0.00     0.061 C 
HETATM   14  C19 UNL     1      52.699  24.463  31.390  1.00  0.00     0.019 C 
HETATM   15  C20 UNL     1      51.337  24.725  31.979  1.00  0.00     0.028 C 
HETATM   16  C21 UNL     1      50.889  23.484  31.291  1.00  0.00     0.102 C 
ENDROOT
BRANCH   1  17
HETATM   17  C6  UNL     1      51.370  27.184  31.358  1.00  0.00     0.013 C 
BRANCH  17  18
HETATM   18  C4  UNL     1      51.690  27.339  29.932  1.00  0.00     0.009 C 
HETATM   19  C5  UNL     1      51.235  28.790  29.583  1.00  0.00     0.015 C 
BRANCH  18  20
HETATM   20  C2  UNL     1      53.124  27.338  29.598  1.00  0.00    -0.089 C 
HETATM   21  C1  UNL     1      53.496  26.793  28.448  1.00  0.00     0.014 C 
HETATM   22  C3  UNL     1      54.195  27.902  30.451  1.00  0.00     0.043 C 
ENDBRANCH  18  20
ENDBRANCH  17  18
ENDBRANCH   1  17
BRANCH  16  23
HETATM   23  O3  UNL     1      50.313  23.502  30.092  1.00  0.00    -0.381 OA
HETATM   24  C22 UNL     1      50.090  22.435  29.331  1.00  0.00     0.202 C 
ENDBRANCH  16  23
BRANCH   8  25
HETATM   25  O1  UNL     1      50.707  22.887  33.659  1.00  0.00    -0.386 OA
ATOM     26  H1  UNL     1      51.232  23.674  33.585  1.00  0.00     0.210 HD
ENDBRANCH   8  25
TORSDOF 5
ENDMDL
MODEL 5
REMARK VINA RESULT: -5.572922606      7.675     12.093
REMARK  5 active torsions:
REMARK  status: ('A' for Active; 'I' for Inactive)
REMARK    1  A    between atoms: C2_2  and  C4_4 
REMARK    2  A    between atoms: C4_4  and  C6_6 
REMARK    3  A    between atoms: C6_6  and  C7_7 
REMARK    4  A    between atoms: C14_14  and  O1_15 
REMARK    5  A    between atoms: C21_24  and  O3_25 
ROOT
HETATM    1  C7  UNL     1      50.509  24.589  31.401  1.00  0.00    -0.006 C 
HETATM    2  C8  UNL     1      50.568  23.478  30.378  1.00  0.00     0.009 C 
HETATM    3  C9  UNL     1      51.447  22.320  30.637  1.00  0.00     0.034 C 
HETATM    4  C10 UNL     1      52.138  22.241  31.926  1.00  0.00    -0.087 C 
HETATM    5  C11 UNL     1      51.435  21.547  33.071  1.00  0.00     0.043 C 
HETATM    6  C12 UNL     1      53.318  22.726  32.176  1.00  0.00    -0.021 C 
HETATM    7  C13 UNL     1      54.187  23.451  31.198  1.00  0.00     0.068 C 
HETATM    8  C14 UNL     1      53.979  24.887  31.416  1.00  0.00     0.096 C 
HETATM    9  C15 UNL     1      55.016  25.884  31.103  1.00  0.00     0.082 C 
HETATM   10  C16 UNL     1      54.152  27.164  31.325  1.00  0.00     0.091 A 
HETATM   11  C17 UNL     1      54.822  28.393  31.494  1.00  0.00     0.207 A 
HETATM   12  O2  UNL     1      54.106  27.684  32.592  1.00  0.00    -0.374 OA
HETATM   13  C18 UNL     1      52.961  26.843  30.527  1.00  0.00     0.061 C 
HETATM   14  C19 UNL     1      51.580  26.932  31.037  1.00  0.00     0.019 C 
HETATM   15  C20 UNL     1      51.626  25.500  31.503  1.00  0.00     0.028 C 
HETATM   16  C21 UNL     1      52.791  25.326  30.595  1.00  0.00     0.102 C 
ENDROOT
BRANCH   1  17
HETATM   17  C6  UNL     1      49.122  25.177  31.258  1.00  0.00     0.013 C 
BRANCH  17  18
HETATM   18  C4  UNL     1      48.012  24.474  31.915  1.00  0.00     0.009 C 
HETATM   19  C5  UNL     1      48.583  24.050  33.304  1.00  0.00     0.015 C 
BRANCH  18  20
HETATM   20  C2  UNL     1      46.848  25.307  32.262  1.00  0.00    -0.089 C 
HETATM   21  C1  UNL     1      45.761  25.203  31.510  1.00  0.00     0.014 C 
HETATM   22  C3  UNL     1      46.792  26.262  33.393  1.00  0.00     0.043 C 
ENDBRANCH  18  20
ENDBRANCH  17  18
ENDBRANCH   1  17
BRANCH  16  23
HETATM   23  O3  UNL     1      52.666  24.860  29.355  1.00  0.00    -0.381 OA
HETATM   24  C22 UNL     1      53.554  25.022  28.380  1.00  0.00     0.202 C 
ENDBRANCH  16  23
BRANCH   8  25
HETATM   25  O1  UNL     1      53.787  25.042  32.814  1.00  0.00    -0.386 OA
ATOM     26  H1  UNL     1      53.790  25.979  32.973  1.00  0.00     0.210 HD
ENDBRANCH   8  25
TORSDOF 5
ENDMDL
